REMARK  Name = 
REMARK  11 active torsions:
REMARK  status: ('A' for Active; 'I' for Inactive)
REMARK    1  A    between atoms: C_1  and  C_2
REMARK    2  A    between atoms: C_4  and  C_7
REMARK    3  A    between atoms: C_7  and  C_8
REMARK    4  A    between atoms: C_7  and  C_15
REMARK    5  A    between atoms: C_7  and  C_27
REMARK    6  A    between atoms: C_8  and  C_9
REMARK    7  A    between atoms: C_15  and  C_16
REMARK    8  A    between atoms: C_19  and  N_20
REMARK    9  A    between atoms: N_20  and  S_21
REMARK   10  A    between atoms: S_21  and  O_22
REMARK   11  A    between atoms: C_30  and  C_31
REMARK                            x       y       z     vdW  Elec       q    Type
REMARK                         _______ _______ _______ _____ _____    ______ ____
ROOT
ATOM      1  C   UNL     1       6.300   0.950   0.152  0.00  0.00    +0.104 C 
ENDROOT
BRANCH   1   6
ATOM      2  C   UNL     1       1.713  -0.534   1.381  0.00  0.00    +0.112 C 
ATOM      3  C   UNL     1       2.977  -0.239   0.684  0.00  0.00    +0.224 A 
ATOM      4  O   UNL     1       3.269  -0.967  -0.429  0.00  0.00    -0.338 OA
ATOM      5  N   UNL     1       4.555  -0.586  -0.824  0.00  0.00    -0.060 NA
ATOM      6  C   UNL     1       4.922   0.309   0.113  0.00  0.00    +0.186 A 
ATOM      7  N   UNL     1       3.920   0.610   1.007  0.00  0.00    -0.195 NA
ENDBRANCH   1   6
BRANCH   1   8
ATOM      8  C   UNL     1       7.394  -0.112   0.238  0.00  0.00    +0.186 A 
ATOM      9  N   UNL     1       8.707   0.185  -0.080  0.00  0.00    -0.195 NA
ATOM     10  C   UNL     1       9.339  -0.911   0.271  0.00  0.00    +0.224 A 
ATOM     11  C   UNL     1      10.782  -1.203   0.245  0.00  0.00    +0.112 C 
ATOM     12  O   UNL     1       8.517  -1.867   0.786  0.00  0.00    -0.338 OA
ATOM     13  N   UNL     1       7.228  -1.336   0.767  0.00  0.00    -0.060 NA
ENDBRANCH   1   8
BRANCH   1  14
ATOM     14  C   UNL     1       6.481   1.931   1.384  0.00  0.00    +0.058 C 
BRANCH  14  15
ATOM     15  C   UNL     1       6.433   1.305   2.776  0.00  0.00    -0.046 A 
ATOM     16  C   UNL     1       5.229   1.235   3.491  0.00  0.00    +0.005 A 
ATOM     17  C   UNL     1       5.114   0.435   4.631  0.00  0.00    +0.025 A 
ATOM     18  C   UNL     1       6.227  -0.271   5.085  0.00  0.00    +0.050 A 
ATOM     19  C   UNL     1       7.464  -0.087   4.478  0.00  0.00    +0.025 A 
ATOM     20  C   UNL     1       7.569   0.704   3.331  0.00  0.00    +0.005 A 
BRANCH  18  21
ATOM     21  N   UNL     1       6.128  -1.197   6.161  0.00  0.00    -0.197 N 
ATOM     22  H   UNL     1       5.315  -1.810   6.115  0.00  0.00    +0.176 HD
BRANCH  21  23
ATOM     23  S   UNL     1       6.288  -0.601   7.720  0.00  0.00    +0.164 S 
ATOM     24  O   UNL     1       6.226  -1.738   8.606  0.00  0.00    -0.127 OA
ATOM     25  O   UNL     1       5.406   0.528   7.873  0.00  0.00    -0.127 OA
BRANCH  23  26
ATOM     26  O   UNL     1       7.788  -0.019   7.745  0.00  0.00    -0.238 OA
ATOM     27  H   UNL     1       7.761   0.868   7.334  0.00  0.00    +0.246 HD
ENDBRANCH  23  26
ENDBRANCH  21  23
ENDBRANCH  18  21
ENDBRANCH  14  15
ENDBRANCH   1  14
BRANCH   1  28
ATOM     28  C   UNL     1       6.533   1.747  -1.189  0.00  0.00    +0.058 C 
BRANCH  28  29
ATOM     29  C   UNL     1       5.598   2.901  -1.485  0.00  0.00    -0.046 A 
ATOM     30  C   UNL     1       4.397   2.689  -2.176  0.00  0.00    +0.003 A 
ATOM     31  C   UNL     1       3.524   3.750  -2.424  0.00  0.00    +0.000 A 
ATOM     32  C   UNL     1       3.846   5.034  -1.990  0.00  0.00    +0.000 A 
ATOM     33  C   UNL     1       5.049   5.262  -1.326  0.00  0.00    +0.000 A 
ATOM     34  C   UNL     1       5.925   4.203  -1.081  0.00  0.00    +0.003 A 
ENDBRANCH  28  29
ENDBRANCH   1  28
TORSDOF 9
