REMARK  Name = 
REMARK  12 active torsions:
REMARK  status: ('A' for Active; 'I' for Inactive)
REMARK    1  A    between atoms: C_1  and  C_2
REMARK    2  A    between atoms: C_3  and  C_17
REMARK    3  A    between atoms: C_5  and  C_7
REMARK    4  A    between atoms: C_10  and  C_13
REMARK    5  A    between atoms: N_19  and  C_20
REMARK    6  A    between atoms: C_20  and  C_21
REMARK    7  A    between atoms: C_24  and  O_25
REMARK    8  A    between atoms: O_25  and  C_26
REMARK    9  A    between atoms: C_26  and  C_27
REMARK   10  A    between atoms: C_26  and  C_28
REMARK   11  A    between atoms: C_26  and  C_29
REMARK   12  A    between atoms: C_29  and  O_30
REMARK                            x       y       z     vdW  Elec       q    Type
REMARK                         _______ _______ _______ _____ _____    ______ ____
ROOT
ATOM      1  C   UNL     1       3.455   2.853   0.053  0.00  0.00    +0.253 C 
ATOM      2  N   UNL     1       2.167   3.358   0.051  0.00  0.00    -0.307 N 
ATOM      3  H   UNL     1       1.413   2.706  -0.116  0.00  0.00    +0.149 HD
ATOM      4  O   UNL     1       4.433   3.594   0.107  0.00  0.00    -0.270 OA
ENDROOT
BRANCH   1  10
ATOM      5  C   UNL     1       6.085   0.872   0.052  0.00  0.00    +0.067 C 
ATOM      6  C   UNL     1       4.633   0.543  -0.000  0.00  0.00    +0.058 A 
ATOM      7  N   UNL     1       4.311  -0.817  -0.032  0.00  0.00    -0.243 NA
ATOM      8  C   UNL     1       3.006  -0.997  -0.045  0.00  0.00    +0.109 A 
ATOM      9  S   UNL     1       2.104   0.459  -0.082  0.00  0.00    -0.062 S 
ATOM     10  C   UNL     1       3.537   1.400  -0.005  0.00  0.00    +0.097 A 
BRANCH   8  11
ATOM     11  C   UNL     1       2.331  -2.309   0.004  0.00  0.00    +0.007 A 
ATOM     12  C   UNL     1       3.097  -3.486   0.053  0.00  0.00    +0.011 A 
ATOM     13  C   UNL     1       2.483  -4.739   0.175  0.00  0.00    +0.013 A 
ATOM     14  C   UNL     1       1.091  -4.851   0.254  0.00  0.00    +0.055 A 
ATOM     15  C   UNL     1       0.320  -3.688   0.166  0.00  0.00    +0.013 A 
ATOM     16  C   UNL     1       0.932  -2.439   0.042  0.00  0.00    +0.011 A 
BRANCH  14  17
ATOM     17  C   UNL     1       0.431  -6.194   0.455  0.00  0.00    +0.417 C 
ATOM     18  F   UNL     1       0.861  -6.819   1.585  0.00  0.00    -0.166 F 
ATOM     19  F   UNL     1       0.670  -7.056  -0.570  0.00  0.00    -0.166 F 
ATOM     20  F   UNL     1      -0.926  -6.116   0.568  0.00  0.00    -0.166 F 
ENDBRANCH  14  17
ENDBRANCH   8  11
ENDBRANCH   1  10
BRANCH   2  21
ATOM     21  C   UNL     1       1.849   4.766   0.058  0.00  0.00    +0.139 C 
BRANCH  21  22
ATOM     22  C   UNL     1       0.491   5.003   0.676  0.00  0.00    -0.030 A 
ATOM     23  C   UNL     1      -0.667   4.949  -0.104  0.00  0.00    +0.009 A 
ATOM     24  C   UNL     1      -1.938   5.123   0.471  0.00  0.00    +0.046 A 
ATOM     25  C   UNL     1      -2.091   5.311   1.841  0.00  0.00    +0.122 A 
ATOM     26  C   UNL     1      -0.932   5.368   2.624  0.00  0.00    +0.046 A 
ATOM     27  C   UNL     1       0.344   5.223   2.052  0.00  0.00    +0.009 A 
BRANCH  25  28
ATOM     28  O   UNL     1      -3.271   5.382   2.530  0.00  0.00    -0.475 OA
BRANCH  28  29
ATOM     29  C   UNL     1      -4.487   5.909   1.945  0.00  0.00    +0.200 C 
ATOM     30  C   UNL     1      -5.171   4.940   0.971  0.00  0.00    +0.067 C 
ATOM     31  C   UNL     1      -4.283   7.333   1.423  0.00  0.00    +0.067 C 
BRANCH  29  32
ATOM     32  C   UNL     1      -5.507   6.041   3.106  0.00  0.00    +0.348 C 
ATOM     33  O   UNL     1      -6.644   6.478   2.982  0.00  0.00    -0.247 OA
BRANCH  32  34
ATOM     34  O   UNL     1      -5.034   5.606   4.299  0.00  0.00    -0.478 OA
ATOM     35  H   UNL     1      -4.111   5.291   4.186  0.00  0.00    +0.295 HD
ENDBRANCH  32  34
ENDBRANCH  29  32
ENDBRANCH  28  29
ENDBRANCH  25  28
ENDBRANCH  21  22
ENDBRANCH   2  21
TORSDOF 9
