REMARK  Name = 
REMARK  5 active torsions:
REMARK  status: ('A' for Active; 'I' for Inactive)
REMARK    1  A    between atoms: C_1  and  C_2
REMARK    2  A    between atoms: C_3  and  C_20
REMARK    3  A    between atoms: N_6  and  C_9
REMARK    4  A    between atoms: C_16  and  C_17
REMARK    5  A    between atoms: C_16  and  C_18
REMARK                            x       y       z     vdW  Elec       q    Type
REMARK                         _______ _______ _______ _____ _____    ______ ____
ROOT
ATOM      1  C   UNL     1       1.112   0.162  -0.122  0.00  0.00    +0.044 C 
ATOM      2  C   UNL     1       2.593  -0.041   0.048  0.00  0.00    -0.036 A 
ATOM      3  C   UNL     1       3.376   1.171   0.056  0.00  0.00    +0.022 A 
ATOM      4  C   UNL     1       4.707   1.140   0.170  0.00  0.00    +0.095 A 
ATOM      5  N   UNL     1       5.439  -0.045   0.244  0.00  0.00    -0.284 N 
ATOM      6  C   UNL     1       4.742  -1.282   0.234  0.00  0.00    +0.264 A 
ATOM      7  O   UNL     1       5.256  -2.402   0.214  0.00  0.00    -0.267 OA
ATOM      8  C   UNL     1       3.222  -1.226   0.205  0.00  0.00    +0.050 A 
ENDROOT
BRANCH   8   9
ATOM      9  C   UNL     1       2.469  -2.490   0.351  0.00  0.00    -0.012 A 
ATOM     10  C   UNL     1       1.990  -2.875   1.608  0.00  0.00    +0.011 A 
ATOM     11  C   UNL     1       1.335  -4.102   1.771  0.00  0.00    +0.029 A 
ATOM     12  C   UNL     1       1.158  -4.984   0.711  0.00  0.00    +0.076 A 
ATOM     13  C   UNL     1       1.634  -4.592  -0.543  0.00  0.00    +0.019 A 
ATOM     14  C   UNL     1       1.453  -5.528  -1.548  0.00  0.00    +0.124 A 
ATOM     15  N   UNL     1       0.887  -6.736  -1.361  0.00  0.00    -0.222 NA
ATOM     16  C   UNL     1       0.491  -7.012  -0.116  0.00  0.00    +0.213 A 
ATOM     17  N   UNL     1      -0.059  -8.255   0.108  0.00  0.00    -0.327 N 
ATOM     18  H   UNL     1      -0.701  -8.220   0.885  0.00  0.00    +0.145 HD
ATOM     19  H   UNL     1      -0.384  -8.652  -0.761  0.00  0.00    +0.145 HD
ATOM     20  N   UNL     1       0.571  -6.171   0.920  0.00  0.00    -0.215 NA
ATOM     21  C   UNL     1       2.270  -3.346  -0.734  0.00  0.00    +0.020 A 
ENDBRANCH   8   9
BRANCH   5  22
ATOM     22  C   UNL     1       6.903  -0.015   0.283  0.00  0.00    +0.051 A 
ATOM     23  C   UNL     1       7.617   1.129  -0.138  0.00  0.00    +0.049 A 
ATOM     24  C   UNL     1       9.008   1.145  -0.111  0.00  0.00    +0.033 A 
ATOM     25  N   UNL     1       9.817   2.191  -0.605  0.00  0.00    -0.343 N 
ATOM     26  H   UNL     1       9.514   3.098  -0.262  0.00  0.00    +0.146 HD
ATOM     27  C   UNL     1      11.190   1.811  -0.222  0.00  0.00    +0.112 C 
ATOM     28  C   UNL     1      11.202   0.316   0.218  0.00  0.00    +0.007 C 
ATOM     29  C   UNL     1      11.890   0.156   1.578  0.00  0.00    +0.017 C 
ATOM     30  C   UNL     1      11.884  -0.570  -0.829  0.00  0.00    +0.017 C 
ATOM     31  C   UNL     1       9.729   0.037   0.308  0.00  0.00    -0.019 A 
ATOM     32  C   UNL     1       9.072  -1.103   0.730  0.00  0.00    +0.008 A 
ATOM     33  C   UNL     1       7.668  -1.116   0.726  0.00  0.00    +0.026 A 
ENDBRANCH   5  22
TORSDOF 2
