REMARK  Name = 
REMARK  7 active torsions:
REMARK  status: ('A' for Active; 'I' for Inactive)
REMARK    1  A    between atoms: C_2  and  O_3
REMARK    2  A    between atoms: C_2  and  C_4
REMARK    3  A    between atoms: C_2  and  C_10
REMARK    4  A    between atoms: C_13  and  O_14
REMARK    5  A    between atoms: O_14  and  C_15
REMARK    6  A    between atoms: C_15  and  C_16
REMARK    7  A    between atoms: C_16  and  N_17
REMARK                            x       y       z     vdW  Elec       q    Type
REMARK                         _______ _______ _______ _____ _____    ______ ____
ROOT
ATOM      1  C   UNL     1       2.474   1.346   0.052  0.00  0.00    -0.015 A 
ATOM      2  C   UNL     1       3.782   1.734  -0.288  0.00  0.00    +0.010 A 
ATOM      3  C   UNL     1       4.118   3.092  -0.401  0.00  0.00    +0.046 A 
ATOM      4  C   UNL     1       3.158   4.078  -0.166  0.00  0.00    +0.121 A 
ATOM      5  C   UNL     1       1.882   3.689   0.253  0.00  0.00    +0.046 A 
ATOM      6  C   UNL     1       1.543   2.345   0.354  0.00  0.00    +0.010 A 
ENDROOT
BRANCH   1   7
ATOM      7  C   UNL     1       2.034  -0.104  -0.042  0.00  0.00    +0.175 C 
BRANCH   7   8
ATOM      8  C   UNL     1       1.579  -0.547  -1.428  0.00  0.00    -0.012 A 
ATOM      9  C   UNL     1       1.090  -1.846  -1.600  0.00  0.00    +0.026 A 
ATOM     10  C   UNL     1       0.665  -2.250  -2.855  0.00  0.00    +0.111 A 
ATOM     11  N   UNL     1       0.699  -1.461  -3.951  0.00  0.00    -0.263 NA
ATOM     12  C   UNL     1       1.180  -0.214  -3.776  0.00  0.00    +0.111 A 
ATOM     13  C   UNL     1       1.622   0.280  -2.558  0.00  0.00    +0.026 A 
ENDBRANCH   7   8
BRANCH   7  14
ATOM     14  O   UNL     1       0.961  -0.319   0.884  0.00  0.00    -0.383 OA
ATOM     15  H   UNL     1       0.133  -0.189   0.390  0.00  0.00    +0.211 HD
ENDBRANCH   7  14
ENDBRANCH   1   7
BRANCH   4  16
ATOM     16  O   UNL     1       3.529   5.385  -0.396  0.00  0.00    -0.491 OA
BRANCH  16  17
ATOM     17  C   UNL     1       2.425   6.298  -0.317  0.00  0.00    +0.244 C 
BRANCH  17  18
ATOM     18  C   UNL     1       2.789   7.730  -0.716  0.00  0.00    +0.125 C 
BRANCH  18  19
ATOM     19  N   UNL     1       1.649   8.640  -0.502  0.00  0.00    -0.299 NA
ATOM     20  C   UNL     1       0.441   8.284  -1.255  0.00  0.00    +0.084 C 
ATOM     21  C   UNL     1      -0.299   9.594  -1.496  0.00  0.00    +0.017 C 
ATOM     22  C   UNL     1       0.588  10.667  -0.886  0.00  0.00    +0.017 C 
ATOM     23  C   UNL     1       1.962  10.024  -0.842  0.00  0.00    +0.084 C 
ENDBRANCH  18  19
ENDBRANCH  17  18
ENDBRANCH  16  17
ENDBRANCH   4  16
TORSDOF 7
