REMARK  Name = 
REMARK  6 active torsions:
REMARK  status: ('A' for Active; 'I' for Inactive)
REMARK    1  A    between atoms: O_1  and  C_2
REMARK    2  A    between atoms: C_2  and  C_3
REMARK    3  A    between atoms: C_3  and  C_4
REMARK    4  A    between atoms: C_4  and  O_5
REMARK    5  A    between atoms: O_5  and  C_6
REMARK    6  A    between atoms: C_9  and  N_12
REMARK                            x       y       z     vdW  Elec       q    Type
REMARK                         _______ _______ _______ _____ _____    ______ ____
ROOT
ATOM      1  C   UNL     1       6.388   2.102   2.348  0.00  0.00    +0.121 A 
ATOM      2  C   UNL     1       7.202   0.965   2.377  0.00  0.00    +0.052 A 
ATOM      3  C   UNL     1       8.597   1.089   2.436  0.00  0.00    +0.088 A 
ATOM      4  C   UNL     1       9.175   2.365   2.468  0.00  0.00    +0.273 A 
ATOM      5  C   UNL     1       8.371   3.506   2.451  0.00  0.00    +0.088 A 
ATOM      6  C   UNL     1       6.984   3.369   2.391  0.00  0.00    +0.052 A 
ENDROOT
BRANCH   4   7
ATOM      7  N   UNL     1      10.632   2.520   2.514  0.00  0.00    +0.080 N 
ATOM      8  O   UNL     1      11.322   1.490   2.533  0.00  0.00    +0.041 OA
ATOM      9  O   UNL     1      11.091   3.671   2.527  0.00  0.00    -0.576 OA
ENDBRANCH   4   7
BRANCH   1  10
ATOM     10  O   UNL     1       5.033   1.876   2.271  0.00  0.00    -0.492 OA
BRANCH  10  11
ATOM     11  C   UNL     1       4.242   3.069   2.285  0.00  0.00    +0.231 C 
BRANCH  11  12
ATOM     12  C   UNL     1       2.752   2.764   2.202  0.00  0.00    +0.069 C 
BRANCH  12  13
ATOM     13  C   UNL     1       1.960   4.067   2.200  0.00  0.00    +0.159 C 
BRANCH  13  14
ATOM     14  O   UNL     1       2.232   4.797   3.390  0.00  0.00    -0.395 OA
ATOM     15  H   UNL     1       1.712   5.619   3.355  0.00  0.00    +0.209 HD
ENDBRANCH  13  14
ENDBRANCH  12  13
ENDBRANCH  11  12
ENDBRANCH  10  11
ENDBRANCH   1  10
TORSDOF 6
