REMARK  Name = 
REMARK  6 active torsions:
REMARK  status: ('A' for Active; 'I' for Inactive)
REMARK    1  A    between atoms: C_2  and  C_3
REMARK    2  A    between atoms: C_3  and  C_4
REMARK    3  A    between atoms: C_4  and  O_6
REMARK    4  A    between atoms: O_6  and  C_7
REMARK    5  A    between atoms: C_9  and  C_12
REMARK    6  A    between atoms: C_15  and  O_16
REMARK                            x       y       z     vdW  Elec       q    Type
REMARK                         _______ _______ _______ _____ _____    ______ ____
ROOT
ATOM      1  C   UNL     1       2.074  -0.007  -0.006  0.00  0.00    +0.221 C 
ATOM      2  O   UNL     1       2.508   1.122  -0.785  0.00  0.00    -0.389 OA
ATOM      3  N   UNL     1       2.643   0.690  -2.130  0.00  0.00    -0.089 NA
ATOM      4  C   UNL     1       2.723  -0.601  -2.103  0.00  0.00    +0.091 C 
ATOM      5  C   UNL     1       2.648  -1.200  -0.742  0.00  0.00    +0.107 C 
ENDROOT
BRANCH   4   6
ATOM      6  C   UNL     1       2.851  -1.446  -3.306  0.00  0.00    -0.000 A 
ATOM      7  C   UNL     1       3.394  -2.733  -3.227  0.00  0.00    +0.013 A 
ATOM      8  C   UNL     1       3.430  -3.542  -4.364  0.00  0.00    +0.046 A 
ATOM      9  C   UNL     1       2.918  -3.066  -5.566  0.00  0.00    +0.117 A 
ATOM     10  C   UNL     1       2.405  -1.775  -5.665  0.00  0.00    +0.046 A 
ATOM     11  C   UNL     1       2.380  -0.959  -4.531  0.00  0.00    +0.013 A 
BRANCH   9  12
ATOM     12  O   UNL     1       2.927  -3.910  -6.636  0.00  0.00    -0.507 OA
ATOM     13  H   UNL     1       2.442  -3.492  -7.367  0.00  0.00    +0.292 HD
ENDBRANCH   9  12
ENDBRANCH   4   6
BRANCH   1  14
ATOM     14  C   UNL     1       0.550   0.030   0.080  0.00  0.00    +0.168 C 
BRANCH  14  15
ATOM     15  C   UNL     1       0.018  -1.149   0.844  0.00  0.00    +0.310 C 
ATOM     16  O   UNL     1       0.629  -1.745   1.722  0.00  0.00    -0.251 OA
BRANCH  15  17
ATOM     17  O   UNL     1      -1.235  -1.459   0.413  0.00  0.00    -0.468 OA
ATOM     18  C   UNL     1      -1.806  -2.606   1.042  0.00  0.00    +0.280 C 
ENDBRANCH  15  17
ENDBRANCH  14  15
ENDBRANCH   1  14
TORSDOF 5
