REMARK  Name = 
REMARK  8 active torsions:
REMARK  status: ('A' for Active; 'I' for Inactive)
REMARK    1  A    between atoms: C_1  and  N_2
REMARK    2  A    between atoms: C_3  and  C_5
REMARK    3  A    between atoms: C_8  and  C_9
REMARK    4  A    between atoms: C_10  and  N_12
REMARK    5  A    between atoms: C_13  and  C_14
REMARK    6  A    between atoms: C_16  and  O_17
REMARK    7  A    between atoms: O_17  and  C_18
REMARK    8  A    between atoms: C_18  and  C_19
REMARK                            x       y       z     vdW  Elec       q    Type
REMARK                         _______ _______ _______ _____ _____    ______ ____
ROOT
ATOM      1  N   UNL     1       7.553  -3.599  -0.749  0.00  0.00    -0.280 N 
ATOM      2  C   UNL     1       6.929  -4.762  -0.194  0.00  0.00    +0.274 A 
ATOM      3  O   UNL     1       5.993  -4.745   0.607  0.00  0.00    -0.266 OA
ATOM      4  C   UNL     1       7.517  -6.117  -0.528  0.00  0.00    +0.124 A 
ATOM      5 BR   UNL     1       6.494  -7.641  -0.142  0.00  0.00    -0.041 Br
ATOM      6  C   UNL     1       8.763  -6.188  -1.015  0.00  0.00    +0.142 A 
ATOM      7  C   UNL     1       9.395  -4.985  -1.463  0.00  0.00    +0.068 A 
ATOM      8  C   UNL     1       8.821  -3.773  -1.381  0.00  0.00    +0.028 A 
ATOM      9  C   UNL     1       9.604  -2.682  -2.064  0.00  0.00    +0.064 C 
ENDROOT
BRANCH   1  12
ATOM     10  C   UNL     1       7.298   0.171  -0.134  0.00  0.00    +0.039 A 
ATOM     11  C   UNL     1       7.770  -1.141  -0.335  0.00  0.00    +0.039 A 
ATOM     12  C   UNL     1       6.930  -2.271  -0.495  0.00  0.00    +0.053 A 
ATOM     13  C   UNL     1       5.535  -2.006  -0.382  0.00  0.00    -0.026 A 
ATOM     14  C   UNL     1       4.407  -2.988  -0.521  0.00  0.00    +0.046 C 
ATOM     15  C   UNL     1       5.078  -0.693  -0.069  0.00  0.00    +0.006 A 
ATOM     16  C   UNL     1       5.941   0.387   0.034  0.00  0.00    +0.013 A 
BRANCH  10  20
ATOM     17  C   UNL     1       8.665   3.702  -0.321  0.00  0.00    +0.128 C 
ATOM     18  N   UNL     1       7.795   2.552  -0.365  0.00  0.00    -0.314 N 
ATOM     19  H   UNL     1       6.885   2.647  -0.797  0.00  0.00    +0.149 HD
ATOM     20  C   UNL     1       8.275   1.294  -0.060  0.00  0.00    +0.244 C 
ATOM     21  O   UNL     1       9.449   1.072   0.214  0.00  0.00    -0.270 OA
ENDBRANCH  10  20
ENDBRANCH   1  12
BRANCH   6  22
ATOM     22  O   UNL     1       9.424  -7.399  -1.197  0.00  0.00    -0.486 OA
BRANCH  22  23
ATOM     23  C   UNL     1      10.858  -7.351  -1.096  0.00  0.00    +0.267 C 
BRANCH  23  24
ATOM     24  C   UNL     1      11.468  -8.699  -0.818  0.00  0.00    +0.025 A 
ATOM     25  C   UNL     1      10.923  -9.884  -1.326  0.00  0.00    +0.012 A 
ATOM     26  C   UNL     1      11.567 -11.103  -1.101  0.00  0.00    +0.039 A 
ATOM     27  C   UNL     1      12.758 -11.134  -0.382  0.00  0.00    +0.126 A 
ATOM     28  F   UNL     1      13.372 -12.306  -0.175  0.00  0.00    -0.205 F 
ATOM     29  C   UNL     1      13.326  -9.971   0.115  0.00  0.00    +0.077 A 
ATOM     30  C   UNL     1      12.680  -8.763  -0.116  0.00  0.00    +0.132 A 
ATOM     31  F   UNL     1      13.249  -7.635   0.335  0.00  0.00    -0.205 F 
ENDBRANCH  23  24
ENDBRANCH  22  23
ENDBRANCH   6  22
TORSDOF 5
