REMARK  Name = 
REMARK  11 active torsions:
REMARK  status: ('A' for Active; 'I' for Inactive)
REMARK    1  A    between atoms: C_2  and  C_3
REMARK    2  A    between atoms: C_2  and  O_4
REMARK    3  A    between atoms: C_2  and  C_5
REMARK    4  A    between atoms: C_5  and  C_7
REMARK    5  A    between atoms: C_5  and  N_13
REMARK    6  A    between atoms: C_7  and  C_8
REMARK    7  A    between atoms: C_8  and  C_9
REMARK    8  A    between atoms: C_9  and  C_10
REMARK    9  A    between atoms: C_10  and  C_11
REMARK   10  A    between atoms: C_11  and  C_12
REMARK   11  A    between atoms: C_17  and  N_18
REMARK                            x       y       z     vdW  Elec       q    Type
REMARK                         _______ _______ _______ _____ _____    ______ ____
ROOT
ATOM      1  N   UNL     1       4.030  -0.372   1.424  0.00  0.00    -0.309 N 
ATOM      2  C   UNL     1       4.820   0.365   2.269  0.00  0.00    +0.166 A 
ATOM      3  C   UNL     1       6.107  -0.107   2.051  0.00  0.00    +0.147 A 
ATOM      4  C   UNL     1       7.130   0.451   2.835  0.00  0.00    +0.147 A 
ATOM      5  N   UNL     1       6.810   1.425   3.717  0.00  0.00    -0.219 NA
ATOM      6  C   UNL     1       5.511   1.787   3.823  0.00  0.00    +0.225 A 
ATOM      7  N   UNL     1       6.119  -1.072   1.068  0.00  0.00    -0.231 NA
ATOM      8  N   UNL     1       4.445   1.314   3.144  0.00  0.00    -0.216 NA
ATOM      9  C   UNL     1       4.857  -1.212   0.724  0.00  0.00    +0.202 A 
ENDROOT
BRANCH   4  10
ATOM     10  N   UNL     1       8.457   0.052   2.743  0.00  0.00    -0.341 N 
ATOM     11  H   UNL     1       9.100   0.756   3.079  0.00  0.00    +0.144 HD
ATOM     12  H   UNL     1       8.675  -0.419   1.872  0.00  0.00    +0.144 HD
ENDBRANCH   4  10
BRANCH   1  13
ATOM     13  C   UNL     1       2.567  -0.336   1.356  0.00  0.00    +0.118 C 
BRANCH  13  14
ATOM     14  C   UNL     1       2.086   0.042  -0.072  0.00  0.00    +0.134 C 
ATOM     15  C   UNL     1       0.584   0.306  -0.149  0.00  0.00    +0.040 C 
BRANCH  14  16
ATOM     16  O   UNL     1       2.376  -1.010  -0.998  0.00  0.00    -0.390 OA
ATOM     17  H   UNL     1       2.146  -0.691  -1.890  0.00  0.00    +0.210 HD
ENDBRANCH  14  16
ENDBRANCH  13  14
BRANCH  13  18
ATOM     18  C   UNL     1       1.941  -1.651   1.871  0.00  0.00    +0.028 C 
BRANCH  18  19
ATOM     19  C   UNL     1       2.360  -2.025   3.297  0.00  0.00    +0.002 C 
BRANCH  19  20
ATOM     20  C   UNL     1       1.664  -3.314   3.741  0.00  0.00    +0.000 C 
BRANCH  20  21
ATOM     21  C   UNL     1       2.100  -3.727   5.146  0.00  0.00    -0.000 C 
BRANCH  21  22
ATOM     22  C   UNL     1       1.414  -5.021   5.580  0.00  0.00    -0.003 C 
ATOM     23  C   UNL     1       1.844  -5.432   6.979  0.00  0.00    +0.004 C 
ENDBRANCH  21  22
ENDBRANCH  20  21
ENDBRANCH  19  20
ENDBRANCH  18  19
ENDBRANCH  13  18
ENDBRANCH   1  13
TORSDOF 9
