REMARK  Name = 
REMARK  14 active torsions:
REMARK  status: ('A' for Active; 'I' for Inactive)
REMARK    1  A    between atoms: C_2  and  C_24
REMARK    2  A    between atoms: C_5  and  C_6
REMARK    3  A    between atoms: C_5  and  C_7
REMARK    4  A    between atoms: C_7  and  C_8
REMARK    5  A    between atoms: C_8  and  C_9
REMARK    6  A    between atoms: C_10  and  C_11
REMARK    7  A    between atoms: C_11  and  O_12
REMARK    8  A    between atoms: C_11  and  C_13
REMARK    9  A    between atoms: C_11  and  C_17
REMARK   10  A    between atoms: C_21  and  C_22
REMARK   11  A    between atoms: C_21  and  C_23
REMARK   12  A    between atoms: C_25  and  C_26
REMARK   13  A    between atoms: C_29  and  O_30
REMARK   14  A    between atoms: C_33  and  O_34
REMARK                            x       y       z     vdW  Elec       q    Type
REMARK                         _______ _______ _______ _____ _____    ______ ____
ROOT
ATOM      1  C   UNL     1       1.927   0.209  -0.018  0.00  0.00    +0.018 C 
ATOM      2  C   UNL     1       2.370  -1.161   0.611  0.00  0.00    -0.023 C 
ATOM      3  C   UNL     1       2.573  -2.246  -0.470  0.00  0.00    +0.012 C 
ATOM      4  C   UNL     1       1.180  -1.676   1.469  0.00  0.00    +0.012 C 
ATOM      5  C   UNL     1       3.666  -0.810   1.501  0.00  0.00    -0.026 C 
ATOM      6  C   UNL     1       3.452  -1.096   3.011  0.00  0.00    +0.012 C 
ATOM      7  C   UNL     1       3.845   0.722   1.330  0.00  0.00    +0.008 C 
ATOM      8  C   UNL     1       2.478   1.257   0.948  0.00  0.00    +0.009 C 
ENDROOT
BRANCH   1   9
ATOM      9  C   UNL     1       2.390   0.498  -1.440  0.00  0.00    -0.023 C 
ATOM     10  C   UNL     1       1.501   0.686  -2.427  0.00  0.00    -0.004 C 
BRANCH  10  11
ATOM     11  C   UNL     1       1.828   1.018  -3.797  0.00  0.00    -0.001 C 
ATOM     12  C   UNL     1       0.935   1.195  -4.794  0.00  0.00    -0.065 C 
ATOM     13  C   UNL     1       1.375   1.593  -6.189  0.00  0.00    +0.062 C 
ATOM     14  C   UNL     1       0.637   2.846  -6.695  0.00  0.00    +0.121 C 
ATOM     15  C   UNL     1      -0.882   2.723  -6.554  0.00  0.00    +0.063 C 
ATOM     16  C   UNL     1      -1.288   2.337  -5.134  0.00  0.00    +0.121 C 
ATOM     17  C   UNL     1      -0.572   1.059  -4.677  0.00  0.00    +0.062 C 
BRANCH  14  18
ATOM     18  O   UNL     1       0.962   3.071  -8.069  0.00  0.00    -0.391 OA
ATOM     19  H   UNL     1       0.579   2.349  -8.594  0.00  0.00    +0.210 HD
ENDBRANCH  14  18
BRANCH  16  20
ATOM     20  O   UNL     1      -1.009   3.434  -4.262  0.00  0.00    -0.391 OA
ATOM     21  H   UNL     1      -0.709   3.085  -3.404  0.00  0.00    +0.210 HD
ENDBRANCH  16  20
ENDBRANCH  10  11
ENDBRANCH   1   9
BRANCH   5  22
ATOM     22  C   UNL     1       4.970  -1.533   1.043  0.00  0.00    +0.020 C 
BRANCH  22  23
ATOM     23  C   UNL     1       6.229  -1.149   1.837  0.00  0.00    +0.089 C 
BRANCH  23  24
ATOM     24  C   UNL     1       7.415  -1.866   1.356  0.00  0.00    -0.099 C 
ATOM     25  C   UNL     1       8.503  -2.465   0.958  0.00  0.00    -0.050 C 
BRANCH  25  26
ATOM     26  C   UNL     1       9.770  -3.164   0.494  0.00  0.00    +0.318 C 
BRANCH  26  27
ATOM     27  C   UNL     1      10.877  -3.008   1.568  0.00  0.00    +0.438 C 
ATOM     28  F   UNL     1      12.002  -2.387   1.164  0.00  0.00    -0.166 F 
ATOM     29  F   UNL     1      11.269  -4.218   2.051  0.00  0.00    -0.166 F 
ATOM     30  F   UNL     1      10.442  -2.309   2.652  0.00  0.00    -0.166 F 
ENDBRANCH  26  27
BRANCH  26  31
ATOM     31  C   UNL     1      10.233  -2.574  -0.859  0.00  0.00    +0.438 C 
ATOM     32  F   UNL     1      10.093  -3.510  -1.841  0.00  0.00    -0.166 F 
ATOM     33  F   UNL     1      11.504  -2.146  -0.930  0.00  0.00    -0.166 F 
ATOM     34  F   UNL     1       9.455  -1.531  -1.254  0.00  0.00    -0.166 F 
ENDBRANCH  26  31
BRANCH  26  35
ATOM     35  O   UNL     1       9.388  -4.567   0.348  0.00  0.00    -0.363 OA
ATOM     36  H   UNL     1       8.691  -4.604  -0.333  0.00  0.00    +0.212 HD
ENDBRANCH  26  35
ENDBRANCH  25  26
ENDBRANCH  23  24
ENDBRANCH  22  23
ENDBRANCH   5  22
TORSDOF 11
