REMARK  Name = 
REMARK  6 active torsions:
REMARK  status: ('A' for Active; 'I' for Inactive)
REMARK    1  A    between atoms: C_2  and  C_3
REMARK    2  A    between atoms: N_5  and  C_6
REMARK    3  A    between atoms: C_12  and  C_13
REMARK    4  A    between atoms: C_13  and  O_14
REMARK    5  A    between atoms: C_15  and  C_18
REMARK    6  A    between atoms: N_16  and  C_17
REMARK                            x       y       z     vdW  Elec       q    Type
REMARK                         _______ _______ _______ _____ _____    ______ ____
ROOT
ATOM      1  C   UNL     1       3.484   1.949  -1.489  0.00  0.00    +0.082 C 
ATOM      2  C   UNL     1       2.418   3.029  -1.291  0.00  0.00    +0.210 C 
ATOM      3  O   UNL     1       1.345   2.806  -0.745  0.00  0.00    -0.285 OA
ATOM      4  C   UNL     1       2.792   4.348  -1.787  0.00  0.00    +0.058 A 
ATOM      5  C   UNL     1       2.171   5.631  -1.614  0.00  0.00    +0.015 A 
ATOM      6  C   UNL     1       2.982   6.587  -2.251  0.00  0.00    +0.055 A 
ATOM      7  N   UNL     1       4.020   5.883  -2.862  0.00  0.00    -0.340 N 
ATOM      8  C   UNL     1       5.110   6.406  -3.666  0.00  0.00    +0.149 C 
ATOM      9  C   UNL     1       3.912   4.539  -2.573  0.00  0.00    +0.101 A 
ATOM     10  C   UNL     1       4.794   3.471  -2.961  0.00  0.00    +0.205 C 
ATOM     11  O   UNL     1       5.737   3.567  -3.737  0.00  0.00    -0.286 OA
ATOM     12  C   UNL     1       4.543   2.174  -2.290  0.00  0.00    +0.080 C 
ENDROOT
BRANCH   6  13
ATOM     13  C   UNL     1       2.810   8.065  -2.336  0.00  0.00    -0.001 A 
ATOM     14  C   UNL     1       1.543   8.632  -2.530  0.00  0.00    +0.010 A 
ATOM     15  C   UNL     1       1.370  10.017  -2.647  0.00  0.00    +0.001 A 
ATOM     16  C   UNL     1       2.471  10.863  -2.617  0.00  0.00    +0.000 A 
ATOM     17  C   UNL     1       3.738  10.328  -2.410  0.00  0.00    +0.001 A 
ATOM     18  C   UNL     1       3.898   8.946  -2.229  0.00  0.00    +0.010 A 
ENDBRANCH   6  13
BRANCH   1  20
ATOM     19  C   UNL     1       2.211   0.052  -0.531  0.00  0.00    +0.088 C 
ATOM     20  N   UNL     1       3.428   0.833  -0.659  0.00  0.00    -0.321 N 
ATOM     21  C   UNL     1       3.456  -0.520  -1.189  0.00  0.00    +0.127 C 
ATOM     22  C   UNL     1       1.796  -0.327   0.849  0.00  0.00    +0.029 C 
ENDBRANCH   1  20
BRANCH   5  23
ATOM     23  C   UNL     1       0.896   5.857  -0.850  0.00  0.00    +0.194 C 
BRANCH  23  24
ATOM     24  O   UNL     1       1.078   6.750   0.239  0.00  0.00    -0.390 OA
ATOM     25  H   UNL     1       1.819   6.391   0.755  0.00  0.00    +0.210 HD
ENDBRANCH  23  24
ENDBRANCH   5  23
TORSDOF 4
