REMARK  Name = 
REMARK  6 active torsions:
REMARK  status: ('A' for Active; 'I' for Inactive)
REMARK    1  A    between atoms: C_1  and  N_2
REMARK    2  A    between atoms: N_2  and  C_3
REMARK    3  A    between atoms: C_3  and  C_4
REMARK    4  A    between atoms: C_4  and  N_5
REMARK    5  A    between atoms: N_5  and  S_6
REMARK    6  A    between atoms: S_6  and  C_9
REMARK                            x       y       z     vdW  Elec       q    Type
REMARK                         _______ _______ _______ _____ _____    ______ ____
ROOT
ATOM      1  S   UNL     1       6.876   0.010  -2.644  0.00  0.00    +0.059 S 
ATOM      2  O   UNL     1       7.343  -1.120  -1.870  0.00  0.00    -0.153 OA
ATOM      3  O   UNL     1       7.159   1.366  -2.226  0.00  0.00    -0.153 OA
ENDROOT
BRANCH   1   4
ATOM      4  C   UNL     1       7.392  -0.197  -4.336  0.00  0.00    +0.113 A 
ATOM      5  C   UNL     1       6.899   0.647  -5.369  0.00  0.00    +0.011 A 
ATOM      6  C   UNL     1       6.093   1.796  -5.191  0.00  0.00    +0.030 A 
ATOM      7  C   UNL     1       5.653   2.510  -6.295  0.00  0.00    +0.111 A 
ATOM      8  N   UNL     1       5.940   2.174  -7.565  0.00  0.00    -0.263 NA
ATOM      9  C   UNL     1       6.718   1.083  -7.734  0.00  0.00    +0.119 A 
ATOM     10  C   UNL     1       7.224   0.294  -6.699  0.00  0.00    +0.002 A 
ATOM     11  C   UNL     1       8.024  -0.831  -6.969  0.00  0.00    +0.010 A 
ATOM     12  C   UNL     1       8.518  -1.622  -5.936  0.00  0.00    +0.003 A 
ATOM     13  C   UNL     1       8.204  -1.308  -4.620  0.00  0.00    +0.029 A 
ENDBRANCH   1   4
BRANCH   1  14
ATOM     14  N   UNL     1       5.182  -0.160  -2.725  0.00  0.00    -0.189 NA
ATOM     15  H   UNL     1       4.833  -0.083  -1.765  0.00  0.00    +0.148 HD
BRANCH  14  16
ATOM     16  C   UNL     1       4.706  -1.407  -3.378  0.00  0.00    +0.121 C 
BRANCH  16  17
ATOM     17  C   UNL     1       3.171  -1.432  -3.446  0.00  0.00    +0.097 C 
BRANCH  17  19
ATOM     18  C   UNL     1       1.277  -2.688  -4.265  0.00  0.00    +0.101 C 
ATOM     19  N   UNL     1       2.730  -2.605  -4.207  0.00  0.00    -0.318 NA
ATOM     20  H   UNL     1       3.092  -2.547  -5.160  0.00  0.00    +0.122 HD
ENDBRANCH  17  19
ENDBRANCH  16  17
ENDBRANCH  14  16
ENDBRANCH   1  14
TORSDOF 5
