REMARK  Name = 
REMARK  9 active torsions:
REMARK  status: ('A' for Active; 'I' for Inactive)
REMARK    1  A    between atoms: C_1  and  C_2
REMARK    2  A    between atoms: C_5  and  S_8
REMARK    3  A    between atoms: S_8  and  N_11
REMARK    4  A    between atoms: N_11  and  C_12
REMARK    5  A    between atoms: C_12  and  C_13
REMARK    6  A    between atoms: C_13  and  C_14
REMARK    7  A    between atoms: C_14  and  O_15
REMARK    8  A    between atoms: O_15  and  C_16
REMARK    9  A    between atoms: N_18  and  C_19
REMARK                            x       y       z     vdW  Elec       q    Type
REMARK                         _______ _______ _______ _____ _____    ______ ____
ROOT
ATOM      1  C   UNL     1       9.108  -1.609  -1.105  0.00  0.00    +0.109 C 
ENDROOT
BRANCH   1   2
ATOM      2  N   UNL     1       7.661  -1.504  -0.879  0.00  0.00    -0.190 NA
ATOM      3  H   UNL     1       7.069  -2.101  -1.457  0.00  0.00    +0.148 HD
BRANCH   2   4
ATOM      4  S   UNL     1       7.024   0.060  -0.756  0.00  0.00    +0.058 S 
ATOM      5  O   UNL     1       5.632  -0.090  -0.390  0.00  0.00    -0.153 OA
ATOM      6  O   UNL     1       7.935   0.866   0.023  0.00  0.00    -0.153 OA
BRANCH   4  11
ATOM      7  C   UNL     1       6.965   2.429  -6.344  0.00  0.00    +0.044 C 
ATOM      8  C   UNL     1       7.019   1.752  -5.005  0.00  0.00    -0.050 A 
ATOM      9  C   UNL     1       8.146   1.912  -4.185  0.00  0.00    +0.005 A 
ATOM     10  C   UNL     1       8.172   1.365  -2.900  0.00  0.00    +0.029 A 
ATOM     11  C   UNL     1       7.072   0.636  -2.440  0.00  0.00    +0.105 A 
ATOM     12  C   UNL     1       5.953   0.448  -3.257  0.00  0.00    +0.029 A 
ATOM     13  C   UNL     1       5.931   1.005  -4.537  0.00  0.00    +0.005 A 
ENDBRANCH   4  11
ENDBRANCH   2   4
ENDBRANCH   1   2
BRANCH   1  14
ATOM     14  C   UNL     1       9.543  -3.068  -1.053  0.00  0.00    +0.058 C 
BRANCH  14  15
ATOM     15  C   UNL     1      11.050  -3.167  -1.282  0.00  0.00    +0.235 C 
BRANCH  15  16
ATOM     16  O   UNL     1      11.464  -4.540  -1.417  0.00  0.00    -0.450 OA
BRANCH  16  17
ATOM     17  C   UNL     1      11.265  -5.054  -2.664  0.00  0.00    +0.405 C 
ATOM     18  N   UNL     1      11.710  -6.344  -2.696  0.00  0.00    -0.251 N 
ATOM     19  H   UNL     1      12.138  -6.666  -1.839  0.00  0.00    +0.158 HD
ATOM     20  O   UNL     1      10.757  -4.415  -3.571  0.00  0.00    -0.226 OA
BRANCH  18  21
ATOM     21  C   UNL     1      11.608  -7.239  -3.783  0.00  0.00    +0.039 A 
ATOM     22  C   UNL     1      12.138  -8.519  -3.636  0.00  0.00    +0.043 A 
ATOM     23  C   UNL     1      12.017  -9.409  -4.693  0.00  0.00    +0.112 A 
ATOM     24  N   UNL     1      11.414  -9.112  -5.863  0.00  0.00    -0.263 NA
ATOM     25  C   UNL     1      10.914  -7.866  -5.982  0.00  0.00    +0.112 A 
ATOM     26  C   UNL     1      10.988  -6.908  -4.986  0.00  0.00    +0.043 A 
ENDBRANCH  18  21
ENDBRANCH  16  17
ENDBRANCH  15  16
ENDBRANCH  14  15
ENDBRANCH   1  14
TORSDOF 8
