REMARK  Name = 
REMARK  9 active torsions:
REMARK  status: ('A' for Active; 'I' for Inactive)
REMARK    1  A    between atoms: C_2  and  N_3
REMARK    2  A    between atoms: C_2  and  C_4
REMARK    3  A    between atoms: C_2  and  C_11
REMARK    4  A    between atoms: C_4  and  C_5
REMARK    5  A    between atoms: C_11  and  O_12
REMARK    6  A    between atoms: C_11  and  C_13
REMARK    7  A    between atoms: C_13  and  N_15
REMARK    8  A    between atoms: C_13  and  C_16
REMARK    9  A    between atoms: C_16  and  C_17
REMARK                            x       y       z     vdW  Elec       q    Type
REMARK                         _______ _______ _______ _____ _____    ______ ____
ROOT
ATOM      1  C   UNL     1       2.621  -0.613  -1.191  0.00  0.00    +0.148 C 
ENDROOT
BRANCH   1   2
ATOM      2  O   UNL     1       2.184   0.068  -2.381  0.00  0.00    -0.389 OA
ATOM      3  H   UNL     1       2.605   0.946  -2.322  0.00  0.00    +0.210 HD
ENDBRANCH   1   2
BRANCH   1   4
ATOM      4  C   UNL     1       1.994   0.085   0.060  0.00  0.00    +0.085 C 
BRANCH   4   5
ATOM      5  N   UNL     1       2.443   1.486   0.188  0.00  0.00    -0.325 NA
ATOM      6  H   UNL     1       3.431   1.530  -0.100  0.00  0.00    +0.119 HD
ATOM      7  H   UNL     1       1.939   2.067  -0.478  0.00  0.00    +0.119 HD
ENDBRANCH   4   5
BRANCH   4   8
ATOM      8  C   UNL     1       0.446   0.010   0.007  0.00  0.00    +0.056 C 
BRANCH   8   9
ATOM      9  C   UNL     1      -0.256   0.640   1.192  0.00  0.00    -0.046 A 
ATOM     10  C   UNL     1      -0.090   0.127   2.486  0.00  0.00    +0.004 A 
ATOM     11  C   UNL     1      -0.726   0.728   3.574  0.00  0.00    +0.000 A 
ATOM     12  C   UNL     1      -1.540   1.843   3.380  0.00  0.00    +0.000 A 
ATOM     13  C   UNL     1      -1.720   2.357   2.098  0.00  0.00    +0.000 A 
ATOM     14  C   UNL     1      -1.083   1.759   1.010  0.00  0.00    +0.004 A 
ENDBRANCH   8   9
ENDBRANCH   4   8
ENDBRANCH   1   4
BRANCH   1  15
ATOM     15  C   UNL     1       4.180  -0.671  -1.228  0.00  0.00    +0.085 C 
BRANCH  15  16
ATOM     16  N   UNL     1       4.754   0.702  -1.308  0.00  0.00    -0.325 NA
ATOM     17  H   UNL     1       5.696   0.688  -0.905  0.00  0.00    +0.119 HD
ATOM     18  H   UNL     1       4.915   0.920  -2.294  0.00  0.00    +0.119 HD
ENDBRANCH  15  16
BRANCH  15  19
ATOM     19  C   UNL     1       4.753  -1.496  -0.052  0.00  0.00    +0.056 C 
BRANCH  19  20
ATOM     20  C   UNL     1       6.263  -1.601  -0.043  0.00  0.00    -0.046 A 
ATOM     21  C   UNL     1       6.960  -2.173  -1.117  0.00  0.00    +0.004 A 
ATOM     22  C   UNL     1       8.355  -2.228  -1.105  0.00  0.00    +0.000 A 
ATOM     23  C   UNL     1       9.066  -1.727  -0.016  0.00  0.00    +0.000 A 
ATOM     24  C   UNL     1       8.383  -1.169   1.063  0.00  0.00    +0.000 A 
ATOM     25  C   UNL     1       6.989  -1.107   1.051  0.00  0.00    +0.004 A 
ENDBRANCH  19  20
ENDBRANCH  15  19
ENDBRANCH   1  15
TORSDOF 9
