REMARK  Name = 
REMARK  8 active torsions:
REMARK  status: ('A' for Active; 'I' for Inactive)
REMARK    1  A    between atoms: C_2  and  C_3
REMARK    2  A    between atoms: C_2  and  C_4
REMARK    3  A    between atoms: C_2  and  C_15
REMARK    4  A    between atoms: C_5  and  C_6
REMARK    5  A    between atoms: C_7  and  C_8
REMARK    6  A    between atoms: C_17  and  O_18
REMARK    7  A    between atoms: O_18  and  C_19
REMARK    8  A    between atoms: C_21  and  C_23
REMARK                            x       y       z     vdW  Elec       q    Type
REMARK                         _______ _______ _______ _____ _____    ______ ____
ROOT
ATOM      1  C   UNL     1       2.182   0.028  -0.075  0.00  0.00    +0.091 C 
ATOM      2  C   UNL     1       0.842   0.770  -0.083  0.00  0.00    +0.026 C 
ENDROOT
BRANCH   1   3
ATOM      3  C   UNL     1       2.681  -0.169   1.348  0.00  0.00    -0.029 A 
ATOM      4  C   UNL     1       2.782  -1.465   1.887  0.00  0.00    +0.013 A 
ATOM      5  C   UNL     1       3.172  -1.693   3.221  0.00  0.00    -0.014 A 
ATOM      6  C   UNL     1       3.478  -0.564   4.007  0.00  0.00    +0.054 A 
ATOM      7  C   UNL     1       3.420   0.731   3.487  0.00  0.00    +0.121 A 
ATOM      8  C   UNL     1       3.019   0.920   2.165  0.00  0.00    +0.050 A 
BRANCH   5   9
ATOM      9  C   UNL     1       3.244  -3.065   3.788  0.00  0.00    -0.018 A 
ATOM     10  C   UNL     1       4.192  -3.405   4.772  0.00  0.00    +0.008 A 
ATOM     11  C   UNL     1       4.245  -4.688   5.329  0.00  0.00    +0.001 A 
ATOM     12  C   UNL     1       3.361  -5.671   4.899  0.00  0.00    +0.000 A 
ATOM     13  C   UNL     1       2.422  -5.370   3.919  0.00  0.00    +0.001 A 
ATOM     14  C   UNL     1       2.361  -4.081   3.377  0.00  0.00    +0.008 A 
ENDBRANCH   5   9
BRANCH   7  15
ATOM     15  O   UNL     1       3.716   1.883   4.166  0.00  0.00    -0.495 OA
ATOM     16  C   UNL     1       4.165   1.742   5.508  0.00  0.00    +0.277 C 
ENDBRANCH   7  15
ENDBRANCH   1   3
BRANCH   1  17
ATOM     17  C   UNL     1       3.164   0.739  -0.914  0.00  0.00    -0.089 C 
ATOM     18  C   UNL     1       3.951   1.366  -1.575  0.00  0.00    -0.060 C 
BRANCH  18  19
ATOM     19  C   UNL     1       4.893   2.171  -2.296  0.00  0.00    +0.085 A 
ATOM     20  C   UNL     1       5.664   1.662  -3.335  0.00  0.00    +0.137 A 
ATOM     21  N   UNL     1       5.508   0.352  -3.805  0.00  0.00    -0.342 N 
ATOM     22  H   UNL     1       5.538  -0.323  -3.049  0.00  0.00    +0.144 HD
ATOM     23  H   UNL     1       6.228   0.189  -4.503  0.00  0.00    +0.144 HD
ATOM     24  N   UNL     1       6.572   2.396  -4.000  0.00  0.00    -0.199 NA
ATOM     25  C   UNL     1       6.733   3.659  -3.604  0.00  0.00    +0.215 A 
ATOM     26  N   UNL     1       7.672   4.425  -4.262  0.00  0.00    -0.327 N 
ATOM     27  H   UNL     1       7.828   4.057  -5.189  0.00  0.00    +0.145 HD
ATOM     28  H   UNL     1       7.425   5.402  -4.184  0.00  0.00    +0.145 HD
ATOM     29  N   UNL     1       6.029   4.254  -2.640  0.00  0.00    -0.219 NA
ATOM     30  C   UNL     1       5.115   3.503  -1.981  0.00  0.00    +0.060 A 
ATOM     31  C   UNL     1       4.364   4.231  -0.904  0.00  0.00    +0.067 C 
ENDBRANCH  18  19
ENDBRANCH   1  17
TORSDOF 5
