REMARK  Name = 
REMARK  7 active torsions:
REMARK  status: ('A' for Active; 'I' for Inactive)
REMARK    1  A    between atoms: C_2  and  C_25
REMARK    2  A    between atoms: C_8  and  O_9
REMARK    3  A    between atoms: O_9  and  C_10
REMARK    4  A    between atoms: C_11  and  O_12
REMARK    5  A    between atoms: O_12  and  C_13
REMARK    6  A    between atoms: C_15  and  C_16
REMARK    7  A    between atoms: C_16  and  C_17
REMARK                            x       y       z     vdW  Elec       q    Type
REMARK                         _______ _______ _______ _____ _____    ______ ____
ROOT
ATOM      1  C   UNL     1       1.981   0.235   0.168  0.00  0.00    +0.177 C 
ATOM      2  O   UNL     1       2.632   1.412   0.669  0.00  0.00    -0.484 OA
ATOM      3  C   UNL     1       3.977   1.276   0.953  0.00  0.00    +0.169 A 
ATOM      4  C   UNL     1       4.733   2.471   0.981  0.00  0.00    +0.204 A 
ATOM      5  C   UNL     1       6.126   2.395   1.137  0.00  0.00    +0.165 A 
ATOM      6  C   UNL     1       6.726   1.129   1.234  0.00  0.00    +0.054 A 
ATOM      7  C   UNL     1       5.970  -0.063   1.231  0.00  0.00    -0.033 A 
ATOM      8  C   UNL     1       4.569   0.014   1.148  0.00  0.00    +0.002 A 
ATOM      9  C   UNL     1       3.712  -1.224   1.226  0.00  0.00    +0.043 C 
ATOM     10  C   UNL     1       2.226  -0.921   1.124  0.00  0.00    +0.049 C 
ENDROOT
BRANCH   1  11
ATOM     11  C   UNL     1       2.391  -0.041  -1.264  0.00  0.00    +0.030 C 
ATOM     12  C   UNL     1       1.462   0.290  -2.407  0.00  0.00    +0.007 C 
ATOM     13  C   UNL     1       1.745  -1.145  -2.065  0.00  0.00    +0.007 C 
ENDBRANCH   1  11
BRANCH   5  14
ATOM     14  O   UNL     1       6.848   3.557   1.149  0.00  0.00    -0.491 OA
ATOM     15  C   UNL     1       8.254   3.492   1.345  0.00  0.00    +0.277 C 
ENDBRANCH   5  14
BRANCH   4  16
ATOM     16  O   UNL     1       3.968   3.604   0.828  0.00  0.00    -0.488 OA
ATOM     17  C   UNL     1       4.584   4.878   0.801  0.00  0.00    +0.277 C 
ENDBRANCH   4  16
BRANCH   7  18
ATOM     18  C   UNL     1       6.719  -1.388   1.191  0.00  0.00    +0.075 C 
BRANCH  18  19
ATOM     19  C   UNL     1       7.304  -1.757  -0.151  0.00  0.00    +0.015 A 
ATOM     20  C   UNL     1       8.283  -2.728  -0.285  0.00  0.00    +0.125 A 
ATOM     21  N   UNL     1       8.577  -3.617   0.746  0.00  0.00    -0.343 N 
ATOM     22  H   UNL     1       8.688  -3.210   1.663  0.00  0.00    +0.144 HD
ATOM     23  H   UNL     1       9.368  -4.188   0.459  0.00  0.00    +0.144 HD
ATOM     24  N   UNL     1       8.940  -2.950  -1.435  0.00  0.00    -0.200 NA
ATOM     25  C   UNL     1       8.566  -2.239  -2.501  0.00  0.00    +0.214 A 
ATOM     26  N   UNL     1       9.316  -2.351  -3.655  0.00  0.00    -0.327 N 
ATOM     27  H   UNL     1      10.267  -2.585  -3.416  0.00  0.00    +0.145 HD
ATOM     28  H   UNL     1       9.179  -1.514  -4.209  0.00  0.00    +0.145 HD
ATOM     29  N   UNL     1       7.570  -1.358  -2.514  0.00  0.00    -0.223 NA
ATOM     30  C   UNL     1       6.949  -1.146  -1.339  0.00  0.00    +0.121 A 
ENDBRANCH  18  19
ENDBRANCH   7  18
TORSDOF 5
