REMARK  Name = 
REMARK  7 active torsions:
REMARK  status: ('A' for Active; 'I' for Inactive)
REMARK    1  A    between atoms: C_1  and  C_2
REMARK    2  A    between atoms: C_2  and  O_3
REMARK    3  A    between atoms: C_2  and  C_4
REMARK    4  A    between atoms: C_2  and  C_6
REMARK    5  A    between atoms: N_8  and  C_9
REMARK    6  A    between atoms: C_11  and  C_18
REMARK    7  A    between atoms: C_12  and  N_15
REMARK                            x       y       z     vdW  Elec       q    Type
REMARK                         _______ _______ _______ _____ _____    ______ ____
ROOT
ATOM      1  C   UNL     1       4.759  -2.699  -1.641  0.00  0.00    +0.034 A 
ATOM      2  C   UNL     1       4.435  -3.970  -1.163  0.00  0.00    +0.030 A 
ATOM      3  C   UNL     1       4.685  -5.095  -1.947  0.00  0.00    +0.087 A 
ATOM      4  C   UNL     1       5.201  -4.935  -3.241  0.00  0.00    +0.285 A 
ATOM      5  C   UNL     1       5.498  -3.669  -3.766  0.00  0.00    +0.133 A 
ATOM      6  C   UNL     1       5.297  -2.553  -2.929  0.00  0.00    +0.042 A 
ENDROOT
BRANCH   1   8
ATOM      7  C   UNL     1       5.304  -0.490  -0.724  0.00  0.00    +0.249 C 
ATOM      8  N   UNL     1       4.470  -1.587  -0.827  0.00  0.00    -0.283 N 
ATOM      9  H   UNL     1       3.833  -1.751  -0.057  0.00  0.00    +0.155 HD
ATOM     10  O   UNL     1       6.425  -0.428  -1.237  0.00  0.00    -0.272 OA
BRANCH   7  12
ATOM     11  C   UNL     1       3.701   0.413   1.092  0.00  0.00    +0.052 C 
ATOM     12  C   UNL     1       4.759   0.744   0.041  0.00  0.00    +0.148 C 
BRANCH  12  13
ATOM     13  O   UNL     1       5.879   1.313   0.740  0.00  0.00    -0.379 OA
ATOM     14  H   UNL     1       6.656   1.222   0.151  0.00  0.00    +0.211 HD
ENDBRANCH  12  13
BRANCH  12  15
ATOM     15  C   UNL     1       4.271   1.699  -1.054  0.00  0.00    +0.123 C 
ATOM     16 BR   UNL     1       3.587   3.390  -0.366  0.00  0.00    -0.088 Br
ENDBRANCH  12  15
ENDBRANCH   7  12
ENDBRANCH   1   8
BRANCH   5  17
ATOM     17  C   UNL     1       5.937  -3.476  -5.193  0.00  0.00    +0.424 C 
ATOM     18  F   UNL     1       5.080  -4.067  -6.069  0.00  0.00    -0.166 F 
ATOM     19  F   UNL     1       7.172  -3.969  -5.459  0.00  0.00    -0.166 F 
ATOM     20  F   UNL     1       5.981  -2.164  -5.563  0.00  0.00    -0.166 F 
ENDBRANCH   5  17
BRANCH   4  21
ATOM     21  N   UNL     1       5.375  -6.138  -4.041  0.00  0.00    +0.080 N 
ATOM     22  O   UNL     1       4.381  -6.869  -4.168  0.00  0.00    +0.041 OA
ATOM     23  O   UNL     1       6.496  -6.357  -4.504  0.00  0.00    -0.576 OA
ENDBRANCH   4  21
TORSDOF 6
