REMARK  Name = 
REMARK  4 active torsions:
REMARK  status: ('A' for Active; 'I' for Inactive)
REMARK    1  A    between atoms: O_1  and  C_2
REMARK    2  A    between atoms: C_5  and  C_8
REMARK    3  A    between atoms: C_13  and  C_18
REMARK    4  A    between atoms: C_15  and  O_16
REMARK                            x       y       z     vdW  Elec       q    Type
REMARK                         _______ _______ _______ _____ _____    ______ ____
ROOT
ATOM      1  C   UNL     1       6.592   0.207  -0.565  0.00  0.00    +0.136 A 
ATOM      2  O   UNL     1       7.371  -0.901  -0.756  0.00  0.00    -0.454 OA
ATOM      3  C   UNL     1       8.638  -0.472  -1.022  0.00  0.00    +0.153 A 
ATOM      4  C   UNL     1       9.758  -1.264  -1.276  0.00  0.00    +0.098 A 
ATOM      5  C   UNL     1      10.970  -0.613  -1.548  0.00  0.00    +0.068 A 
ATOM      6  C   UNL     1      11.024   0.779  -1.555  0.00  0.00    +0.119 A 
ATOM      7  C   UNL     1       9.897   1.563  -1.288  0.00  0.00    +0.057 A 
ATOM      8  C   UNL     1       8.678   0.920  -1.014  0.00  0.00    +0.025 A 
ATOM      9  C   UNL     1       7.361   1.345  -0.703  0.00  0.00    +0.058 A 
ENDROOT
BRANCH   1  13
ATOM     10  C   UNL     1       2.483  -0.479   0.326  0.00  0.00    +0.117 A 
ATOM     11  C   UNL     1       3.105   0.675   0.784  0.00  0.00    +0.046 A 
ATOM     12  C   UNL     1       4.452   0.901   0.489  0.00  0.00    +0.015 A 
ATOM     13  C   UNL     1       5.187  -0.032  -0.260  0.00  0.00    +0.018 A 
ATOM     14  C   UNL     1       4.534  -1.186  -0.720  0.00  0.00    +0.015 A 
ATOM     15  C   UNL     1       3.184  -1.410  -0.433  0.00  0.00    +0.046 A 
BRANCH  10  16
ATOM     16  O   UNL     1       1.173  -0.667   0.648  0.00  0.00    -0.507 OA
ATOM     17  H   UNL     1       0.902  -1.548   0.342  0.00  0.00    +0.292 HD
ENDBRANCH  10  16
ENDBRANCH   1  13
BRANCH   4  18
ATOM     18  C   UNL     1       9.638  -2.683  -1.254  0.00  0.00    +0.103 C 
ATOM     19  N   UNL     1       9.590  -3.843  -1.246  0.00  0.00    -0.191 NA
ENDBRANCH   4  18
BRANCH   6  20
ATOM     20  O   UNL     1      12.186   1.441  -1.825  0.00  0.00    -0.507 OA
ATOM     21  H   UNL     1      12.896   0.800  -1.994  0.00  0.00    +0.292 HD
ENDBRANCH   6  20
TORSDOF 4
