REMARK  Name = 
REMARK  8 active torsions:
REMARK  status: ('A' for Active; 'I' for Inactive)
REMARK    1  A    between atoms: C_1  and  C_2
REMARK    2  A    between atoms: C_3  and  C_4
REMARK    3  A    between atoms: C_4  and  C_5
REMARK    4  A    between atoms: C_5  and  C_6
REMARK    5  A    between atoms: C_6  and  C_7
REMARK    6  A    between atoms: C_7  and  C_8
REMARK    7  A    between atoms: C_8  and  C_9
REMARK    8  A    between atoms: C_9  and  O_10
REMARK                            x       y       z     vdW  Elec       q    Type
REMARK                         _______ _______ _______ _____ _____    ______ ____
ROOT
ATOM      1  C   UNL     1       1.031   0.335   0.093  0.00  0.00    +0.048 C 
ATOM      2  C   UNL     1       2.521   0.134   0.030  0.00  0.00    +0.004 C 
ATOM      3  C   UNL     1       3.261   1.432   0.023  0.00  0.00    +0.190 C 
ATOM      4  O   UNL     1       2.666   2.505   0.017  0.00  0.00    -0.287 OA
ATOM      5  C   UNL     1       4.728   1.409   0.032  0.00  0.00    +0.033 A 
ATOM      6  C   UNL     1       5.411   0.202   0.024  0.00  0.00    +0.033 A 
ATOM      7  C   UNL     1       6.813   0.199   0.038  0.00  0.00    +0.012 A 
ATOM      8  C   UNL     1       7.519   1.404   0.050  0.00  0.00    +0.001 A 
ATOM      9  C   UNL     1       6.830   2.615   0.052  0.00  0.00    +0.001 A 
ATOM     10  C   UNL     1       4.675  -1.073  -0.007  0.00  0.00    +0.190 C 
ATOM     11  O   UNL     1       5.302  -2.127  -0.029  0.00  0.00    -0.287 OA
ATOM     12  C   UNL     1       5.435   2.620   0.046  0.00  0.00    +0.012 A 
ATOM     13  C   UNL     1       3.175  -1.048  -0.002  0.00  0.00    +0.006 C 
ENDROOT
BRANCH  13  14
ATOM     14  C   UNL     1       2.520  -2.418   0.028  0.00  0.00    +0.039 C 
BRANCH  14  15
ATOM     15  C   UNL     1       1.579  -2.783  -1.126  0.00  0.00    +0.005 C 
BRANCH  15  16
ATOM     16  C   UNL     1       2.174  -2.695  -2.534  0.00  0.00    +0.001 C 
BRANCH  16  17
ATOM     17  C   UNL     1       1.073  -3.032  -3.547  0.00  0.00    +0.011 C 
BRANCH  17  18
ATOM     18  C   UNL     1       1.534  -2.968  -4.997  0.00  0.00    +0.120 C 
BRANCH  18  19
ATOM     19  C   UNL     1       0.385  -3.292  -5.937  0.00  0.00    +0.305 C 
ATOM     20  O   UNL     1      -0.752  -3.566  -5.593  0.00  0.00    -0.251 OA
BRANCH  19  21
ATOM     21  O   UNL     1       0.757  -3.243  -7.237  0.00  0.00    -0.481 OA
ATOM     22  H   UNL     1       1.696  -3.018  -7.362  0.00  0.00    +0.295 HD
ENDBRANCH  19  21
ENDBRANCH  18  19
ENDBRANCH  17  18
ENDBRANCH  16  17
ENDBRANCH  15  16
ENDBRANCH  14  15
ENDBRANCH  13  14
TORSDOF 7
