REMARK  Name = 
REMARK  6 active torsions:
REMARK  status: ('A' for Active; 'I' for Inactive)
REMARK    1  A    between atoms: C_2  and  N_3
REMARK    2  A    between atoms: N_5  and  C_18
REMARK    3  A    between atoms: C_7  and  C_9
REMARK    4  A    between atoms: C_20  and  C_24
REMARK    5  A    between atoms: C_26  and  S_30
REMARK    6  A    between atoms: S_30  and  C_31
REMARK                            x       y       z     vdW  Elec       q    Type
REMARK                         _______ _______ _______ _____ _____    ______ ____
ROOT
ATOM      1  C   UNL     1       2.103   0.181   0.038  0.00  0.00    +0.077 C 
ATOM      2  C   UNL     1       2.742  -1.122   0.569  0.00  0.00    +0.057 C 
ATOM      3  C   UNL     1       4.073  -0.673   1.212  0.00  0.00    +0.116 C 
ATOM      4  N   UNL     1       3.971   0.778   1.372  0.00  0.00    -0.313 N 
ATOM      5  C   UNL     1       2.658   1.273   0.970  0.00  0.00    +0.125 C 
ENDROOT
BRANCH   2   6
ATOM      6  C   UNL     1       2.912  -2.164  -0.523  0.00  0.00    -0.003 A 
ATOM      7  C   UNL     1       2.225  -3.383  -0.450  0.00  0.00    +0.130 A 
ATOM      8  F   UNL     1       1.446  -3.647   0.609  0.00  0.00    -0.205 F 
ATOM      9  C   UNL     1       2.314  -4.337  -1.461  0.00  0.00    +0.080 A 
ATOM     10  C   UNL     1       3.104  -4.072  -2.571  0.00  0.00    +0.161 A 
ATOM     11  F   UNL     1       3.176  -4.976  -3.558  0.00  0.00    -0.202 F 
ATOM     12  C   UNL     1       3.807  -2.878  -2.665  0.00  0.00    +0.159 A 
ATOM     13  F   UNL     1       4.565  -2.623  -3.740  0.00  0.00    -0.202 F 
ATOM     14  C   UNL     1       3.721  -1.927  -1.650  0.00  0.00    +0.048 A 
ENDBRANCH   2   6
BRANCH   4  15
ATOM     15  C   UNL     1       5.107   1.561   1.303  0.00  0.00    +0.125 A 
ATOM     16  N   UNL     1       6.283   0.974   1.030  0.00  0.00    -0.221 NA
ATOM     17  C   UNL     1       7.368   1.759   0.973  0.00  0.00    +0.223 A 
ATOM     18  N   UNL     1       7.402   3.084   1.160  0.00  0.00    -0.235 NA
ATOM     19  C   UNL     1       6.223   3.666   1.450  0.00  0.00    +0.076 A 
ATOM     20  C   UNL     1       5.054   2.924   1.541  0.00  0.00    +0.072 A 
BRANCH  19  21
ATOM     21  C   UNL     1       6.259   5.131   1.669  0.00  0.00    +0.002 A 
ATOM     22  C   UNL     1       5.150   5.950   1.375  0.00  0.00    +0.010 A 
ATOM     23  C   UNL     1       5.166   7.329   1.611  0.00  0.00    +0.002 A 
ATOM     24  C   UNL     1       6.302   7.930   2.142  0.00  0.00    +0.027 A 
ATOM     25  C   UNL     1       7.423   7.146   2.418  0.00  0.00    +0.088 A 
ATOM     26  C   UNL     1       7.406   5.763   2.189  0.00  0.00    +0.037 A 
BRANCH  25  27
ATOM     27  S   UNL     1       8.846   7.900   3.175  0.00  0.00    -0.006 S 
ATOM     28  O   UNL     1       9.530   6.876   3.944  0.00  0.00    -0.170 OA
ATOM     29  O   UNL     1       8.399   9.125   3.810  0.00  0.00    -0.170 OA
ATOM     30  C   UNL     1       9.879   8.345   1.806  0.00  0.00    +0.200 C 
ENDBRANCH  25  27
ENDBRANCH  19  21
ENDBRANCH   4  15
BRANCH   1  31
ATOM     31  N   UNL     1       0.634   0.138  -0.011  0.00  0.00    -0.325 NA
ATOM     32  H   UNL     1       0.339  -0.639  -0.604  0.00  0.00    +0.119 HD
ATOM     33  H   UNL     1       0.263  -0.076   0.917  0.00  0.00    +0.119 HD
ENDBRANCH   1  31
TORSDOF 5
