REMARK  Name = 
REMARK  5 active torsions:
REMARK  status: ('A' for Active; 'I' for Inactive)
REMARK    1  A    between atoms: N_4  and  C_5
REMARK    2  A    between atoms: C_5  and  C_6
REMARK    3  A    between atoms: C_8  and  C_12
REMARK    4  A    between atoms: C_13  and  O_14
REMARK    5  A    between atoms: C_15  and  C_19
REMARK                            x       y       z     vdW  Elec       q    Type
REMARK                         _______ _______ _______ _____ _____    ______ ____
ROOT
ATOM      1  C   UNL     1       7.333  -2.077   5.122  0.00  0.00    +0.024 A 
ATOM      2  C   UNL     1       7.489  -0.734   5.520  0.00  0.00    +0.012 A 
ATOM      3  C   UNL     1       8.404  -0.359   6.509  0.00  0.00    +0.001 A 
ATOM      4  C   UNL     1       9.191  -1.319   7.142  0.00  0.00    +0.013 A 
ATOM      5  C   UNL     1       9.097  -2.666   6.780  0.00  0.00    +0.040 A 
ATOM      6  C   UNL     1       8.166  -3.023   5.771  0.00  0.00    +0.134 A 
ENDROOT
BRANCH   5   7
ATOM      7  C   UNL     1      10.046  -3.639   7.352  0.00  0.00    +0.051 A 
ATOM      8  N   UNL     1       9.822  -5.001   7.342  0.00  0.00    -0.354 N 
ATOM      9  H   UNL     1       8.970  -5.414   6.986  0.00  0.00    +0.166 HD
ATOM     10  C   UNL     1      10.971  -5.692   7.640  0.00  0.00    +0.050 A 
ATOM     11  C   UNL     1      11.252  -7.055   7.589  0.00  0.00    +0.046 A 
ATOM     12  C   UNL     1      12.562  -7.390   7.899  0.00  0.00    +0.113 A 
ATOM     13  N   UNL     1      13.525  -6.512   8.261  0.00  0.00    -0.263 NA
ATOM     14  C   UNL     1      13.216  -5.193   8.323  0.00  0.00    +0.120 A 
ATOM     15  C   UNL     1      11.929  -4.748   8.000  0.00  0.00    +0.018 A 
ATOM     16  C   UNL     1      11.315  -3.469   7.885  0.00  0.00    +0.037 A 
ENDBRANCH   5   7
BRANCH   1  21
ATOM     17  C   UNL     1       5.166  -1.912   1.948  0.00  0.00    -0.030 A 
ATOM     18  C   UNL     1       4.532  -3.155   1.991  0.00  0.00    +0.005 A 
ATOM     19  C   UNL     1       4.746  -4.009   3.067  0.00  0.00    +0.001 A 
ATOM     20  C   UNL     1       5.610  -3.634   4.101  0.00  0.00    +0.008 A 
ATOM     21  C   UNL     1       6.342  -2.432   4.058  0.00  0.00    -0.014 A 
ATOM     22  C   UNL     1       6.090  -1.580   2.960  0.00  0.00    +0.013 A 
BRANCH  17  23
ATOM     23  C   UNL     1       4.861  -0.950   0.829  0.00  0.00    +0.141 C 
BRANCH  23  28
ATOM     24  N   UNL     1       6.603  -0.534  -2.293  0.00  0.00    -0.313 N 
ATOM     25  H   UNL     1       6.992  -1.461  -2.379  0.00  0.00    +0.146 HD
ATOM     26  H   UNL     1       6.470  -0.034  -3.164  0.00  0.00    +0.146 HD
ATOM     27  C   UNL     1       5.611  -0.338  -1.391  0.00  0.00    +0.297 C 
ATOM     28  N   UNL     1       5.725  -1.156  -0.305  0.00  0.00    -0.295 N 
ATOM     29  H   UNL     1       6.634  -1.556  -0.136  0.00  0.00    +0.151 HD
ATOM     30  O   UNL     1       4.741   0.499  -1.558  0.00  0.00    -0.253 OA
ENDBRANCH  23  28
ENDBRANCH  17  23
ENDBRANCH   1  21
BRANCH   6  31
ATOM     31  O   UNL     1       8.148  -4.349   5.383  0.00  0.00    -0.505 OA
ATOM     32  H   UNL     1       7.989  -4.351   4.423  0.00  0.00    +0.292 HD
ENDBRANCH   6  31
TORSDOF 5
