REMARK  Name = 
REMARK  2 active torsions:
REMARK  status: ('A' for Active; 'I' for Inactive)
REMARK    1  A    between atoms: O_1  and  C_2
REMARK    2  A    between atoms: C_11  and  O_12
REMARK                            x       y       z     vdW  Elec       q    Type
REMARK                         _______ _______ _______ _____ _____    ______ ____
ROOT
ATOM      1  C   UNL     1       2.212  -0.019   0.035  0.00  0.00    +0.159 A 
ATOM      2  C   UNL     1       2.928   1.184   0.002  0.00  0.00    +0.166 A 
ATOM      3  C   UNL     1       4.344   1.191  -0.098  0.00  0.00    +0.027 A 
ATOM      4  C   UNL     1       5.006  -0.063  -0.165  0.00  0.00    -0.014 A 
ATOM      5  C   UNL     1       6.405  -0.114  -0.280  0.00  0.00    +0.008 A 
ATOM      6  C   UNL     1       7.166   1.053  -0.331  0.00  0.00    +0.001 A 
ATOM      7  C   UNL     1       6.537   2.288  -0.255  0.00  0.00    +0.001 A 
ATOM      8  C   UNL     1       4.265  -1.255  -0.116  0.00  0.00    +0.012 A 
ATOM      9  C   UNL     1       5.147   2.358  -0.134  0.00  0.00    +0.012 A 
ATOM     10  C   UNL     1       2.875  -1.237  -0.018  0.00  0.00    +0.050 A 
ENDROOT
BRANCH   1  11
ATOM     11  O   UNL     1       0.846   0.014   0.108  0.00  0.00    -0.503 OA
ATOM     12  H   UNL     1       0.502  -0.889   0.031  0.00  0.00    +0.292 HD
ENDBRANCH   1  11
BRANCH   2  13
ATOM     13  O   UNL     1       2.187   2.340   0.064  0.00  0.00    -0.503 OA
ATOM     14  H   UNL     1       2.743   3.096  -0.162  0.00  0.00    +0.292 HD
ENDBRANCH   2  13
TORSDOF 2
