REMARK  Name = 
REMARK  9 active torsions:
REMARK  status: ('A' for Active; 'I' for Inactive)
REMARK    1  A    between atoms: C_1  and  O_2
REMARK    2  A    between atoms: O_2  and  C_3
REMARK    3  A    between atoms: C_6  and  C_7
REMARK    4  A    between atoms: C_8  and  C_9
REMARK    5  A    between atoms: N_11  and  C_12
REMARK    6  A    between atoms: C_17  and  C_18
REMARK    7  A    between atoms: C_18  and  O_19
REMARK    8  A    between atoms: C_22  and  O_23
REMARK    9  A    between atoms: O_23  and  C_24
REMARK                            x       y       z     vdW  Elec       q    Type
REMARK                         _______ _______ _______ _____ _____    ______ ____
ROOT
ATOM      1  C   UNL     1       5.479  -0.882  -7.340  0.00  0.00    +0.241 C 
ATOM      2  N   UNL     1       5.635  -2.034  -8.082  0.00  0.00    -0.281 N 
ATOM      3  H   UNL     1       5.416  -2.925  -7.631  0.00  0.00    +0.155 HD
ATOM      4  O   UNL     1       5.682   0.263  -7.725  0.00  0.00    -0.270 OA
ENDROOT
BRANCH   2   5
ATOM      5  C   UNL     1       5.992  -2.125  -9.458  0.00  0.00    +0.048 A 
ATOM      6  C   UNL     1       6.129  -3.392 -10.075  0.00  0.00    +0.080 A 
ATOM      7  C   UNL     1       6.412  -3.480 -11.453  0.00  0.00    +0.017 A 
ATOM      8  C   UNL     1       6.608  -2.326 -12.211  0.00  0.00    +0.001 A 
ATOM      9  C   UNL     1       6.506  -1.082 -11.605  0.00  0.00    +0.002 A 
ATOM     10  C   UNL     1       6.197  -0.984 -10.246  0.00  0.00    +0.024 A 
BRANCH   6  11
ATOM     11  C   UNL     1       5.940  -4.636  -9.277  0.00  0.00    +0.339 C 
ATOM     12  O   UNL     1       5.249  -4.673  -8.268  0.00  0.00    -0.245 OA
BRANCH  11  13
ATOM     13  O   UNL     1       6.640  -5.705  -9.713  0.00  0.00    -0.477 OA
ATOM     14  H   UNL     1       7.317  -5.522 -10.390  0.00  0.00    +0.295 HD
ENDBRANCH  11  13
ENDBRANCH   6  11
ENDBRANCH   2   5
BRANCH   1  16
ATOM     15  C   UNL     1       4.741  -0.061  -5.185  0.00  0.00    +0.013 C 
ATOM     16  C   UNL     1       5.002  -1.135  -5.951  0.00  0.00    +0.068 C 
BRANCH  15  20
ATOM     17  C   UNL     1       2.971  -0.003  -1.277  0.00  0.00    +0.162 A 
ATOM     18  C   UNL     1       3.809  -1.074  -1.630  0.00  0.00    +0.162 A 
ATOM     19  C   UNL     1       4.399  -1.097  -2.908  0.00  0.00    +0.057 A 
ATOM     20  C   UNL     1       4.176  -0.075  -3.834  0.00  0.00    -0.021 A 
ATOM     21  C   UNL     1       3.406   1.021  -3.441  0.00  0.00    +0.012 A 
ATOM     22  C   UNL     1       2.814   1.058  -2.179  0.00  0.00    +0.050 A 
BRANCH  17  24
ATOM     23  C   UNL     1       1.121   0.719   0.016  0.00  0.00    +0.277 C 
ATOM     24  O   UNL     1       2.354   0.005  -0.052  0.00  0.00    -0.491 OA
ENDBRANCH  17  24
BRANCH  18  25
ATOM     25  O   UNL     1       4.156  -2.176  -0.893  0.00  0.00    -0.491 OA
ATOM     26  C   UNL     1       3.633  -2.323   0.417  0.00  0.00    +0.277 C 
ENDBRANCH  18  25
ENDBRANCH  15  20
ENDBRANCH   1  16
TORSDOF 7
