REMARK  Name = 
REMARK  10 active torsions:
REMARK  status: ('A' for Active; 'I' for Inactive)
REMARK    1  A    between atoms: C_1  and  C_2
REMARK    2  A    between atoms: C_2  and  C_3
REMARK    3  A    between atoms: C_3  and  C_4
REMARK    4  A    between atoms: C_3  and  C_6
REMARK    5  A    between atoms: C_4  and  C_5
REMARK    6  A    between atoms: N_8  and  C_9
REMARK    7  A    between atoms: C_11  and  C_19
REMARK    8  A    between atoms: C_14  and  N_15
REMARK    9  A    between atoms: C_16  and  C_17
REMARK   10  A    between atoms: C_19  and  O_20
REMARK                            x       y       z     vdW  Elec       q    Type
REMARK                         _______ _______ _______ _____ _____    ______ ____
ROOT
ATOM      1  C   UNL     1       6.676   2.652  -0.371  0.00  0.00    +0.056 A 
ATOM      2  C   UNL     1       7.366   1.452  -0.676  0.00  0.00    +0.055 A 
ATOM      3  C   UNL     1       8.748   1.515  -0.935  0.00  0.00    +0.026 A 
ATOM      4  C   UNL     1       9.425   2.734  -0.995  0.00  0.00    +0.017 A 
ATOM      5  C   UNL     1       8.732   3.917  -0.775  0.00  0.00    +0.061 A 
ATOM      6  C   UNL     1       7.388   3.865  -0.399  0.00  0.00    +0.040 A 
ENDROOT
BRANCH   2   7
ATOM      7  N   UNL     1       6.653   0.233  -0.849  0.00  0.00    -0.284 N 
ATOM      8  H   UNL     1       5.650   0.305  -0.941  0.00  0.00    +0.155 HD
ATOM      9  C   UNL     1       7.217  -1.018  -1.065  0.00  0.00    +0.214 C 
ATOM     10  O   UNL     1       8.380  -1.342  -0.848  0.00  0.00    -0.276 OA
ATOM     11  C   UNL     1       6.239  -2.024  -1.612  0.00  0.00    +0.109 C 
ENDBRANCH   2   7
BRANCH   1  13
ATOM     12  C   UNL     1       4.483   3.766   0.069  0.00  0.00    +0.220 C 
ATOM     13  N   UNL     1       5.301   2.641   0.012  0.00  0.00    -0.284 N 
ATOM     14  H   UNL     1       4.912   1.756   0.308  0.00  0.00    +0.155 HD
ATOM     15  O   UNL     1       4.777   4.863  -0.401  0.00  0.00    -0.275 OA
BRANCH  12  16
ATOM     16  C   UNL     1       3.107   3.536   0.705  0.00  0.00    +0.075 C 
BRANCH  16  18
ATOM     17  C   UNL     1       1.221   4.786   1.959  0.00  0.00    +0.004 C 
ATOM     18  C   UNL     1       2.576   4.874   1.272  0.00  0.00    +0.009 C 
ENDBRANCH  16  18
BRANCH  16  19
ATOM     19  C   UNL     1       2.167   2.853  -0.302  0.00  0.00    +0.009 C 
ATOM     20  C   UNL     1       1.909   3.652  -1.576  0.00  0.00    +0.004 C 
ENDBRANCH  16  19
ENDBRANCH  12  16
ENDBRANCH   1  13
BRANCH   5  21
ATOM     21  C   UNL     1       9.445   5.205  -0.936  0.00  0.00    +0.337 C 
ATOM     22  O   UNL     1      10.638   5.338  -0.724  0.00  0.00    -0.245 OA
BRANCH  21  23
ATOM     23  O   UNL     1       8.665   6.199  -1.410  0.00  0.00    -0.477 OA
ATOM     24  H   UNL     1       7.758   5.947  -1.670  0.00  0.00    +0.295 HD
ENDBRANCH  21  23
ENDBRANCH   5  21
TORSDOF 7
