REMARK  Name = 
REMARK  10 active torsions:
REMARK  status: ('A' for Active; 'I' for Inactive)
REMARK    1  A    between atoms: C_2  and  C_17
REMARK    2  A    between atoms: C_7  and  O_9
REMARK    3  A    between atoms: O_9  and  C_10
REMARK    4  A    between atoms: C_10  and  C_11
REMARK    5  A    between atoms: N_19  and  N_20
REMARK    6  A    between atoms: N_20  and  C_21
REMARK    7  A    between atoms: C_21  and  C_22
REMARK    8  A    between atoms: C_22  and  C_23
REMARK    9  A    between atoms: C_23  and  C_24
REMARK   10  A    between atoms: C_24  and  N_25
REMARK                            x       y       z     vdW  Elec       q    Type
REMARK                         _______ _______ _______ _____ _____    ______ ____
ROOT
ATOM      1  C   UNL     1       2.007  -0.184   0.009  0.00  0.00    +0.166 C 
ATOM      2  N   UNL     1       2.679  -1.363   0.567  0.00  0.00    -0.256 N 
ATOM      3  C   UNL     1       2.195  -2.650   0.511  0.00  0.00    +0.404 C 
ATOM      4  O   UNL     1       2.695  -3.574   1.138  0.00  0.00    -0.226 OA
ATOM      5  C   UNL     1       3.700  -1.004   1.533  0.00  0.00    +0.112 C 
ATOM      6  C   UNL     1       3.875   0.497   1.379  0.00  0.00    +0.021 C 
ATOM      7  C   UNL     1       2.504   0.964   0.897  0.00  0.00    +0.033 C 
ENDROOT
BRANCH   1   8
ATOM      8  C   UNL     1       2.371   0.108  -1.460  0.00  0.00    +0.247 C 
ATOM      9  N   UNL     1       3.638  -0.325  -1.826  0.00  0.00    -0.249 N 
ATOM     10  H   UNL     1       4.085  -1.054  -1.274  0.00  0.00    +0.169 HD
ATOM     11  O   UNL     1       1.687   0.839  -2.177  0.00  0.00    -0.272 OA
BRANCH   9  12
ATOM     12  N   UNL     1       4.179   0.028  -3.079  0.00  0.00    -0.241 NA
ATOM     13  H   UNL     1       3.450   0.551  -3.585  0.00  0.00    +0.144 HD
BRANCH  12  14
ATOM     14  C   UNL     1       5.344   0.912  -2.922  0.00  0.00    +0.102 C 
BRANCH  14  15
ATOM     15  C   UNL     1       6.521   0.254  -2.191  0.00  0.00    +0.018 C 
BRANCH  15  16
ATOM     16  C   UNL     1       7.010  -1.027  -2.876  0.00  0.00    +0.016 C 
BRANCH  16  17
ATOM     17  C   UNL     1       8.118  -1.731  -2.094  0.00  0.00    +0.077 C 
BRANCH  17  18
ATOM     18  N   UNL     1       9.306  -0.896  -1.965  0.00  0.00    -0.330 NA
ATOM     19  H   UNL     1      10.042  -1.428  -1.502  0.00  0.00    +0.118 HD
ATOM     20  H   UNL     1       9.662  -0.667  -2.892  0.00  0.00    +0.118 HD
ENDBRANCH  17  18
ENDBRANCH  16  17
ENDBRANCH  15  16
ENDBRANCH  14  15
ENDBRANCH  12  14
ENDBRANCH   9  12
ENDBRANCH   1   8
BRANCH   3  21
ATOM     21  O   UNL     1       1.124  -2.761  -0.312  0.00  0.00    -0.445 OA
BRANCH  21  22
ATOM     22  C   UNL     1       0.538  -4.068  -0.413  0.00  0.00    +0.269 C 
BRANCH  22  23
ATOM     23  C   UNL     1      -0.936  -3.983  -0.102  0.00  0.00    -0.010 A 
ATOM     24  C   UNL     1      -1.480  -4.681   0.987  0.00  0.00    +0.007 A 
ATOM     25  C   UNL     1      -2.848  -4.613   1.262  0.00  0.00    +0.000 A 
ATOM     26  C   UNL     1      -3.685  -3.848   0.452  0.00  0.00    +0.000 A 
ATOM     27  C   UNL     1      -3.156  -3.149  -0.632  0.00  0.00    +0.000 A 
ATOM     28  C   UNL     1      -1.790  -3.216  -0.908  0.00  0.00    +0.007 A 
ENDBRANCH  22  23
ENDBRANCH  21  22
ENDBRANCH   3  21
TORSDOF 10
