REMARK  Name = 
REMARK  11 active torsions:
REMARK  status: ('A' for Active; 'I' for Inactive)
REMARK    1  A    between atoms: C_1  and  O_2
REMARK    2  A    between atoms: O_2  and  C_3
REMARK    3  A    between atoms: C_7  and  O_8
REMARK    4  A    between atoms: O_8  and  C_9
REMARK    5  A    between atoms: C_10  and  C_11
REMARK    6  A    between atoms: C_11  and  N_12
REMARK    7  A    between atoms: C_15  and  N_18
REMARK    8  A    between atoms: C_19  and  C_21
REMARK    9  A    between atoms: C_21  and  C_22
REMARK   10  A    between atoms: C_22  and  C_23
REMARK   11  A    between atoms: C_23  and  S_24
REMARK                            x       y       z     vdW  Elec       q    Type
REMARK                         _______ _______ _______ _____ _____    ______ ____
ROOT
ATOM      1  N   UNL     1       3.368  -2.230  -0.082  0.00  0.00    -0.298 NA
ATOM      2  C   UNL     1       2.745  -3.538  -0.348  0.00  0.00    +0.086 C 
ATOM      3  C   UNL     1       1.494  -3.565  -1.247  0.00  0.00    +0.037 C 
ATOM      4  C   UNL     1       0.496  -2.423  -0.996  0.00  0.00    +0.075 C 
ATOM      5  C   UNL     1       1.245  -1.112  -0.829  0.00  0.00    +0.037 C 
ATOM      6  C   UNL     1       2.319  -1.255   0.265  0.00  0.00    +0.086 C 
ENDROOT
BRANCH   4   7
ATOM      7  N   UNL     1      -0.353  -2.625   0.185  0.00  0.00    -0.312 N 
ATOM      8  H   UNL     1      -0.427  -1.858   0.831  0.00  0.00    +0.149 HD
ATOM      9  C   UNL     1      -1.327  -3.589   0.252  0.00  0.00    +0.213 C 
ATOM     10  O   UNL     1      -1.570  -4.390  -0.641  0.00  0.00    -0.276 OA
BRANCH   9  11
ATOM     11  C   UNL     1      -2.096  -3.536   1.560  0.00  0.00    +0.096 C 
BRANCH  11  12
ATOM     12  C   UNL     1      -2.458  -4.944   2.009  0.00  0.00    +0.020 C 
BRANCH  12  13
ATOM     13  C   UNL     1      -3.230  -4.934   3.316  0.00  0.00    +0.066 C 
BRANCH  13  14
ATOM     14  S   UNL     1      -3.634  -6.633   3.801  0.00  0.00    -0.178 S 
ATOM     15  H   UNL     1      -4.157  -7.006   2.622  0.00  0.00    +0.102 HD
ENDBRANCH  13  14
ENDBRANCH  12  13
ENDBRANCH  11  12
ENDBRANCH   9  11
ENDBRANCH   4   7
BRANCH   1  16
ATOM     16  C   UNL     1       4.225  -1.643  -1.138  0.00  0.00    +0.127 C 
BRANCH  16  18
ATOM     17  C   UNL     1       6.743  -2.155  -1.179  0.00  0.00    +0.128 A 
ATOM     18  C   UNL     1       5.436  -2.398  -1.649  0.00  0.00    +0.050 A 
ATOM     19  C   UNL     1       5.286  -3.197  -2.813  0.00  0.00    +0.128 A 
ATOM     20  C   UNL     1       6.404  -3.685  -3.498  0.00  0.00    +0.046 A 
ATOM     21  C   UNL     1       7.684  -3.420  -3.031  0.00  0.00    +0.007 A 
ATOM     22  C   UNL     1       7.850  -2.664  -1.875  0.00  0.00    +0.046 A 
BRANCH  17  24
ATOM     23  C   UNL     1       6.475  -1.450   1.072  0.00  0.00    +0.277 C 
ATOM     24  O   UNL     1       7.094  -1.267  -0.196  0.00  0.00    -0.495 OA
ENDBRANCH  17  24
BRANCH  19  25
ATOM     25  O   UNL     1       4.011  -3.347  -3.299  0.00  0.00    -0.495 OA
ATOM     26  C   UNL     1       3.779  -4.486  -4.120  0.00  0.00    +0.277 C 
ENDBRANCH  19  25
ENDBRANCH  16  18
ENDBRANCH   1  16
TORSDOF 9
