REMARK  Name = 
REMARK  3 active torsions:
REMARK  status: ('A' for Active; 'I' for Inactive)
REMARK    1  A    between atoms: N_4  and  N_5
REMARK    2  A    between atoms: N_8  and  C_9
REMARK    3  A    between atoms: N_8  and  C_15
REMARK                            x       y       z     vdW  Elec       q    Type
REMARK                         _______ _______ _______ _____ _____    ______ ____
ROOT
ATOM      1  N   UNL     1       4.600   0.357  -1.158  0.00  0.00    -0.161 N 
ATOM      2  H   UNL     1       5.004   0.993  -0.465  0.00  0.00    +0.193 HD
ATOM      3  C   UNL     1       5.236   0.181  -2.381  0.00  0.00    +0.340 C 
ATOM      4  N   UNL     1       6.635   0.324  -2.375  0.00  0.00    -0.222 N 
ATOM      5  O   UNL     1       4.544  -0.071  -3.373  0.00  0.00    -0.249 OA
ENDROOT
BRANCH   1  10
ATOM      6  N   UNL     1       1.447   1.951  -1.033  0.00  0.00    -0.288 N 
ATOM      7  H   UNL     1       0.905   1.225  -1.487  0.00  0.00    +0.255 HD
ATOM      8  H   UNL     1       0.883   2.499  -0.396  0.00  0.00    +0.255 HD
ATOM      9  C   UNL     1       2.655   1.554  -0.565  0.00  0.00    +0.396 C 
ATOM     10  N   UNL     1       3.180   0.504  -1.263  0.00  0.00    -0.182 N 
ATOM     11  H   UNL     1       2.903   0.466  -2.248  0.00  0.00    +0.288 HD
ATOM     12  N   UNL     1       3.228   2.119   0.440  0.00  0.00    -0.128 NA
ATOM     13  H   UNL     1       2.627   2.871   0.786  0.00  0.00    +0.306 HD
ENDBRANCH   1  10
BRANCH   4  14
ATOM     14  C   UNL     1       7.388   0.402  -3.612  0.00  0.00    +0.043 A 
ATOM     15  C   UNL     1       8.737   0.003  -3.696  0.00  0.00    +0.024 A 
ATOM     16  C   UNL     1       9.440   0.037  -4.907  0.00  0.00    +0.002 A 
ATOM     17  C   UNL     1       8.810   0.471  -6.067  0.00  0.00    +0.000 A 
ATOM     18  C   UNL     1       7.484   0.881  -6.012  0.00  0.00    +0.002 A 
ATOM     19  C   UNL     1       6.787   0.853  -4.798  0.00  0.00    +0.024 A 
ENDBRANCH   4  14
BRANCH   4  20
ATOM     20  C   UNL     1       7.395   0.186  -1.177  0.00  0.00    +0.043 A 
ATOM     21  C   UNL     1       8.261   1.211  -0.769  0.00  0.00    +0.024 A 
ATOM     22  C   UNL     1       9.047   1.054   0.374  0.00  0.00    +0.002 A 
ATOM     23  C   UNL     1       8.985  -0.133   1.104  0.00  0.00    +0.000 A 
ATOM     24  C   UNL     1       8.129  -1.158   0.702  0.00  0.00    +0.002 A 
ATOM     25  C   UNL     1       7.323  -0.995  -0.427  0.00  0.00    +0.024 A 
ENDBRANCH   4  20
TORSDOF 3
