REMARK  Name = 
REMARK  7 active torsions:
REMARK  status: ('A' for Active; 'I' for Inactive)
REMARK    1  A    between atoms: CA_2  and  C_3
REMARK    2  A    between atoms: CA_2  and  N_5
REMARK    3  A    between atoms: CA_2  and  C_25
REMARK    4  A    between atoms: C_3  and  O_4
REMARK    5  A    between atoms: C_6  and  CA_8
REMARK    6  A    between atoms: C_10  and  C_13
REMARK    7  A    between atoms: C_17  and  C_18
REMARK                            x       y       z     vdW  Elec       q    Type
REMARK                         _______ _______ _______ _____ _____    ______ ____
ROOT
ATOM      1  CA  UNL     1       2.788  -3.262  -1.819  0.00  0.00    +0.102 A 
ATOM      2  N   UNL     1       2.827  -4.618  -1.562  0.00  0.00    -0.356 N 
ATOM      3  H   UNL     1       2.523  -5.025  -0.686  0.00  0.00    +0.165 HD
ATOM      4  C   UNL     1       3.346  -5.295  -2.629  0.00  0.00    +0.093 A 
ATOM      5  C   UNL     1       3.539  -4.391  -3.650  0.00  0.00    +0.021 A 
ATOM      6  C   UNL     1       3.235  -3.101  -3.124  0.00  0.00    +0.042 A 
ENDROOT
BRANCH   5   7
ATOM      7  C   UNL     1       3.989  -4.656  -5.023  0.00  0.00    +0.102 A 
ATOM      8  C   UNL     1       3.725  -5.829  -5.804  0.00  0.00    +0.027 A 
ATOM      9  C   UNL     1       4.386  -5.578  -6.993  0.00  0.00    +0.114 A 
ATOM     10  N   UNL     1       4.959  -4.349  -6.872  0.00  0.00    -0.284 N 
ATOM     11  H   UNL     1       5.515  -3.850  -7.560  0.00  0.00    +0.188 HD
ATOM     12  N   UNL     1       4.715  -3.755  -5.697  0.00  0.00    -0.173 NA
BRANCH   8  13
ATOM     13  C   UNL     1       2.923  -7.036  -5.595  0.00  0.00    -0.013 A 
ATOM     14  C   UNL     1       3.272  -8.250  -6.208  0.00  0.00    +0.028 A 
ATOM     15  C   UNL     1       2.472  -9.383  -6.046  0.00  0.00    +0.042 A 
ATOM     16 CL   UNL     1       2.881 -10.842  -6.864  0.00  0.00    -0.084 Cl
ATOM     17  C   UNL     1       1.335  -9.342  -5.244  0.00  0.00    +0.020 A 
ATOM     18  C   UNL     1       0.982  -8.150  -4.619  0.00  0.00    +0.002 A 
ATOM     19  C   UNL     1       1.755  -7.002  -4.819  0.00  0.00    +0.009 A 
ENDBRANCH   8  13
ENDBRANCH   5   7
BRANCH   1  22
ATOM     20  N   UNL     1       2.368  -1.011  -1.108  0.00  0.00    -0.301 N 
ATOM     21  H   UNL     1       2.637  -0.728  -2.038  0.00  0.00    +0.150 HD
ATOM     22  C   UNL     1       2.332  -2.345  -0.794  0.00  0.00    +0.261 C 
ATOM     23  O   UNL     1       1.931  -2.752   0.292  0.00  0.00    -0.269 OA
BRANCH  20  24
ATOM     24  CA  UNL     1       1.904   0.001  -0.168  0.00  0.00    +0.129 C 
BRANCH  24  25
ATOM     25  C   UNL     1       3.006   0.436   0.787  0.00  0.00    -0.023 A 
ATOM     26  C   UNL     1       4.188   1.041   0.326  0.00  0.00    +0.008 A 
ATOM     27  C   UNL     1       5.143   1.516   1.229  0.00  0.00    +0.040 A 
ATOM     28  C   UNL     1       4.930   1.383   2.598  0.00  0.00    +0.142 A 
ATOM     29  F   UNL     1       5.847   1.875   3.444  0.00  0.00    -0.204 F 
ATOM     30  C   UNL     1       3.782   0.759   3.074  0.00  0.00    +0.076 A 
ATOM     31 CL   UNL     1       3.510   0.592   4.767  0.00  0.00    -0.081 Cl
ATOM     32  C   UNL     1       2.826   0.281   2.175  0.00  0.00    +0.028 A 
ENDBRANCH  24  25
BRANCH  24  33
ATOM     33  C   UNL     1       1.303   1.222  -0.899  0.00  0.00    +0.182 C 
BRANCH  33  34
ATOM     34  O   UNL     1       0.163   0.858  -1.678  0.00  0.00    -0.393 OA
ATOM     35  H   UNL     1      -0.527   0.551  -1.063  0.00  0.00    +0.209 HD
ENDBRANCH  33  34
ENDBRANCH  24  33
ENDBRANCH  20  24
ENDBRANCH   1  22
TORSDOF 7
