REMARK  Name = 
REMARK  7 active torsions:
REMARK  status: ('A' for Active; 'I' for Inactive)
REMARK    1  A    between atoms: C_1  and  N_2
REMARK    2  A    between atoms: N_5  and  C_6
REMARK    3  A    between atoms: C_6  and  C_7
REMARK    4  A    between atoms: C_7  and  N_8
REMARK    5  A    between atoms: C_12  and  N_13
REMARK    6  A    between atoms: N_13  and  C_14
REMARK    7  A    between atoms: C_21  and  C_24
REMARK                            x       y       z     vdW  Elec       q    Type
REMARK                         _______ _______ _______ _____ _____    ______ ____
ROOT
ATOM      1  N   UNL     1       6.692   0.415  -3.810  0.00  0.00    -0.314 N 
ATOM      2  C   UNL     1       7.473   1.536  -3.750  0.00  0.00    +0.167 A 
ATOM      3  C   UNL     1       8.773   1.054  -3.701  0.00  0.00    +0.148 A 
ATOM      4  C   UNL     1       9.821   1.995  -3.645  0.00  0.00    +0.151 A 
ATOM      5  N   UNL     1       9.483   3.313  -3.629  0.00  0.00    -0.201 NA
ATOM      6  C   UNL     1       8.163   3.648  -3.684  0.00  0.00    +0.236 A 
ATOM      7  N   UNL     1       8.788  -0.326  -3.723  0.00  0.00    -0.231 NA
ATOM      8  N   UNL     1       7.089   2.821  -3.751  0.00  0.00    -0.199 NA
ATOM      9  C   UNL     1       7.522  -0.676  -3.787  0.00  0.00    +0.201 A 
ENDROOT
BRANCH   6  10
ATOM     10  C   UNL     1       7.863   5.062  -3.688  0.00  0.00    +0.140 C 
ATOM     11  N   UNL     1       7.611   6.201  -3.689  0.00  0.00    -0.188 NA
ENDBRANCH   6  10
BRANCH   4  12
ATOM     12  N   UNL     1      11.132   1.555  -3.639  0.00  0.00    -0.324 N 
ATOM     13  H   UNL     1      11.213   0.552  -3.497  0.00  0.00    +0.148 HD
BRANCH  12  14
ATOM     14  C   UNL     1      12.275   2.389  -3.307  0.00  0.00    +0.072 C 
ATOM     15  C   UNL     1      13.549   1.742  -3.889  0.00  0.00    +0.022 C 
ATOM     16  C   UNL     1      14.051   0.515  -3.116  0.00  0.00    +0.002 C 
ATOM     17  C   UNL     1      14.128   0.752  -1.612  0.00  0.00    +0.000 C 
ATOM     18  C   UNL     1      12.816   1.300  -1.066  0.00  0.00    +0.002 C 
ATOM     19  C   UNL     1      12.415   2.583  -1.792  0.00  0.00    +0.022 C 
ENDBRANCH  12  14
ENDBRANCH   4  12
BRANCH   1  20
ATOM     20  C   UNL     1       5.242   0.356  -3.850  0.00  0.00    +0.140 C 
BRANCH  20  21
ATOM     21  C   UNL     1       4.706   0.301  -5.289  0.00  0.00    +0.106 C 
BRANCH  21  26
ATOM     22  C   UNL     1       1.169  -2.486  -7.086  0.00  0.00    +0.105 C 
ATOM     23  N   UNL     1       2.616  -2.337  -6.929  0.00  0.00    -0.303 NA
ATOM     24  C   UNL     1       2.999  -2.329  -5.505  0.00  0.00    +0.099 C 
ATOM     25  C   UNL     1       2.670  -1.012  -4.763  0.00  0.00    +0.100 C 
ATOM     26  N   UNL     1       3.234   0.201  -5.394  0.00  0.00    -0.298 NA
ATOM     27  C   UNL     1       2.815   0.211  -6.819  0.00  0.00    +0.100 C 
ATOM     28  C   UNL     1       3.100  -1.106  -7.589  0.00  0.00    +0.099 C 
ENDBRANCH  21  26
ENDBRANCH  20  21
ENDBRANCH   1  20
TORSDOF 6
