REMARK  Name = 
REMARK  25 active torsions:
REMARK  status: ('A' for Active; 'I' for Inactive)
REMARK    1  A    between atoms: C_2  and  O_3
REMARK    2  A    between atoms: C_2  and  C_4
REMARK    3  A    between atoms: C_2  and  C_6
REMARK    4  A    between atoms: C_4  and  O_5
REMARK    5  A    between atoms: C_6  and  O_7
REMARK    6  A    between atoms: O_7  and  P_8
REMARK    7  A    between atoms: P_8  and  O_11
REMARK    8  A    between atoms: O_11  and  C_12
REMARK    9  A    between atoms: C_12  and  C_13
REMARK   10  A    between atoms: C_13  and  C_15
REMARK   11  A    between atoms: C_13  and  O_23
REMARK   12  A    between atoms: C_15  and  O_16
REMARK   13  A    between atoms: O_16  and  C_17
REMARK   14  A    between atoms: C_17  and  C_19
REMARK   15  A    between atoms: C_19  and  C_20
REMARK   16  A    between atoms: C_20  and  C_21
REMARK   17  A    between atoms: C_21  and  C_22
REMARK   18  A    between atoms: O_23  and  C_24
REMARK   19  A    between atoms: C_24  and  C_26
REMARK   20  A    between atoms: C_26  and  C_27
REMARK   21  A    between atoms: C_27  and  C_28
REMARK   22  A    between atoms: C_28  and  C_29
REMARK   23  A    between atoms: C_29  and  C_30
REMARK   24  A    between atoms: C_30  and  C_31
REMARK   25  A    between atoms: C_31  and  C_32
REMARK                            x       y       z     vdW  Elec       q    Type
REMARK                         _______ _______ _______ _____ _____    ______ ____
ROOT
ATOM      1  C   UNL     1       6.988   4.496  -3.941  0.00  0.00    +0.240 C 
ENDROOT
BRANCH   1   2
ATOM      2  C   UNL     1       6.379   5.864  -3.611  0.00  0.00    +0.279 C 
BRANCH   2   3
ATOM      3  O   UNL     1       6.912   6.383  -2.377  0.00  0.00    -0.461 OA
BRANCH   3   4
ATOM      4  C   UNL     1       7.672   7.505  -2.442  0.00  0.00    +0.307 C 
ATOM      5  O   UNL     1       7.913   8.158  -3.449  0.00  0.00    -0.251 OA
BRANCH   4   6
ATOM      6  C   UNL     1       8.180   7.876  -1.070  0.00  0.00    +0.120 C 
BRANCH   6   7
ATOM      7  C   UNL     1       9.130   6.810  -0.534  0.00  0.00    +0.011 C 
BRANCH   7   8
ATOM      8  C   UNL     1       9.699   7.190   0.832  0.00  0.00    -0.003 C 
ATOM      9  C   UNL     1      10.632   6.108   1.352  0.00  0.00    +0.004 C 
ENDBRANCH   7   8
ENDBRANCH   6   7
ENDBRANCH   4   6
ENDBRANCH   3   4
ENDBRANCH   2   3
ENDBRANCH   1   2
BRANCH   1  10
ATOM     10  C   UNL     1       6.750   3.441  -2.863  0.00  0.00    +0.216 C 
BRANCH  10  11
ATOM     11  O   UNL     1       5.372   3.240  -2.599  0.00  0.00    -0.324 OA
BRANCH  11  12
ATOM     12  P   UNL     1       5.081   1.981  -1.606  0.00  0.00    +0.213 P 
ATOM     13  O   UNL     1       5.482   0.720  -2.341  0.00  0.00    -0.517 OA
ATOM     14  O   UNL     1       5.631   2.312  -0.251  0.00  0.00    -0.437 OA
BRANCH  12  15
ATOM     15  O   UNL     1       3.469   1.999  -1.558  0.00  0.00    -0.325 OA
BRANCH  15  16
ATOM     16  C   UNL     1       2.704   2.069  -2.746  0.00  0.00    +0.201 C 
BRANCH  16  17
ATOM     17  C   UNL     1       2.929   1.002  -3.833  0.00  0.00    +0.166 C 
BRANCH  17  18
ATOM     18  O   UNL     1       4.207   1.114  -4.465  0.00  0.00    -0.387 OA
ATOM     19  H   UNL     1       4.875   0.855  -3.779  0.00  0.00    +0.210 HD
ENDBRANCH  17  18
BRANCH  17  20
ATOM     20  C   UNL     1       2.661  -0.450  -3.416  0.00  0.00    +0.189 C 
BRANCH  20  21
ATOM     21  O   UNL     1       3.455  -0.944  -2.348  0.00  0.00    -0.392 OA
ATOM     22  H   UNL     1       4.311  -0.444  -2.338  0.00  0.00    +0.210 HD
ENDBRANCH  20  21
ENDBRANCH  17  20
ENDBRANCH  16  17
ENDBRANCH  15  16
ENDBRANCH  12  15
ENDBRANCH  11  12
ENDBRANCH  10  11
ENDBRANCH   1  10
BRANCH   1  23
ATOM     23  O   UNL     1       8.424   4.648  -4.059  0.00  0.00    -0.456 OA
BRANCH  23  24
ATOM     24  C   UNL     1       8.990   4.458  -5.276  0.00  0.00    +0.308 C 
ATOM     25  O   UNL     1       8.396   4.232  -6.319  0.00  0.00    -0.251 OA
BRANCH  24  26
ATOM     26  C   UNL     1      10.493   4.577  -5.160  0.00  0.00    +0.120 C 
BRANCH  26  27
ATOM     27  C   UNL     1      11.058   5.637  -6.101  0.00  0.00    +0.011 C 
BRANCH  27  28
ATOM     28  C   UNL     1      10.541   7.042  -5.780  0.00  0.00    +0.001 C 
BRANCH  28  29
ATOM     29  C   UNL     1      11.140   8.082  -6.727  0.00  0.00    +0.000 C 
BRANCH  29  30
ATOM     30  C   UNL     1      10.596   9.481  -6.434  0.00  0.00    -0.000 C 
BRANCH  30  31
ATOM     31  C   UNL     1      11.190  10.516  -7.389  0.00  0.00    -0.003 C 
ATOM     32  C   UNL     1      10.654  11.910  -7.105  0.00  0.00    +0.004 C 
ENDBRANCH  30  31
ENDBRANCH  29  30
ENDBRANCH  28  29
ENDBRANCH  27  28
ENDBRANCH  26  27
ENDBRANCH  24  26
ENDBRANCH  23  24
ENDBRANCH   1  23
TORSDOF 23
