REMARK  Name = 
REMARK  1 active torsions:
REMARK  status: ('A' for Active; 'I' for Inactive)
REMARK    1  A    between atoms: C_4  and  C_9
REMARK                            x       y       z     vdW  Elec       q    Type
REMARK                         _______ _______ _______ _____ _____    ______ ____
ROOT
ATOM      1  N   UNL     1       1.390  -0.176  -0.924  0.00  0.00    -0.327 N 
ATOM      2  H   UNL     1       0.898  -0.967  -0.531  0.00  0.00    +0.145 HD
ATOM      3  H   UNL     1       0.951   0.729  -0.841  0.00  0.00    +0.145 HD
ATOM      4  C   UNL     1       2.686  -0.138  -0.448  0.00  0.00    +0.217 A 
ATOM      5  N   UNL     1       3.195  -1.272   0.002  0.00  0.00    -0.181 NA
ATOM      6  C   UNL     1       4.423  -1.180   0.480  0.00  0.00    +0.217 A 
ATOM      7  N   UNL     1       5.029  -2.343   0.916  0.00  0.00    -0.327 N 
ATOM      8  H   UNL     1       4.617  -3.139   0.448  0.00  0.00    +0.145 HD
ATOM      9  H   UNL     1       6.034  -2.246   0.845  0.00  0.00    +0.145 HD
ATOM     10  N   UNL     1       5.142  -0.075   0.521  0.00  0.00    -0.195 NA
ATOM     11  C   UNL     1       4.559   1.006   0.013  0.00  0.00    +0.168 A 
ATOM     12  N   UNL     1       3.308   1.030  -0.455  0.00  0.00    -0.195 NA
ENDROOT
BRANCH  11  13
ATOM     13  C   UNL     1       5.325   2.270  -0.034  0.00  0.00    +0.034 A 
ATOM     14  C   UNL     1       6.719   2.355  -0.230  0.00  0.00    +0.029 A 
ATOM     15 BR   UNL     1       7.852   0.848  -0.531  0.00  0.00    -0.050 Br
ATOM     16  C   UNL     1       7.373   3.597  -0.284  0.00  0.00    +0.024 A 
ATOM     17  C   UNL     1       6.663   4.799  -0.173  0.00  0.00    -0.017 A 
ATOM     18  C   UNL     1       5.269   4.753   0.020  0.00  0.00    -0.017 A 
ATOM     19  C   UNL     1       4.555   5.960   0.119  0.00  0.00    +0.008 A 
ATOM     20  C   UNL     1       5.211   7.189   0.011  0.00  0.00    +0.001 A 
ATOM     21  C   UNL     1       6.587   7.229  -0.186  0.00  0.00    +0.001 A 
ATOM     22  C   UNL     1       7.311   6.040  -0.271  0.00  0.00    +0.008 A 
ATOM     23  C   UNL     1       4.629   3.499   0.096  0.00  0.00    +0.021 A 
ENDBRANCH  11  13
TORSDOF 1
