REMARK  Name = 
REMARK  7 active torsions:
REMARK  status: ('A' for Active; 'I' for Inactive)
REMARK    1  A    between atoms: N_4  and  C_5
REMARK    2  A    between atoms: C_5  and  C_6
REMARK    3  A    between atoms: C_6  and  C_7
REMARK    4  A    between atoms: C_7  and  C_8
REMARK    5  A    between atoms: C_8  and  N_9
REMARK    6  A    between atoms: C_10  and  C_12
REMARK    7  A    between atoms: C_15  and  C_17
REMARK                            x       y       z     vdW  Elec       q    Type
REMARK                         _______ _______ _______ _____ _____    ______ ____
ROOT
ATOM      1  N   UNL     1       8.714  -3.811  -2.047  0.00  0.00    -0.310 N 
ATOM      2  H   UNL     1       9.324  -3.437  -2.767  0.00  0.00    +0.149 HD
ATOM      3  C   UNL     1       9.318  -4.440  -0.982  0.00  0.00    +0.263 C 
ATOM      4  O   UNL     1       8.691  -4.913  -0.038  0.00  0.00    -0.269 OA
ENDROOT
BRANCH   3   5
ATOM      5  C   UNL     1      10.781  -4.509  -1.067  0.00  0.00    +0.133 A 
ATOM      6  N   UNL     1      11.520  -3.929  -2.113  0.00  0.00    -0.233 NA
ATOM      7  C   UNL     1      12.809  -4.163  -1.927  0.00  0.00    +0.128 A 
ATOM      8  S   UNL     1      13.203  -5.075  -0.522  0.00  0.00    -0.073 S 
ATOM      9  C   UNL     1      11.547  -5.163  -0.120  0.00  0.00    +0.080 A 
BRANCH   7  10
ATOM     10  C   UNL     1      13.885  -3.677  -2.866  0.00  0.00    +0.103 A 
ATOM     11  N   UNL     1      15.230  -3.958  -2.658  0.00  0.00    -0.245 NA
ATOM     12  C   UNL     1      15.949  -3.424  -3.621  0.00  0.00    +0.156 A 
ATOM     13  S   UNL     1      15.079  -2.556  -4.815  0.00  0.00    -0.083 S 
ATOM     14  C   UNL     1      13.617  -2.922  -3.990  0.00  0.00    +0.077 A 
ENDBRANCH   7  10
ENDBRANCH   3   5
BRANCH   1  15
ATOM     15  C   UNL     1       7.275  -3.668  -2.141  0.00  0.00    +0.104 C 
BRANCH  15  16
ATOM     16  C   UNL     1       6.750  -2.439  -1.401  0.00  0.00    +0.022 C 
BRANCH  16  17
ATOM     17  C   UNL     1       7.212  -1.128  -2.042  0.00  0.00    +0.038 C 
BRANCH  17  18
ATOM     18  C   UNL     1       6.624   0.079  -1.311  0.00  0.00    +0.196 C 
BRANCH  18  23
ATOM     19  N   UNL     1       7.340   3.522  -2.059  0.00  0.00    -0.289 N 
ATOM     20  H   UNL     1       7.434   3.377  -3.056  0.00  0.00    +0.255 HD
ATOM     21  H   UNL     1       6.956   4.436  -1.862  0.00  0.00    +0.255 HD
ATOM     22  C   UNL     1       6.713   2.507  -1.432  0.00  0.00    +0.376 C 
ATOM     23  N   UNL     1       7.005   1.309  -1.991  0.00  0.00    -0.276 N 
ATOM     24  H   UNL     1       7.930   1.278  -2.401  0.00  0.00    +0.258 HD
ATOM     25  N   UNL     1       5.938   2.678  -0.426  0.00  0.00    -0.130 NA
ATOM     26  H   UNL     1       5.905   3.665  -0.178  0.00  0.00    +0.306 HD
ENDBRANCH  18  23
ENDBRANCH  17  18
ENDBRANCH  16  17
ENDBRANCH  15  16
ENDBRANCH   1  15
TORSDOF 7
