REMARK  Name = 
REMARK  4 active torsions:
REMARK  status: ('A' for Active; 'I' for Inactive)
REMARK    1  A    between atoms: C_2  and  C_20
REMARK    2  A    between atoms: C_8  and  N_9
REMARK    3  A    between atoms: C_8  and  C_10
REMARK    4  A    between atoms: C_10  and  C_11
REMARK                            x       y       z     vdW  Elec       q    Type
REMARK                         _______ _______ _______ _____ _____    ______ ____
ROOT
ATOM      1  C   UNL     1       2.123  -0.037   0.147  0.00  0.00    +0.158 C 
ATOM      2  N   UNL     1       2.645   1.136  -0.538  0.00  0.00    -0.223 N 
ATOM      3  N   UNL     1       3.692   0.805  -1.397  0.00  0.00    -0.224 NA
ATOM      4  C   UNL     1       3.915   1.714  -2.511  0.00  0.00    +0.108 C 
ATOM      5  C   UNL     1       3.959   3.138  -1.962  0.00  0.00    +0.049 C 
ATOM      6  C   UNL     1       2.625   3.513  -1.292  0.00  0.00    +0.100 C 
ATOM      7  C   UNL     1       3.478  -0.587  -1.800  0.00  0.00    +0.108 C 
ATOM      8  C   UNL     1       2.226   2.426  -0.254  0.00  0.00    +0.250 C 
ATOM      9  O   UNL     1       1.498   2.655   0.715  0.00  0.00    -0.272 OA
ATOM     10  C   UNL     1       2.622  -1.207  -0.693  0.00  0.00    +0.048 C 
ENDROOT
BRANCH   6  11
ATOM     11  N   UNL     1       2.788   4.817  -0.597  0.00  0.00    -0.317 NA
ATOM     12  H   UNL     1       3.357   4.691   0.240  0.00  0.00    +0.119 HD
ATOM     13  H   UNL     1       3.284   5.469  -1.202  0.00  0.00    +0.119 HD
ENDBRANCH   6  11
BRANCH   1  14
ATOM     14  C   UNL     1       2.685  -0.092   1.557  0.00  0.00    +0.247 C 
ATOM     15  O   UNL     1       2.519  -1.048   2.311  0.00  0.00    -0.299 OA
ENDBRANCH   1  14
BRANCH   6  16
ATOM     16  C   UNL     1       1.420   3.578  -2.278  0.00  0.00    +0.066 C 
BRANCH  16  17
ATOM     17  C   UNL     1       1.529   4.552  -3.430  0.00  0.00    -0.045 A 
ATOM     18  C   UNL     1       1.117   5.882  -3.265  0.00  0.00    +0.004 A 
ATOM     19  C   UNL     1       1.191   6.785  -4.326  0.00  0.00    +0.000 A 
ATOM     20  C   UNL     1       1.686   6.371  -5.561  0.00  0.00    +0.000 A 
ATOM     21  C   UNL     1       2.098   5.052  -5.738  0.00  0.00    +0.000 A 
ATOM     22  C   UNL     1       2.014   4.145  -4.680  0.00  0.00    +0.004 A 
ENDBRANCH  16  17
ENDBRANCH   6  16
TORSDOF 4
