REMARK  Name = 
REMARK  5 active torsions:
REMARK  status: ('A' for Active; 'I' for Inactive)
REMARK    1  A    between atoms: C_2  and  C_3
REMARK    2  A    between atoms: N_11  and  N_12
REMARK    3  A    between atoms: C_13  and  C_15
REMARK    4  A    between atoms: C_20  and  S_22
REMARK    5  A    between atoms: S_22  and  N_23
REMARK                            x       y       z     vdW  Elec       q    Type
REMARK                         _______ _______ _______ _____ _____    ______ ____
ROOT
ATOM      1  N   UNL     1       2.296  -2.479   0.628  0.00  0.00    -0.230 N 
ATOM      2  H   UNL     1       1.619  -2.690   1.352  0.00  0.00    +0.173 HD
ATOM      3  C   UNL     1       2.312  -3.123  -0.606  0.00  0.00    +0.260 C 
ATOM      4  O   UNL     1       2.918  -2.739  -1.598  0.00  0.00    -0.269 OA
ENDROOT
BRANCH   1   7
ATOM      5  C   UNL     1       2.303  -0.035   0.089  0.00  0.00    +0.096 C 
ATOM      6  C   UNL     1       0.774  -0.040   0.092  0.00  0.00    +0.030 C 
ATOM      7  N   UNL     1       2.892  -1.237   0.711  0.00  0.00    -0.247 N 
ATOM      8  C   UNL     1       3.493  -0.846   1.918  0.00  0.00    +0.051 A 
ATOM      9  C   UNL     1       3.569   0.545   2.022  0.00  0.00    -0.023 A 
ATOM     10  C   UNL     1       4.252   1.166   3.056  0.00  0.00    +0.005 A 
ATOM     11  C   UNL     1       4.853   0.362   4.024  0.00  0.00    +0.000 A 
ATOM     12  C   UNL     1       4.742  -1.035   3.955  0.00  0.00    +0.002 A 
ATOM     13  C   UNL     1       4.058  -1.646   2.897  0.00  0.00    +0.025 A 
ATOM     14  C   UNL     1       2.867   1.185   0.868  0.00  0.00    +0.061 C 
ENDBRANCH   1   7
BRANCH   3  15
ATOM     15  C   UNL     1       1.419  -4.310  -0.719  0.00  0.00    +0.040 A 
ATOM     16  C   UNL     1       1.028  -5.054   0.396  0.00  0.00    +0.043 A 
ATOM     17  C   UNL     1       0.044  -6.049   0.266  0.00  0.00    +0.124 A 
ATOM     18  C   UNL     1      -0.518  -6.333  -0.980  0.00  0.00    +0.067 A 
ATOM     19 CL   UNL     1      -1.790  -7.473  -1.233  0.00  0.00    -0.082 Cl
ATOM     20  C   UNL     1      -0.056  -5.648  -2.108  0.00  0.00    +0.023 A 
ATOM     21  C   UNL     1       0.906  -4.641  -1.981  0.00  0.00    +0.014 A 
BRANCH  17  22
ATOM     22  S   UNL     1      -0.496  -6.866   1.735  0.00  0.00    +0.057 S 
ATOM     23  O   UNL     1      -1.905  -6.627   1.910  0.00  0.00    -0.153 OA
ATOM     24  O   UNL     1       0.463  -6.596   2.784  0.00  0.00    -0.153 OA
BRANCH  22  25
ATOM     25  N   UNL     1      -0.286  -8.490   1.380  0.00  0.00    -0.203 NA
ATOM     26  H   UNL     1      -1.195  -8.955   1.331  0.00  0.00    +0.144 HD
ATOM     27  H   UNL     1       0.372  -8.919   2.027  0.00  0.00    +0.144 HD
ENDBRANCH  22  25
ENDBRANCH  17  22
ENDBRANCH   3  15
TORSDOF 4
