REMARK  Name = 
REMARK  8 active torsions:
REMARK  status: ('A' for Active; 'I' for Inactive)
REMARK    1  A    between atoms: C_2  and  N_3
REMARK    2  A    between atoms: C_2  and  C_4
REMARK    3  A    between atoms: C_2  and  C_23
REMARK    4  A    between atoms: C_4  and  C_5
REMARK    5  A    between atoms: C_11  and  C_13
REMARK    6  A    between atoms: C_13  and  N_14
REMARK    7  A    between atoms: C_15  and  C_17
REMARK    8  A    between atoms: C_23  and  C_24
REMARK                            x       y       z     vdW  Elec       q    Type
REMARK                         _______ _______ _______ _____ _____    ______ ____
ROOT
ATOM      1  C   UNL     1       2.012  -2.673   0.512  0.00  0.00    +0.217 C 
ATOM      2  N   UNL     1       2.413  -3.942   0.140  0.00  0.00    -0.297 N 
ATOM      3  C   UNL     1       2.719  -4.983   1.124  0.00  0.00    +0.093 C 
ATOM      4  C   UNL     1       2.710  -6.294   0.318  0.00  0.00    +0.025 C 
ATOM      5  C   UNL     1       2.242  -5.909  -1.083  0.00  0.00    +0.021 C 
ATOM      6  C   UNL     1       2.613  -4.444  -1.206  0.00  0.00    +0.108 C 
ATOM      7  O   UNL     1       1.777  -2.394   1.689  0.00  0.00    -0.276 OA
ENDROOT
BRANCH   1   8
ATOM      8  C   UNL     1       1.893  -1.655  -0.613  0.00  0.00    +0.114 C 
BRANCH   8   9
ATOM      9  C   UNL     1       1.499  -0.230  -0.174  0.00  0.00    +0.064 C 
BRANCH   9  10
ATOM     10  N   UNL     1       1.310   0.564  -1.410  0.00  0.00    -0.327 NA
ATOM     11  H   UNL     1       1.060   1.522  -1.159  0.00  0.00    +0.118 HD
ATOM     12  H   UNL     1       2.201   0.644  -1.900  0.00  0.00    +0.118 HD
ENDBRANCH   9  10
BRANCH   9  13
ATOM     13  C   UNL     1       2.565   0.424   0.743  0.00  0.00    +0.057 C 
BRANCH  13  14
ATOM     14  C   UNL     1       2.307   1.830   1.251  0.00  0.00    -0.011 A 
ATOM     15  C   UNL     1       1.033   2.310   1.580  0.00  0.00    +0.006 A 
ATOM     16  C   UNL     1       0.873   3.586   2.141  0.00  0.00    +0.000 A 
ATOM     17  C   UNL     1       1.985   4.390   2.394  0.00  0.00    +0.003 A 
ATOM     18  C   UNL     1       3.257   3.923   2.079  0.00  0.00    +0.038 A 
ATOM     19  C   UNL     1       3.407   2.657   1.518  0.00  0.00    +0.127 A 
ATOM     20  F   UNL     1       4.648   2.226   1.247  0.00  0.00    -0.205 F 
ENDBRANCH  13  14
ENDBRANCH   9  13
ENDBRANCH   8   9
ENDBRANCH   1   8
BRANCH   3  21
ATOM     21  C   UNL     1       4.081  -4.724   1.806  0.00  0.00    +0.127 C 
BRANCH  21  22
ATOM     22  N   UNL     1       4.493  -5.793   2.701  0.00  0.00    -0.310 N 
ATOM     23  H   UNL     1       3.882  -6.021   3.473  0.00  0.00    +0.149 HD
ATOM     24  C   UNL     1       5.639  -6.530   2.479  0.00  0.00    +0.244 C 
ATOM     25  O   UNL     1       6.372  -6.366   1.511  0.00  0.00    -0.270 OA
BRANCH  24  26
ATOM     26  C   UNL     1       5.935  -7.610   3.461  0.00  0.00    +0.037 A 
ATOM     27  C   UNL     1       5.529  -7.537   4.799  0.00  0.00    +0.013 A 
ATOM     28  C   UNL     1       5.809  -8.592   5.672  0.00  0.00    +0.001 A 
ATOM     29  C   UNL     1       6.501  -9.714   5.216  0.00  0.00    +0.000 A 
ATOM     30  C   UNL     1       6.931  -9.780   3.892  0.00  0.00    +0.001 A 
ATOM     31  C   UNL     1       6.654  -8.728   3.017  0.00  0.00    +0.013 A 
ENDBRANCH  24  26
ENDBRANCH  21  22
ENDBRANCH   3  21
TORSDOF 8
