REMARK  Name = 
REMARK  3 active torsions:
REMARK  status: ('A' for Active; 'I' for Inactive)
REMARK    1  A    between atoms: O_1  and  C_2
REMARK    2  A    between atoms: C_9  and  C_11
REMARK    3  A    between atoms: C_16  and  O_17
REMARK                            x       y       z     vdW  Elec       q    Type
REMARK                         _______ _______ _______ _____ _____    ______ ____
ROOT
ATOM      1  C   UNL     1       7.775  -2.286  -0.039  0.00  0.00    +0.045 A 
ATOM      2  C   UNL     1       8.970  -1.557   0.125  0.00  0.00    +0.014 A 
ATOM      3  C   UNL     1      10.188  -2.201   0.298  0.00  0.00    +0.001 A 
ATOM      4  C   UNL     1      10.230  -3.589   0.315  0.00  0.00    +0.012 A 
ATOM      5  C   UNL     1       9.069  -4.363   0.120  0.00  0.00    +0.024 A 
ATOM      6  C   UNL     1       9.133  -5.774   0.117  0.00  0.00    +0.125 A 
ATOM      7  C   UNL     1       8.009  -6.559  -0.124  0.00  0.00    +0.046 A 
ATOM      8  C   UNL     1       6.793  -5.940  -0.374  0.00  0.00    +0.004 A 
ATOM      9  C   UNL     1       6.701  -4.546  -0.355  0.00  0.00    +0.009 A 
ATOM     10  C   UNL     1       7.821  -3.715  -0.088  0.00  0.00    -0.002 A 
ENDROOT
BRANCH   1  16
ATOM     11  C   UNL     1       2.431   0.101   0.480  0.00  0.00    +0.120 A 
ATOM     12  C   UNL     1       2.992   1.205  -0.167  0.00  0.00    +0.048 A 
ATOM     13  C   UNL     1       4.333   1.191  -0.578  0.00  0.00    +0.035 A 
ATOM     14  C   UNL     1       5.086   0.039  -0.322  0.00  0.00    +0.110 A 
ATOM     15  N   UNL     1       6.394  -0.263  -0.598  0.00  0.00    -0.209 NA
ATOM     16  C   UNL     1       6.546  -1.491  -0.128  0.00  0.00    +0.229 A 
ATOM     17  O   UNL     1       5.422  -2.008   0.471  0.00  0.00    -0.435 OA
ATOM     18  C   UNL     1       4.485  -1.025   0.329  0.00  0.00    +0.159 A 
ATOM     19  C   UNL     1       3.163  -1.056   0.757  0.00  0.00    +0.093 A 
BRANCH  11  20
ATOM     20  O   UNL     1       1.115   0.198   0.840  0.00  0.00    -0.507 OA
ATOM     21  H   UNL     1       0.841  -0.633   1.262  0.00  0.00    +0.292 HD
ENDBRANCH  11  20
ENDBRANCH   1  16
BRANCH   6  22
ATOM     22  O   UNL     1      10.336  -6.392   0.356  0.00  0.00    -0.506 OA
ATOM     23  H   UNL     1      10.202  -7.353   0.355  0.00  0.00    +0.292 HD
ENDBRANCH   6  22
TORSDOF 3
