REMARK  Name = 
REMARK  4 active torsions:
REMARK  status: ('A' for Active; 'I' for Inactive)
REMARK    1  A    between atoms: C_2  and  C_3
REMARK    2  A    between atoms: C_2  and  C_4
REMARK    3  A    between atoms: C_2  and  C_9
REMARK    4  A    between atoms: C_12  and  O_13
REMARK                            x       y       z     vdW  Elec       q    Type
REMARK                         _______ _______ _______ _____ _____    ______ ____
ROOT
ATOM      1  C   UNL     1       2.558  -0.970  -1.161  0.00  0.00    +0.034 C 
ATOM      2  C   UNL     1       3.367  -0.414  -2.275  0.00  0.00    +0.265 C 
ATOM      3  O   UNL     1       3.667   0.763  -2.376  0.00  0.00    -0.268 OA
ATOM      4  N   UNL     1       3.714  -1.429  -3.136  0.00  0.00    -0.176 NA
ATOM      5  C   UNL     1       3.192  -2.493  -2.631  0.00  0.00    +0.065 A 
ATOM      6  C   UNL     1       3.269  -3.875  -3.144  0.00  0.00    +0.029 A 
ATOM      7  C   UNL     1       2.652  -4.850  -2.453  0.00  0.00    +0.047 A 
ATOM      8  C   UNL     1       1.911  -4.596  -1.232  0.00  0.00    +0.118 A 
ATOM      9  C   UNL     1       1.801  -3.363  -0.715  0.00  0.00    +0.055 A 
ATOM     10  C   UNL     1       2.441  -2.278  -1.390  0.00  0.00    +0.010 A 
ENDROOT
BRANCH   1  11
ATOM     11  C   UNL     1       2.052  -0.095  -0.057  0.00  0.00    +0.068 C 
ATOM     12  C   UNL     1       0.520  -0.010  -0.081  0.00  0.00    +0.019 C 
BRANCH  11  13
ATOM     13  C   UNL     1       2.563  -0.483   1.312  0.00  0.00    +0.023 A 
ATOM     14  N   UNL     1       3.750   0.024   1.795  0.00  0.00    -0.364 N 
ATOM     15  H   UNL     1       4.350   0.678   1.306  0.00  0.00    +0.165 HD
ATOM     16  C   UNL     1       4.001  -0.492   3.039  0.00  0.00    +0.083 A 
ATOM     17  C   UNL     1       2.968  -1.337   3.368  0.00  0.00    +0.019 A 
ATOM     18  C   UNL     1       2.056  -1.323   2.288  0.00  0.00    +0.023 A 
ENDBRANCH  11  13
ENDBRANCH   1  11
BRANCH   8  19
ATOM     19  O   UNL     1       1.346  -5.711  -0.669  0.00  0.00    -0.507 OA
ATOM     20  H   UNL     1       0.899  -5.453   0.154  0.00  0.00    +0.292 HD
ENDBRANCH   8  19
TORSDOF 3
