REMARK  Name = 
REMARK  6 active torsions:
REMARK  status: ('A' for Active; 'I' for Inactive)
REMARK    1  A    between atoms: C_2  and  C_3
REMARK    2  A    between atoms: C_3  and  C_4
REMARK    3  A    between atoms: C_6  and  O_8
REMARK    4  A    between atoms: O_8  and  C_9
REMARK    5  A    between atoms: C_9  and  C_10
REMARK    6  A    between atoms: C_9  and  C_11
REMARK                            x       y       z     vdW  Elec       q    Type
REMARK                         _______ _______ _______ _____ _____    ______ ____
ROOT
ATOM      1  C   UNL     1       2.004   0.064   0.089  0.00  0.00    +0.170 C 
ATOM      2  C   UNL     1       2.545  -1.174   0.818  0.00  0.00    +0.238 C 
ATOM      3  O   UNL     1       1.917  -2.229   0.902  0.00  0.00    -0.273 OA
ATOM      4  N   UNL     1       3.873  -1.131   1.160  0.00  0.00    -0.282 N 
ATOM      5  H   UNL     1       4.288  -1.997   1.478  0.00  0.00    +0.155 HD
ATOM      6  C   UNL     1       4.616   0.053   1.138  0.00  0.00    +0.055 A 
ATOM      7  C   UNL     1       3.975   1.289   0.942  0.00  0.00    +0.064 A 
ATOM      8  C   UNL     1       4.734   2.461   1.013  0.00  0.00    +0.063 A 
ATOM      9  C   UNL     1       6.104   2.388   1.241  0.00  0.00    +0.125 A 
ATOM     10  C   UNL     1       6.743   1.165   1.414  0.00  0.00    +0.040 A 
ATOM     11  F   UNL     1       6.826   3.515   1.281  0.00  0.00    -0.205 F 
ATOM     12  C   UNL     1       5.996  -0.010   1.376  0.00  0.00    +0.028 A 
ATOM     13  N   UNL     1       2.569   1.304   0.661  0.00  0.00    -0.224 N 
ATOM     14  C   UNL     1       1.769   2.391   1.005  0.00  0.00    +0.408 C 
ATOM     15  O   UNL     1       2.125   3.314   1.729  0.00  0.00    -0.226 OA
ENDROOT
BRANCH   1  16
ATOM     16  C   UNL     1       2.355  -0.110  -1.407  0.00  0.00    +0.029 C 
ATOM     17  C   UNL     1       1.784   0.967  -2.313  0.00  0.00    +0.006 C 
ENDBRANCH   1  16
BRANCH  14  18
ATOM     18  O   UNL     1       0.516   2.332   0.461  0.00  0.00    -0.447 OA
BRANCH  18  19
ATOM     19  C   UNL     1      -0.353   3.438   0.790  0.00  0.00    +0.172 C 
ATOM     20  C   UNL     1      -1.783   3.018   0.469  0.00  0.00    +0.052 C 
ATOM     21  C   UNL     1       0.021   4.679  -0.018  0.00  0.00    +0.052 C 
ENDBRANCH  18  19
ENDBRANCH  14  18
TORSDOF 3
