REMARK  Name = 
REMARK  4 active torsions:
REMARK  status: ('A' for Active; 'I' for Inactive)
REMARK    1  A    between atoms: C_1  and  O_2
REMARK    2  A    between atoms: O_2  and  C_3
REMARK    3  A    between atoms: C_6  and  N_9
REMARK    4  A    between atoms: C_15  and  C_18
REMARK                            x       y       z     vdW  Elec       q    Type
REMARK                         _______ _______ _______ _____ _____    ______ ____
ROOT
ATOM      1  N   UNL     1       4.220  -3.240  -4.247  0.00  0.00    -0.299 N 
ATOM      2  C   UNL     1       4.582  -2.816  -5.526  0.00  0.00    +0.074 A 
ATOM      3  C   UNL     1       4.902  -1.567  -6.090  0.00  0.00    +0.041 A 
ATOM      4  C   UNL     1       5.205  -1.504  -7.459  0.00  0.00    +0.041 A 
ATOM      5  C   UNL     1       5.247  -2.666  -8.232  0.00  0.00    +0.015 A 
ATOM      6  C   UNL     1       4.989  -3.915  -7.646  0.00  0.00    +0.030 A 
ATOM      7  C   UNL     1       4.658  -3.986  -6.280  0.00  0.00    +0.089 A 
ATOM      8  N   UNL     1       4.404  -5.087  -5.511  0.00  0.00    -0.235 NA
ATOM      9  C   UNL     1       4.176  -4.617  -4.307  0.00  0.00    +0.205 A 
ENDROOT
BRANCH   4  10
ATOM     10  C   UNL     1       5.455  -0.174  -8.032  0.00  0.00    +0.247 A 
ATOM     11  O   UNL     1       5.784  -0.115  -9.348  0.00  0.00    -0.412 OA
ATOM     12  C   UNL     1       5.930   1.216  -9.570  0.00  0.00    +0.264 A 
ATOM     13  S   UNL     1       6.328   1.824 -11.041  0.00  0.00    +0.011 S 
ATOM     14  N   UNL     1       5.687   1.861  -8.396  0.00  0.00    -0.237 N 
ATOM     15  H   UNL     1       5.708   2.861  -8.233  0.00  0.00    +0.193 HD
ATOM     16  N   UNL     1       5.383   0.970  -7.416  0.00  0.00    -0.132 NA
ENDBRANCH   4  10
BRANCH   1  20
ATOM     17  C   UNL     1       3.716  -0.765  -0.851  0.00  0.00    +0.120 A 
ATOM     18  C   UNL     1       3.452  -0.271  -2.124  0.00  0.00    +0.047 A 
ATOM     19  C   UNL     1       3.568  -1.106  -3.237  0.00  0.00    +0.030 A 
ATOM     20  C   UNL     1       3.969  -2.437  -3.095  0.00  0.00    +0.048 A 
ATOM     21  C   UNL     1       4.132  -2.961  -1.805  0.00  0.00    +0.030 A 
ATOM     22  C   UNL     1       4.003  -2.121  -0.690  0.00  0.00    +0.047 A 
BRANCH  17  24
ATOM     23  C   UNL     1       4.100   1.346   0.102  0.00  0.00    +0.277 C 
ATOM     24  O   UNL     1       3.680  -0.007   0.287  0.00  0.00    -0.495 OA
ENDBRANCH  17  24
ENDBRANCH   1  20
TORSDOF 3
