REMARK  Name = 
REMARK  11 active torsions:
REMARK  status: ('A' for Active; 'I' for Inactive)
REMARK    1  A    between atoms: CA_2  and  C_3
REMARK    2  A    between atoms: CA_2  and  N_6
REMARK    3  A    between atoms: CA_2  and  C_14
REMARK    4  A    between atoms: C_3  and  C_4
REMARK    5  A    between atoms: C_4  and  O_5
REMARK    6  A    between atoms: C_7  and  C_9
REMARK    7  A    between atoms: C_9  and  C_10
REMARK    8  A    between atoms: C_10  and  C_11
REMARK    9  A    between atoms: C_11  and  C_12
REMARK   10  A    between atoms: C_12  and  C_13
REMARK   11  A    between atoms: C_14  and  O_15
REMARK                            x       y       z     vdW  Elec       q    Type
REMARK                         _______ _______ _______ _____ _____    ______ ____
ROOT
ATOM      1  CA  UNL     1       2.035  -0.002   0.001  0.00  0.00    +0.184 C 
ENDROOT
BRANCH   1   2
ATOM      2  N   UNL     1       2.542   0.221   1.353  0.00  0.00    -0.302 N 
ATOM      3  H   UNL     1       3.318  -0.357   1.660  0.00  0.00    +0.150 HD
ATOM      4  C   UNL     1       2.051   1.207   2.168  0.00  0.00    +0.214 C 
ATOM      5  O   UNL     1       1.124   1.939   1.838  0.00  0.00    -0.276 OA
BRANCH   4   6
ATOM      6  C   UNL     1       2.717   1.301   3.526  0.00  0.00    +0.096 C 
BRANCH   6   7
ATOM      7  C   UNL     1       4.225   1.542   3.459  0.00  0.00    +0.009 C 
BRANCH   7   8
ATOM      8  C   UNL     1       4.579   2.853   2.754  0.00  0.00    +0.000 C 
BRANCH   8   9
ATOM      9  C   UNL     1       6.093   3.051   2.685  0.00  0.00    -0.003 C 
ATOM     10  C   UNL     1       6.450   4.345   1.972  0.00  0.00    +0.004 C 
ENDBRANCH   8   9
ENDBRANCH   7   8
ENDBRANCH   6   7
ENDBRANCH   4   6
ENDBRANCH   1   2
BRANCH   1  11
ATOM     11  C   UNL     1       2.168  -1.510  -0.233  0.00  0.00    +0.325 C 
ATOM     12  OXT UNL     1       3.234  -2.109  -0.140  0.00  0.00    -0.249 OA
BRANCH  11  13
ATOM     13  O   UNL     1       0.998  -2.149  -0.455  0.00  0.00    -0.479 OA
ATOM     14  H   UNL     1       0.221  -1.560  -0.502  0.00  0.00    +0.295 HD
ENDBRANCH  11  13
ENDBRANCH   1  11
BRANCH   1  15
ATOM     15  C   UNL     1       2.850   0.813  -1.010  0.00  0.00    +0.061 C 
BRANCH  15  16
ATOM     16  C   UNL     1       2.340   0.680  -2.439  0.00  0.00    +0.158 C 
BRANCH  16  17
ATOM     17  O   UNL     1       2.412  -0.662  -2.885  0.00  0.00    -0.395 OA
ATOM     18  H   UNL     1       3.339  -0.962  -2.825  0.00  0.00    +0.209 HD
ENDBRANCH  16  17
ENDBRANCH  15  16
ENDBRANCH   1  15
TORSDOF 10
