REMARK  Name = 
REMARK  7 active torsions:
REMARK  status: ('A' for Active; 'I' for Inactive)
REMARK    1  A    between atoms: C_2  and  C_16
REMARK    2  A    between atoms: N_4  and  C_5
REMARK    3  A    between atoms: C_5  and  C_6
REMARK    4  A    between atoms: N_18  and  C_19
REMARK    5  A    between atoms: C_19  and  C_20
REMARK    6  A    between atoms: C_20  and  C_21
REMARK    7  A    between atoms: C_21  and  S_22
REMARK                            x       y       z     vdW  Elec       q    Type
REMARK                         _______ _______ _______ _____ _____    ______ ____
ROOT
ATOM      1  C   UNL     1       2.150   0.101   0.163  0.00  0.00    +0.155 C 
ATOM      2  N   UNL     1       2.730   1.181  -0.702  0.00  0.00    -0.303 NA
ATOM      3  H   UNL     1       2.241   2.048  -0.471  0.00  0.00    +0.123 HD
ATOM      4  C   UNL     1       2.457   0.859  -2.115  0.00  0.00    +0.097 C 
ATOM      5  C   UNL     1       2.949  -0.548  -2.516  0.00  0.00    +0.100 C 
ATOM      6  N   UNL     1       2.274  -1.575  -1.705  0.00  0.00    -0.295 NA
ATOM      7  C   UNL     1       2.572  -1.321  -0.275  0.00  0.00    +0.113 C 
ENDROOT
BRANCH   1   8
ATOM      8  C   UNL     1       2.605   0.300   1.620  0.00  0.00    +0.231 C 
ATOM      9  N   UNL     1       3.817   0.949   1.745  0.00  0.00    -0.314 N 
ATOM     10  H   UNL     1       4.198   1.330   0.881  0.00  0.00    +0.149 HD
ATOM     11  O   UNL     1       1.976  -0.139   2.578  0.00  0.00    -0.274 OA
BRANCH   9  12
ATOM     12  C   UNL     1       4.442   1.207   3.021  0.00  0.00    +0.105 C 
BRANCH  12  13
ATOM     13  C   UNL     1       5.215   0.001   3.562  0.00  0.00    +0.029 C 
BRANCH  13  14
ATOM     14  C   UNL     1       6.404  -0.353   2.672  0.00  0.00    +0.067 C 
BRANCH  14  15
ATOM     15  S   UNL     1       7.343  -1.748   3.362  0.00  0.00    -0.178 S 
ATOM     16  H   UNL     1       7.720  -1.140   4.497  0.00  0.00    +0.102 HD
ENDBRANCH  14  15
ENDBRANCH  13  14
ENDBRANCH  12  13
ENDBRANCH   9  12
ENDBRANCH   1   8
BRANCH   6  17
ATOM     17  C   UNL     1       2.660  -2.930  -2.127  0.00  0.00    +0.119 C 
BRANCH  17  18
ATOM     18  C   UNL     1       1.871  -4.001  -1.399  0.00  0.00    -0.033 A 
ATOM     19  C   UNL     1       2.524  -4.922  -0.564  0.00  0.00    +0.008 A 
ATOM     20  C   UNL     1       1.785  -5.828   0.198  0.00  0.00    +0.038 A 
ATOM     21  C   UNL     1       0.397  -5.821   0.117  0.00  0.00    +0.123 A 
ATOM     22  F   UNL     1      -0.311  -6.668   0.876  0.00  0.00    -0.205 F 
ATOM     23  C   UNL     1      -0.268  -4.943  -0.730  0.00  0.00    +0.038 A 
ATOM     24  C   UNL     1       0.469  -4.036  -1.492  0.00  0.00    +0.008 A 
ENDBRANCH  17  18
ENDBRANCH   6  17
TORSDOF 7
