REMARK  Name = 
REMARK  18 active torsions:
REMARK  status: ('A' for Active; 'I' for Inactive)
REMARK    1  A    between atoms: C_2  and  C_3
REMARK    2  A    between atoms: C_2  and  C_10
REMARK    3  A    between atoms: C_2  and  O_17
REMARK    4  A    between atoms: C_3  and  O_4
REMARK    5  A    between atoms: O_4  and  C_5
REMARK    6  A    between atoms: C_5  and  C_7
REMARK    7  A    between atoms: C_7  and  C_8
REMARK    8  A    between atoms: C_8  and  C_9
REMARK    9  A    between atoms: C_10  and  O_11
REMARK   10  A    between atoms: O_11  and  P_12
REMARK   11  A    between atoms: P_12  and  O_13
REMARK   12  A    between atoms: P_12  and  O_14
REMARK   13  A    between atoms: P_12  and  O_15
REMARK   14  A    between atoms: P_12  and  O_16
REMARK   15  A    between atoms: O_17  and  C_18
REMARK   16  A    between atoms: C_18  and  C_20
REMARK   17  A    between atoms: C_20  and  C_21
REMARK   18  A    between atoms: C_21  and  C_22
REMARK                            x       y       z     vdW  Elec       q    Type
REMARK                         _______ _______ _______ _____ _____    ______ ____
ROOT
ATOM      1  C   UNL     1       1.989   0.129   0.068  0.00  0.00    +0.240 C 
ENDROOT
BRANCH   1   2
ATOM      2  C   UNL     1       2.403  -1.322  -0.253  0.00  0.00    +0.221 C 
BRANCH   2   3
ATOM      3  O   UNL     1       1.749  -2.239   0.620  0.00  0.00    -0.282 OA
BRANCH   3   4
ATOM      4  P   UNL     1       2.109  -3.880   0.209  0.00  0.00    +0.399 P 
BRANCH   4   5
ATOM      5  O   UNL     1       2.469  -5.522  -0.201  0.00  0.00    -0.302 OA
ATOM      6  H   UNL     1       3.124  -5.831   0.475  0.00  0.00    +0.223 HD
ENDBRANCH   4   5
BRANCH   4   7
ATOM      7  O   UNL     1       3.123  -3.842  -1.167  0.00  0.00    -0.302 OA
ATOM      8  H   UNL     1       4.023  -3.519  -0.902  0.00  0.00    +0.223 HD
ENDBRANCH   4   7
BRANCH   4   9
ATOM      9  O   UNL     1       3.340  -3.420   1.292  0.00  0.00    -0.302 OA
ATOM     10  H   UNL     1       3.056  -3.788   2.168  0.00  0.00    +0.223 HD
ENDBRANCH   4   9
BRANCH   4  11
ATOM     11  O   UNL     1       0.747  -3.489  -0.724  0.00  0.00    -0.302 OA
ATOM     12  H   UNL     1      -0.022  -3.866  -0.225  0.00  0.00    +0.223 HD
ENDBRANCH   4  11
ENDBRANCH   3   4
ENDBRANCH   2   3
ENDBRANCH   1   2
BRANCH   1  13
ATOM     13  C   UNL     1       2.445   0.509   1.487  0.00  0.00    +0.279 C 
BRANCH  13  14
ATOM     14  O   UNL     1       2.097   1.823   1.760  0.00  0.00    -0.461 OA
BRANCH  14  15
ATOM     15  C   UNL     1       1.296   2.232   2.780  0.00  0.00    +0.307 C 
ATOM     16  O   UNL     1       0.782   1.426   3.542  0.00  0.00    -0.251 OA
BRANCH  15  17
ATOM     17  C   UNL     1       1.042   3.700   2.976  0.00  0.00    +0.120 C 
BRANCH  17  18
ATOM     18  C   UNL     1       0.374   4.307   1.739  0.00  0.00    +0.008 C 
ATOM     19  C   UNL     1       0.093   5.793   1.936  0.00  0.00    +0.004 C 
ENDBRANCH  17  18
ENDBRANCH  15  17
ENDBRANCH  14  15
ENDBRANCH  13  14
ENDBRANCH   1  13
BRANCH   1  20
ATOM     20  O   UNL     1       2.564   1.015  -0.835  0.00  0.00    -0.456 OA
BRANCH  20  21
ATOM     21  C   UNL     1       2.301   1.065  -2.171  0.00  0.00    +0.308 C 
ATOM     22  O   UNL     1       1.470   0.323  -2.676  0.00  0.00    -0.251 OA
BRANCH  21  23
ATOM     23  C   UNL     1       3.014   2.060  -3.043  0.00  0.00    +0.120 C 
BRANCH  23  24
ATOM     24  C   UNL     1       4.532   1.873  -2.995  0.00  0.00    +0.008 C 
ATOM     25  C   UNL     1       5.231   2.874  -3.914  0.00  0.00    +0.004 C 
ENDBRANCH  23  24
ENDBRANCH  21  23
ENDBRANCH  20  21
ENDBRANCH   1  20
TORSDOF 16
