REMARK  Name = 
REMARK  11 active torsions:
REMARK  status: ('A' for Active; 'I' for Inactive)
REMARK    1  A    between atoms: CA_2  and  C_3
REMARK    2  A    between atoms: CA_2  and  C_5
REMARK    3  A    between atoms: CA_2  and  N_7
REMARK    4  A    between atoms: C_3  and  C_4
REMARK    5  A    between atoms: C_5  and  O_6
REMARK    6  A    between atoms: C_8  and  C_10
REMARK    7  A    between atoms: C_10  and  C_11
REMARK    8  A    between atoms: C_12  and  C_13
REMARK    9  A    between atoms: C_15  and  C_17
REMARK   10  A    between atoms: C_27  and  O_28
REMARK   11  A    between atoms: O_28  and  C_29
REMARK                            x       y       z     vdW  Elec       q    Type
REMARK                         _______ _______ _______ _____ _____    ______ ____
ROOT
ATOM      1  C   UNL     1       5.947   2.753  -1.610  0.00  0.00    -0.010 A 
ATOM      2  C   UNL     1       6.817   2.266  -2.627  0.00  0.00    +0.008 A 
ATOM      3  C   UNL     1       8.131   2.514  -2.223  0.00  0.00    +0.057 A 
ATOM      4  C   UNL     1       9.207   2.090  -3.030  0.00  0.00    +0.030 A 
ATOM      5  C   UNL     1       8.952   1.488  -4.268  0.00  0.00    +0.048 A 
ATOM      6  C   UNL     1       7.653   1.248  -4.689  0.00  0.00    +0.121 A 
ATOM      7  N   UNL     1       8.087   3.147  -0.969  0.00  0.00    -0.280 N 
ATOM      8  C   UNL     1       9.200   3.604  -0.207  0.00  0.00    +0.263 C 
ATOM      9  O   UNL     1       9.073   3.700   1.012  0.00  0.00    -0.267 OA
ATOM     10  C   UNL     1       6.587   1.625  -3.866  0.00  0.00    +0.056 A 
ATOM     11  C   UNL     1       6.744   3.257  -0.593  0.00  0.00    +0.028 A 
ATOM     12  C   UNL     1       6.320   3.895   0.693  0.00  0.00    +0.064 C 
ENDROOT
BRANCH   8  13
ATOM     13  C   UNL     1      10.509   3.988  -0.783  0.00  0.00    +0.040 A 
ATOM     14  C   UNL     1      11.687   3.577  -0.151  0.00  0.00    +0.015 A 
ATOM     15  C   UNL     1      12.921   3.855  -0.744  0.00  0.00    +0.021 A 
ATOM     16  C   UNL     1      12.969   4.552  -1.952  0.00  0.00    +0.041 A 
ATOM     17 CL   UNL     1      14.481   4.823  -2.725  0.00  0.00    -0.084 Cl
ATOM     18  C   UNL     1      11.798   5.018  -2.549  0.00  0.00    +0.021 A 
ATOM     19  C   UNL     1      10.564   4.757  -1.952  0.00  0.00    +0.015 A 
ENDBRANCH   8  13
BRANCH   6  20
ATOM     20  O   UNL     1       7.284   0.650  -5.862  0.00  0.00    -0.495 OA
ATOM     21  C   UNL     1       8.334   0.200  -6.710  0.00  0.00    +0.277 C 
ENDBRANCH   6  20
BRANCH   1  22
ATOM     22  C   UNL     1       4.448   2.712  -1.644  0.00  0.00    +0.133 C 
BRANCH  22  25
ATOM     23  N   UNL     1       4.150   4.272  -3.503  0.00  0.00    -0.310 N 
ATOM     24  H   UNL     1       4.901   3.759  -3.950  0.00  0.00    +0.149 HD
ATOM     25  C   UNL     1       3.851   4.002  -2.186  0.00  0.00    +0.218 C 
ATOM     26  O   UNL     1       3.112   4.718  -1.511  0.00  0.00    -0.275 OA
BRANCH  23  27
ATOM     27  CA  UNL     1       3.612   5.438  -4.199  0.00  0.00    +0.098 C 
BRANCH  27  28
ATOM     28  C   UNL     1       3.567   5.186  -5.715  0.00  0.00    +0.021 C 
ATOM     29  C   UNL     1       2.729   3.968  -6.088  0.00  0.00    +0.006 C 
ENDBRANCH  27  28
BRANCH  27  30
ATOM     30  C   UNL     1       4.428   6.700  -3.860  0.00  0.00    +0.178 C 
BRANCH  30  31
ATOM     31  O   UNL     1       5.780   6.580  -4.308  0.00  0.00    -0.393 OA
ATOM     32  H   UNL     1       6.200   5.924  -3.727  0.00  0.00    +0.209 HD
ENDBRANCH  30  31
ENDBRANCH  27  30
ENDBRANCH  23  27
ENDBRANCH  22  25
ENDBRANCH   1  22
TORSDOF 8
