REMARK  Name = 
REMARK  12 active torsions:
REMARK  status: ('A' for Active; 'I' for Inactive)
REMARK    1  A    between atoms: C_2  and  N_3
REMARK    2  A    between atoms: C_2  and  C_21
REMARK    3  A    between atoms: C_2  and  P_24
REMARK    4  A    between atoms: N_3  and  S_4
REMARK    5  A    between atoms: S_4  and  C_7
REMARK    6  A    between atoms: C_10  and  C_13
REMARK    7  A    between atoms: C_16  and  O_17
REMARK    8  A    between atoms: O_17  and  C_18
REMARK    9  A    between atoms: C_21  and  C_22
REMARK   10  A    between atoms: C_21  and  C_23
REMARK   11  A    between atoms: P_24  and  O_25
REMARK   12  A    between atoms: P_24  and  O_26
REMARK                            x       y       z     vdW  Elec       q    Type
REMARK                         _______ _______ _______ _____ _____    ______ ____
ROOT
ATOM      1  S   UNL     1       1.983   1.319  -2.297  0.00  0.00    +0.059 S 
ATOM      2  O   UNL     1       3.099   0.418  -2.443  0.00  0.00    -0.153 OA
ATOM      3  O   UNL     1       1.296   1.474  -1.043  0.00  0.00    -0.153 OA
ENDROOT
BRANCH   1   4
ATOM      4  C   UNL     1       2.526   2.896  -2.904  0.00  0.00    +0.105 A 
ATOM      5  C   UNL     1       3.172   2.933  -4.140  0.00  0.00    +0.029 A 
ATOM      6  C   UNL     1       3.389   4.161  -4.771  0.00  0.00    +0.010 A 
ATOM      7  C   UNL     1       2.970   5.370  -4.186  0.00  0.00    -0.018 A 
ATOM      8  C   UNL     1       2.427   5.300  -2.885  0.00  0.00    +0.010 A 
ATOM      9  C   UNL     1       2.215   4.076  -2.235  0.00  0.00    +0.029 A 
BRANCH   7  10
ATOM     10  C   UNL     1       3.014   6.650  -4.942  0.00  0.00    -0.018 A 
ATOM     11  C   UNL     1       2.826   6.678  -6.339  0.00  0.00    +0.012 A 
ATOM     12  C   UNL     1       2.783   7.880  -7.063  0.00  0.00    +0.046 A 
ATOM     13  C   UNL     1       2.911   9.095  -6.401  0.00  0.00    +0.120 A 
ATOM     14  C   UNL     1       3.096   9.094  -5.020  0.00  0.00    +0.046 A 
ATOM     15  C   UNL     1       3.163   7.892  -4.304  0.00  0.00    +0.012 A 
BRANCH  13  16
ATOM     16  O   UNL     1       2.803  10.328  -6.979  0.00  0.00    -0.495 OA
ATOM     17  C   UNL     1       3.197  10.421  -8.343  0.00  0.00    +0.277 C 
ENDBRANCH  13  16
ENDBRANCH   7  10
ENDBRANCH   1   4
BRANCH   1  18
ATOM     18  N   UNL     1       0.847   0.863  -3.452  0.00  0.00    -0.175 NA
ATOM     19  H   UNL     1       1.228   0.742  -4.386  0.00  0.00    +0.149 HD
BRANCH  18  20
ATOM     20  C   UNL     1      -0.599   1.247  -3.340  0.00  0.00    +0.192 C 
BRANCH  20  21
ATOM     21  C   UNL     1      -0.818   2.762  -3.460  0.00  0.00    +0.013 C 
ATOM     22  C   UNL     1      -2.275   3.186  -3.262  0.00  0.00    +0.009 C 
ATOM     23  C   UNL     1      -0.358   3.286  -4.826  0.00  0.00    +0.009 C 
ENDBRANCH  20  21
BRANCH  20  24
ATOM     24  P   UNL     1      -1.377   0.430  -1.906  0.00  0.00    +0.346 P 
ATOM     25  O   UNL     1      -1.678   1.237  -0.688  0.00  0.00    -0.257 OA
BRANCH  24  26
ATOM     26  O   UNL     1      -0.463  -0.852  -1.583  0.00  0.00    -0.323 OA
ATOM     27  H   UNL     1       0.233  -0.604  -0.937  0.00  0.00    +0.220 HD
ENDBRANCH  24  26
BRANCH  24  28
ATOM     28  O   UNL     1      -2.676  -0.321  -2.488  0.00  0.00    -0.323 OA
ATOM     29  H   UNL     1      -2.509  -0.871  -3.275  0.00  0.00    +0.220 HD
ENDBRANCH  24  28
ENDBRANCH  20  24
ENDBRANCH  18  20
ENDBRANCH   1  18
TORSDOF 9
