REMARK  Name = 
REMARK  4 active torsions:
REMARK  status: ('A' for Active; 'I' for Inactive)
REMARK    1  A    between atoms: C_12  and  N_13
REMARK    2  A    between atoms: N_13  and  C_14
REMARK    3  A    between atoms: C_17  and  C_18
REMARK    4  A    between atoms: C_18  and  N_19
REMARK                            x       y       z     vdW  Elec       q    Type
REMARK                         _______ _______ _______ _____ _____    ______ ____
ROOT
ATOM      1 BR   UNL     1       4.240  -0.718  -4.189  0.00  0.00    -0.050 Br
ATOM      2  C   UNL     1       5.358  -0.388  -2.700  0.00  0.00    +0.018 A 
ATOM      3  C   UNL     1       5.406   0.894  -2.141  0.00  0.00    +0.024 A 
ATOM      4  C   UNL     1       6.234   1.169  -1.037  0.00  0.00    +0.001 A 
ATOM      5  C   UNL     1       6.999   0.112  -0.513  0.00  0.00    +0.045 A 
ATOM      6  C   UNL     1       7.877   0.327   0.659  0.00  0.00    +0.251 C 
ATOM      7  N   UNL     1       7.871   1.574   1.227  0.00  0.00    -0.248 N 
ATOM      8  H   UNL     1       8.410   1.672   2.076  0.00  0.00    +0.158 HD
ATOM      9  C   UNL     1       7.062   2.628   0.909  0.00  0.00    +0.252 C 
ATOM     10  O   UNL     1       6.980   3.604   1.650  0.00  0.00    -0.270 OA
ATOM     11  O   UNL     1       8.561  -0.579   1.121  0.00  0.00    -0.270 OA
ATOM     12  C   UNL     1       6.942  -1.173  -1.076  0.00  0.00    +0.015 A 
ATOM     13  C   UNL     1       6.314   2.497  -0.385  0.00  0.00    +0.059 C 
ATOM     14  C   UNL     1       5.808   3.630  -0.918  0.00  0.00    +0.085 C 
ATOM     15  C   UNL     1       6.119  -1.423  -2.171  0.00  0.00    +0.016 A 
ENDROOT
BRANCH  14  16
ATOM     16  N   UNL     1       5.880   4.906  -0.411  0.00  0.00    -0.320 N 
ATOM     17  H   UNL     1       6.330   4.983   0.506  0.00  0.00    +0.152 HD
BRANCH  16  18
ATOM     18  C   UNL     1       5.370   6.107  -0.926  0.00  0.00    +0.031 A 
ATOM     19  C   UNL     1       5.954   7.308  -0.500  0.00  0.00    +0.023 A 
ATOM     20  C   UNL     1       5.547   8.539  -1.021  0.00  0.00    +0.007 A 
ATOM     21  C   UNL     1       4.536   8.601  -1.985  0.00  0.00    -0.033 A 
ATOM     22  C   UNL     1       3.954   7.405  -2.423  0.00  0.00    +0.007 A 
ATOM     23  C   UNL     1       4.377   6.173  -1.908  0.00  0.00    +0.023 A 
BRANCH  21  24
ATOM     24  C   UNL     1       4.093   9.935  -2.546  0.00  0.00    +0.119 C 
BRANCH  24  25
ATOM     25  N   UNL     1       2.678  10.232  -2.307  0.00  0.00    -0.298 NA
ATOM     26  C   UNL     1       2.286  11.514  -2.903  0.00  0.00    +0.085 C 
ATOM     27  C   UNL     1       1.102  12.000  -2.071  0.00  0.00    +0.017 C 
ATOM     28  C   UNL     1       0.977  10.999  -0.934  0.00  0.00    +0.017 C 
ATOM     29  C   UNL     1       2.340  10.334  -0.885  0.00  0.00    +0.085 C 
ENDBRANCH  24  25
ENDBRANCH  21  24
ENDBRANCH  16  18
ENDBRANCH  14  16
TORSDOF 4
