REMARK  Name = 
REMARK  8 active torsions:
REMARK  status: ('A' for Active; 'I' for Inactive)
REMARK    1  A    between atoms: C_2  and  C_3
REMARK    2  A    between atoms: C_3  and  C_4
REMARK    3  A    between atoms: C_16  and  O_17
REMARK    4  A    between atoms: O_17  and  S_18
REMARK    5  A    between atoms: S_18  and  N_19
REMARK    6  A    between atoms: C_22  and  O_23
REMARK    7  A    between atoms: O_23  and  C_24
REMARK    8  A    between atoms: C_31  and  C_32
REMARK                            x       y       z     vdW  Elec       q    Type
REMARK                         _______ _______ _______ _____ _____    ______ ____
ROOT
ATOM      1  C   UNL     1       2.556  -1.261  -0.578  0.00  0.00    +0.009 C 
ATOM      2  C   UNL     1       4.094  -1.694  -1.433  0.00  0.00    -0.025 C 
ATOM      3  C   UNL     1       5.103  -2.288  -0.425  0.00  0.00    +0.012 C 
ATOM      4  C   UNL     1       4.365  -0.352  -2.187  0.00  0.00    -0.001 C 
ATOM      5  C   UNL     1       5.812  -0.065  -2.577  0.00  0.00    +0.000 C 
ATOM      6  C   UNL     1       6.401  -1.035  -3.664  0.00  0.00    +0.023 C 
ATOM      7  C   UNL     1       5.911  -2.499  -3.342  0.00  0.00    +0.009 C 
ATOM      8  C   UNL     1       7.911  -0.615  -3.923  0.00  0.00    -0.037 A 
ATOM      9  C   UNL     1       8.295   0.716  -3.606  0.00  0.00    -0.040 A 
ATOM     10  C   UNL     1       9.606   1.196  -3.769  0.00  0.00    +0.056 A 
ATOM     11  C   UNL     1      10.604   0.432  -4.337  0.00  0.00    +0.199 A 
ATOM     12  C   UNL     1      10.259  -0.847  -4.800  0.00  0.00    +0.165 A 
ATOM     13  C   UNL     1       7.363   1.761  -3.063  0.00  0.00    +0.036 C 
ATOM     14  C   UNL     1       8.922  -1.364  -4.576  0.00  0.00    +0.053 A 
ATOM     15  C   UNL     1       5.927   1.346  -3.153  0.00  0.00    +0.009 C 
ATOM     16  C   UNL     1       3.572   0.704  -1.434  0.00  0.00    +0.005 C 
ATOM     17  C   UNL     1       4.368  -2.647  -2.729  0.00  0.00    +0.008 C 
ATOM     18  C   UNL     1       2.213   0.039  -1.275  0.00  0.00    +0.005 C 
ENDROOT
BRANCH  12  19
ATOM     19  O   UNL     1      11.096  -1.698  -5.497  0.00  0.00    -0.491 OA
ATOM     20  C   UNL     1      12.428  -1.269  -5.797  0.00  0.00    +0.277 C 
ENDBRANCH  12  19
BRANCH  11  21
ATOM     21  O   UNL     1      11.849   0.981  -4.543  0.00  0.00    -0.330 OA
BRANCH  21  22
ATOM     22  S   UNL     1      12.496   2.074  -3.518  0.00  0.00    +0.189 S 
ATOM     23  O   UNL     1      12.724   1.459  -2.245  0.00  0.00    -0.119 OA
ATOM     24  O   UNL     1      11.836   3.345  -3.677  0.00  0.00    -0.119 OA
BRANCH  22  25
ATOM     25  N   UNL     1      14.036   2.332  -4.167  0.00  0.00    -0.174 NA
ATOM     26  H   UNL     1      14.652   1.532  -4.047  0.00  0.00    +0.147 HD
ATOM     27  H   UNL     1      14.007   2.759  -5.089  0.00  0.00    +0.147 HD
ENDBRANCH  22  25
ENDBRANCH  21  22
ENDBRANCH  11  21
BRANCH   1  28
ATOM     28  C   UNL     1       2.599  -0.929   1.037  0.00  0.00    +0.122 C 
BRANCH  28  29
ATOM     29  C   UNL     1       2.106  -0.354   2.354  0.00  0.00    +0.063 C 
ATOM     30  N   UNL     1       1.696   0.124   3.447  0.00  0.00    -0.197 NA
ENDBRANCH  28  29
ENDBRANCH   1  28
TORSDOF 6
