REMARK  Name = 
REMARK  9 active torsions:
REMARK  status: ('A' for Active; 'I' for Inactive)
REMARK    1  A    between atoms: C_2  and  N_3
REMARK    2  A    between atoms: C_2  and  O_4
REMARK    3  A    between atoms: C_2  and  C_5
REMARK    4  A    between atoms: C_5  and  C_6
REMARK    5  A    between atoms: C_6  and  C_7
REMARK    6  A    between atoms: C_7  and  N_9
REMARK    7  A    between atoms: C_7  and  C_10
REMARK    8  A    between atoms: C_10  and  C_11
REMARK    9  A    between atoms: C_14  and  O_15
REMARK                            x       y       z     vdW  Elec       q    Type
REMARK                         _______ _______ _______ _____ _____    ______ ____
ROOT
ATOM      1  C   UNL     1       4.639  -0.016   2.885  0.00  0.00    +0.055 C 
ENDROOT
BRANCH   1   2
ATOM      2  N   UNL     1       4.160  -1.193   3.628  0.00  0.00    -0.327 NA
ATOM      3  H   UNL     1       4.605  -1.201   4.549  0.00  0.00    +0.118 HD
ATOM      4  H   UNL     1       3.164  -1.096   3.812  0.00  0.00    +0.118 HD
ENDBRANCH   1   2
BRANCH   1   5
ATOM      5  C   UNL     1       4.114  -0.056   1.439  0.00  0.00    +0.022 C 
BRANCH   5   6
ATOM      6  C   UNL     1       2.583  -0.009   1.347  0.00  0.00    +0.049 C 
BRANCH   6   7
ATOM      7  C   UNL     1       2.111   0.029  -0.104  0.00  0.00    +0.180 C 
BRANCH   7   8
ATOM      8  N   UNL     1       0.671   0.078  -0.188  0.00  0.00    -0.306 NA
ATOM      9  H   UNL     1       0.297  -0.828   0.102  0.00  0.00    +0.121 HD
ATOM     10  H   UNL     1       0.316   0.738   0.502  0.00  0.00    +0.121 HD
ENDBRANCH   7   8
BRANCH   7  11
ATOM     11  O   UNL     1       2.585   1.201  -0.709  0.00  0.00    -0.378 OA
ATOM     12  H   UNL     1       1.772   1.640  -1.021  0.00  0.00    +0.211 HD
ENDBRANCH   7  11
ENDBRANCH   6   7
ENDBRANCH   5   6
ENDBRANCH   1   5
BRANCH   1  13
ATOM     13  C   UNL     1       6.184   0.059   2.873  0.00  0.00    +0.053 C 
BRANCH  13  14
ATOM     14  C   UNL     1       6.813   0.129   4.248  0.00  0.00    -0.046 A 
ATOM     15  C   UNL     1       6.545   1.213   5.103  0.00  0.00    +0.007 A 
ATOM     16  C   UNL     1       7.101   1.246   6.382  0.00  0.00    +0.045 A 
ATOM     17  C   UNL     1       7.923   0.212   6.808  0.00  0.00    +0.117 A 
ATOM     18  C   UNL     1       8.216  -0.856   5.969  0.00  0.00    +0.045 A 
ATOM     19  C   UNL     1       7.659  -0.894   4.691  0.00  0.00    +0.007 A 
BRANCH  17  20
ATOM     20  O   UNL     1       8.431   0.284   8.071  0.00  0.00    -0.507 OA
ATOM     21  H   UNL     1       8.969  -0.507   8.232  0.00  0.00    +0.292 HD
ENDBRANCH  17  20
ENDBRANCH  13  14
ENDBRANCH   1  13
TORSDOF 9
