REMARK  Name = 
REMARK  2 active torsions:
REMARK  status: ('A' for Active; 'I' for Inactive)
REMARK    1  A    between atoms: C_7  and  C_8
REMARK    2  A    between atoms: C_17  and  N_18
REMARK                            x       y       z     vdW  Elec       q    Type
REMARK                         _______ _______ _______ _____ _____    ______ ____
ROOT
ATOM      1  C   UNL     1       2.601  -2.884   0.261  0.00  0.00    -0.001 A 
ATOM      2  C   UNL     1       1.265  -3.190  -0.046  0.00  0.00    +0.060 A 
ATOM      3  C   UNL     1       0.090  -3.084   0.800  0.00  0.00    +0.260 A 
ATOM      4  N   UNL     1      -0.943  -3.446  -0.032  0.00  0.00    -0.289 N 
ATOM      5  H   UNL     1      -1.860  -3.619   0.337  0.00  0.00    +0.172 HD
ATOM      6  C   UNL     1      -0.556  -4.112  -1.158  0.00  0.00    +0.260 A 
ATOM      7  O   UNL     1      -1.314  -4.526  -2.017  0.00  0.00    -0.267 OA
ATOM      8  O   UNL     1      -0.040  -3.013   2.017  0.00  0.00    -0.267 OA
ATOM      9  C   UNL     1       0.862  -4.171  -0.981  0.00  0.00    +0.062 A 
ATOM     10  C   UNL     1       1.778  -5.246  -1.074  0.00  0.00    +0.021 A 
ATOM     11  C   UNL     1       1.329  -6.568  -1.128  0.00  0.00    +0.010 A 
ATOM     12  C   UNL     1       0.111  -7.271  -1.305  0.00  0.00    +0.034 A 
ATOM     13  C   UNL     1       0.042  -8.629  -1.000  0.00  0.00    +0.034 A 
ATOM     14  C   UNL     1       1.193  -9.319  -0.623  0.00  0.00    +0.025 A 
ATOM     15  C   UNL     1       2.428  -8.673  -0.514  0.00  0.00    +0.028 A 
ATOM     16  C   UNL     1       2.461  -7.302  -0.742  0.00  0.00    +0.048 A 
ATOM     17  N   UNL     1       3.508  -6.410  -0.538  0.00  0.00    -0.354 N 
ATOM     18  H   UNL     1       4.415  -6.683  -0.185  0.00  0.00    +0.166 HD
ATOM     19  C   UNL     1       3.001  -5.136  -0.463  0.00  0.00    +0.049 A 
ATOM     20  C   UNL     1       3.488  -3.978   0.131  0.00  0.00    +0.035 A 
ENDROOT
BRANCH   1  23
ATOM     21 CL   UNL     1       1.260  -0.294   1.802  0.00  0.00    -0.083 Cl
ATOM     22  C   UNL     1       2.637  -0.326   0.769  0.00  0.00    +0.049 A 
ATOM     23  C   UNL     1       3.136  -1.496   0.166  0.00  0.00    +0.001 A 
ATOM     24  C   UNL     1       4.277  -1.320  -0.665  0.00  0.00    +0.010 A 
ATOM     25  C   UNL     1       4.907  -0.083  -0.855  0.00  0.00    +0.001 A 
ATOM     26  C   UNL     1       4.396   1.041  -0.233  0.00  0.00    +0.001 A 
ATOM     27  C   UNL     1       3.264   0.919   0.567  0.00  0.00    +0.020 A 
ENDBRANCH   1  23
BRANCH  13  28
ATOM     28  N   UNL     1      -1.233  -9.222  -1.040  0.00  0.00    -0.288 N 
ATOM     29  H   UNL     1      -2.024  -8.649  -1.310  0.00  0.00    +0.155 HD
ATOM     30  C   UNL     1      -1.573 -10.498  -0.700  0.00  0.00    +0.330 C 
ATOM     31  O   UNL     1      -2.728 -10.910  -0.743  0.00  0.00    -0.279 OA
ENDBRANCH  13  28
TORSDOF 2
