REMARK  Name = 
REMARK  4 active torsions:
REMARK  status: ('A' for Active; 'I' for Inactive)
REMARK    1  A    between atoms: C_1  and  N_2
REMARK    2  A    between atoms: C_11  and  C_22
REMARK    3  A    between atoms: C_13  and  C_18
REMARK    4  A    between atoms: C_24  and  O_25
REMARK                            x       y       z     vdW  Elec       q    Type
REMARK                         _______ _______ _______ _____ _____    ______ ____
ROOT
ATOM      1  C   UNL     1       1.095   0.077   0.071  0.00  0.00    +0.105 C 
ATOM      2  N   UNL     1       2.530   0.246  -0.146  0.00  0.00    -0.302 NA
ATOM      3  C   UNL     1       2.808   1.104  -1.321  0.00  0.00    +0.103 C 
ATOM      4  C   UNL     1       2.529   0.464  -2.702  0.00  0.00    +0.122 C 
ATOM      5  N   UNL     1       3.129  -0.872  -2.801  0.00  0.00    -0.312 N 
ATOM      6  C   UNL     1       3.886  -1.207  -3.898  0.00  0.00    +0.140 A 
ATOM      7  C   UNL     1       4.093  -2.514  -4.318  0.00  0.00    +0.155 A 
ATOM      8  N   UNL     1       4.863  -2.865  -5.376  0.00  0.00    -0.250 NA
ATOM      9  C   UNL     1       5.463  -1.862  -6.029  0.00  0.00    +0.090 A 
ATOM     10  C   UNL     1       5.300  -0.507  -5.645  0.00  0.00    +0.099 A 
ATOM     11  C   UNL     1       5.999   0.498  -6.364  0.00  0.00    +0.010 A 
ATOM     12  C   UNL     1       6.825   0.105  -7.445  0.00  0.00    +0.023 A 
ATOM     13  C   UNL     1       6.947  -1.229  -7.841  0.00  0.00    +0.058 A 
ATOM     14  C   UNL     1       6.261  -2.197  -7.108  0.00  0.00    +0.042 A 
ATOM     15  N   UNL     1       4.483  -0.219  -4.598  0.00  0.00    -0.228 NA
ATOM     16  C   UNL     1       2.909  -1.775  -1.671  0.00  0.00    +0.122 C 
ATOM     17  C   UNL     1       3.207  -1.054  -0.333  0.00  0.00    +0.103 C 
ENDROOT
BRANCH  11  18
ATOM     18  C   UNL     1       5.900   1.952  -6.023  0.00  0.00    -0.012 A 
ATOM     19  C   UNL     1       5.931   2.942  -7.029  0.00  0.00    +0.009 A 
ATOM     20  C   UNL     1       5.842   4.306  -6.727  0.00  0.00    +0.004 A 
ATOM     21  C   UNL     1       5.694   4.718  -5.408  0.00  0.00    +0.045 A 
ATOM     22  C   UNL     1       5.655   3.764  -4.403  0.00  0.00    +0.117 A 
ATOM     23  C   UNL     1       5.779   2.405  -4.696  0.00  0.00    +0.054 A 
BRANCH  22  24
ATOM     24  O   UNL     1       5.489   4.199  -3.120  0.00  0.00    -0.507 OA
ATOM     25  H   UNL     1       5.454   3.422  -2.537  0.00  0.00    +0.292 HD
ENDBRANCH  22  24
ENDBRANCH  11  18
BRANCH  13  26
ATOM     26  C   UNL     1       7.791  -1.631  -9.024  0.00  0.00    +0.418 C 
ATOM     27  F   UNL     1       7.070  -2.290  -9.973  0.00  0.00    -0.166 F 
ATOM     28  F   UNL     1       8.810  -2.463  -8.679  0.00  0.00    -0.166 F 
ATOM     29  F   UNL     1       8.367  -0.575  -9.662  0.00  0.00    -0.166 F 
ENDBRANCH  13  26
TORSDOF 3
