REMARK  Name = 
REMARK  12 active torsions:
REMARK  status: ('A' for Active; 'I' for Inactive)
REMARK    1  A    between atoms: C_1  and  O_2
REMARK    2  A    between atoms: O_2  and  C_3
REMARK    3  A    between atoms: C_5  and  C_13
REMARK    4  A    between atoms: C_7  and  O_8
REMARK    5  A    between atoms: O_8  and  C_9
REMARK    6  A    between atoms: C_10  and  O_11
REMARK    7  A    between atoms: O_11  and  C_12
REMARK    8  A    between atoms: C_13  and  C_14
REMARK    9  A    between atoms: C_13  and  C_15
REMARK   10  A    between atoms: C_13  and  C_16
REMARK   11  A    between atoms: C_17  and  C_18
REMARK   12  A    between atoms: C_19  and  C_20
REMARK                            x       y       z     vdW  Elec       q    Type
REMARK                         _______ _______ _______ _____ _____    ______ ____
ROOT
ATOM      1  C   UNL     1       3.265   4.166   2.177  0.00  0.00    +0.052 C 
ATOM      2  C   UNL     1       1.767   4.493   2.307  0.00  0.00    +0.029 C 
ATOM      3  C   UNL     1       3.846   4.944   0.976  0.00  0.00    +0.029 C 
ENDROOT
BRANCH   1   8
ATOM      4  C   UNL     1       3.757   0.464   3.122  0.00  0.00    +0.165 A 
ATOM      5  C   UNL     1       3.773  -0.188   1.869  0.00  0.00    +0.204 A 
ATOM      6  C   UNL     1       3.622   0.599   0.707  0.00  0.00    +0.165 A 
ATOM      7  C   UNL     1       3.465   1.994   0.811  0.00  0.00    +0.054 A 
ATOM      8  C   UNL     1       3.441   2.651   2.045  0.00  0.00    -0.023 A 
ATOM      9  C   UNL     1       3.542   1.850   3.187  0.00  0.00    +0.054 A 
BRANCH   4  11
ATOM     10  C   UNL     1       4.515   0.427   5.374  0.00  0.00    +0.277 C 
ATOM     11  O   UNL     1       3.906  -0.261   4.280  0.00  0.00    -0.491 OA
ENDBRANCH   4  11
BRANCH   5  12
ATOM     12  O   UNL     1       3.934  -1.532   1.669  0.00  0.00    -0.488 OA
ATOM     13  C   UNL     1       4.096  -2.413   2.768  0.00  0.00    +0.277 C 
ENDBRANCH   5  12
BRANCH   6  14
ATOM     14  O   UNL     1       3.605   0.204  -0.610  0.00  0.00    -0.491 OA
ATOM     15  C   UNL     1       3.736  -1.170  -0.937  0.00  0.00    +0.277 C 
ENDBRANCH   6  14
ENDBRANCH   1   8
BRANCH   1  16
ATOM     16  C   UNL     1       3.979   4.694   3.411  0.00  0.00    -0.086 C 
ATOM     17  C   UNL     1       4.592   5.148   4.469  0.00  0.00    -0.060 C 
BRANCH  17  18
ATOM     18  C   UNL     1       5.232   5.689   5.629  0.00  0.00    +0.085 A 
ATOM     19  C   UNL     1       5.877   4.876   6.554  0.00  0.00    +0.137 A 
ATOM     20  N   UNL     1       5.896   3.480   6.429  0.00  0.00    -0.342 N 
ATOM     21  H   UNL     1       6.234   3.207   5.512  0.00  0.00    +0.144 HD
ATOM     22  H   UNL     1       6.486   3.126   7.179  0.00  0.00    +0.144 HD
ATOM     23  N   UNL     1       6.487   5.353   7.650  0.00  0.00    -0.199 NA
ATOM     24  C   UNL     1       6.476   6.676   7.816  0.00  0.00    +0.215 A 
ATOM     25  N   UNL     1       7.099   7.185   8.935  0.00  0.00    -0.327 N 
ATOM     26  H   UNL     1       7.132   6.481   9.658  0.00  0.00    +0.145 HD
ATOM     27  H   UNL     1       6.686   8.076   9.175  0.00  0.00    +0.145 HD
ATOM     28  N   UNL     1       5.867   7.544   7.006  0.00  0.00    -0.219 NA
ATOM     29  C   UNL     1       5.248   7.046   5.909  0.00  0.00    +0.060 A 
ATOM     30  C   UNL     1       4.563   8.072   5.053  0.00  0.00    +0.067 C 
ENDBRANCH  17  18
ENDBRANCH   1  16
TORSDOF 6
