REMARK  Name = 
REMARK  8 active torsions:
REMARK  status: ('A' for Active; 'I' for Inactive)
REMARK    1  A    between atoms: C_2  and  O_3
REMARK    2  A    between atoms: C_2  and  C_4
REMARK    3  A    between atoms: C_2  and  C_14
REMARK    4  A    between atoms: C_4  and  O_5
REMARK    5  A    between atoms: O_5  and  C_6
REMARK    6  A    between atoms: C_7  and  C_8
REMARK    7  A    between atoms: C_11  and  C_12
REMARK    8  A    between atoms: C_14  and  N_15
REMARK                            x       y       z     vdW  Elec       q    Type
REMARK                         _______ _______ _______ _____ _____    ______ ____
ROOT
ATOM      1  C   UNL     1       1.834  -0.069   0.204  0.00  0.00    +0.166 C 
ENDROOT
BRANCH   1   2
ATOM      2  O   UNL     1       2.400  -0.691   1.364  0.00  0.00    -0.387 OA
ATOM      3  H   UNL     1       2.105  -1.622   1.348  0.00  0.00    +0.210 HD
ENDBRANCH   1   2
BRANCH   1   4
ATOM      4  C   UNL     1       2.508   1.324   0.020  0.00  0.00    +0.119 C 
BRANCH   4   5
ATOM      5  N   UNL     1       2.154   2.043  -1.222  0.00  0.00    -0.295 NA
ATOM      6  C   UNL     1       3.016   3.227  -1.442  0.00  0.00    +0.112 C 
ATOM      7  C   UNL     1       2.675   4.429  -0.543  0.00  0.00    +0.175 C 
ATOM      8  O   UNL     1       1.297   4.799  -0.669  0.00  0.00    -0.377 OA
ATOM      9  C   UNL     1       0.444   3.691  -0.356  0.00  0.00    +0.175 C 
ATOM     10  C   UNL     1       0.744   2.487  -1.263  0.00  0.00    +0.112 C 
ENDBRANCH   4   5
ENDBRANCH   1   4
BRANCH   1  11
ATOM     11  C   UNL     1       2.098  -0.920  -1.044  0.00  0.00    +0.261 C 
BRANCH  11  12
ATOM     12  O   UNL     1       1.547  -2.230  -1.011  0.00  0.00    -0.489 OA
BRANCH  12  13
ATOM     13  C   UNL     1       1.655  -2.956  -2.185  0.00  0.00    +0.124 A 
ATOM     14  C   UNL     1       0.970  -4.191  -2.095  0.00  0.00    +0.049 A 
ATOM     15  C   UNL     1       0.912  -5.098  -3.169  0.00  0.00    -0.047 A 
ATOM     16  C   UNL     1       0.185  -6.405  -3.055  0.00  0.00    +0.044 C 
ATOM     17  C   UNL     1       1.584  -4.785  -4.342  0.00  0.00    +0.004 A 
ATOM     18  C   UNL     1       2.266  -3.581  -4.448  0.00  0.00    +0.007 A 
ATOM     19  C   UNL     1       2.321  -2.641  -3.391  0.00  0.00    -0.009 A 
ATOM     20  C   UNL     1       3.133  -1.429  -3.769  0.00  0.00    +0.047 C 
ENDBRANCH  12  13
ENDBRANCH  11  12
ENDBRANCH   1  11
TORSDOF 6
