REMARK  Name = 
REMARK  5 active torsions:
REMARK  status: ('A' for Active; 'I' for Inactive)
REMARK    1  A    between atoms: O_1  and  C_2
REMARK    2  A    between atoms: C_10  and  O_11
REMARK    3  A    between atoms: C_12  and  C_14
REMARK    4  A    between atoms: C_17  and  O_18
REMARK    5  A    between atoms: C_19  and  O_20
REMARK                            x       y       z     vdW  Elec       q    Type
REMARK                         _______ _______ _______ _____ _____    ______ ____
ROOT
ATOM      1  C   UNL     1       2.426  -0.100  -0.062  0.00  0.00    +0.120 A 
ATOM      2  C   UNL     1       3.021   1.158  -0.042  0.00  0.00    +0.046 A 
ATOM      3  C   UNL     1       4.403   1.262   0.090  0.00  0.00    +0.019 A 
ATOM      4  C   UNL     1       5.171   0.098   0.181  0.00  0.00    +0.068 A 
ATOM      5  C   UNL     1       6.622   0.176   0.340  0.00  0.00    +0.234 A 
ATOM      6  C   UNL     1       7.375  -1.095   0.320  0.00  0.00    +0.208 A 
ATOM      7  C   UNL     1       6.705  -2.257   0.175  0.00  0.00    +0.181 A 
ATOM      8  O   UNL     1       5.309  -2.327   0.134  0.00  0.00    -0.451 OA
ATOM      9  O   UNL     1       7.225   1.237   0.465  0.00  0.00    -0.283 OA
ATOM     10  C   UNL     1       4.581  -1.161   0.118  0.00  0.00    +0.143 A 
ATOM     11  C   UNL     1       3.192  -1.264   0.015  0.00  0.00    +0.092 A 
ENDROOT
BRANCH   7  12
ATOM     12  C   UNL     1       7.374  -3.582   0.034  0.00  0.00    +0.025 A 
ATOM     13  C   UNL     1       6.739  -4.763   0.456  0.00  0.00    +0.060 A 
ATOM     14  C   UNL     1       7.360  -5.998   0.270  0.00  0.00    +0.159 A 
ATOM     15  C   UNL     1       8.615  -6.091  -0.324  0.00  0.00    +0.158 A 
ATOM     16  C   UNL     1       9.263  -4.947  -0.756  0.00  0.00    +0.050 A 
ATOM     17  C   UNL     1       8.633  -3.708  -0.591  0.00  0.00    +0.015 A 
BRANCH  14  18
ATOM     18  O   UNL     1       6.719  -7.138   0.669  0.00  0.00    -0.503 OA
ATOM     19  H   UNL     1       7.331  -7.860   0.420  0.00  0.00    +0.292 HD
ENDBRANCH  14  18
BRANCH  15  20
ATOM     20  O   UNL     1       9.171  -7.332  -0.470  0.00  0.00    -0.503 OA
ATOM     21  H   UNL     1      10.048  -7.226  -0.876  0.00  0.00    +0.292 HD
ENDBRANCH  15  20
ENDBRANCH   7  12
BRANCH   1  22
ATOM     22  O   UNL     1       1.066  -0.144  -0.164  0.00  0.00    -0.507 OA
ATOM     23  H   UNL     1       0.771  -1.067  -0.097  0.00  0.00    +0.292 HD
ENDBRANCH   1  22
BRANCH   6  24
ATOM     24  O   UNL     1       8.749  -0.980   0.435  0.00  0.00    -0.501 OA
ATOM     25  H   UNL     1       8.912  -0.016   0.522  0.00  0.00    +0.292 HD
ENDBRANCH   6  24
TORSDOF 5
