REMARK  Name = 
REMARK  13 active torsions:
REMARK  status: ('A' for Active; 'I' for Inactive)
REMARK    1  A    between atoms: C_2  and  O_3
REMARK    2  A    between atoms: C_2  and  C_4
REMARK    3  A    between atoms: C_2  and  C_13
REMARK    4  A    between atoms: C_4  and  C_5
REMARK    5  A    between atoms: C_5  and  C_6
REMARK    6  A    between atoms: C_6  and  C_7
REMARK    7  A    between atoms: C_7  and  C_8
REMARK    8  A    between atoms: C_8  and  C_9
REMARK    9  A    between atoms: C_9  and  C_10
REMARK   10  A    between atoms: C_10  and  C_11
REMARK   11  A    between atoms: C_11  and  C_12
REMARK   12  A    between atoms: C_13  and  C_14
REMARK   13  A    between atoms: C_14  and  O_15
REMARK                            x       y       z     vdW  Elec       q    Type
REMARK                         _______ _______ _______ _____ _____    ______ ____
ROOT
ATOM      1  C   UNL     1       2.414   1.234   0.556  0.00  0.00    +0.032 C 
ENDROOT
BRANCH   1   2
ATOM      2  C   UNL     1       1.915  -0.117   0.028  0.00  0.00    +0.125 C 
BRANCH   2   3
ATOM      3  O   UNL     1       2.448  -0.351  -1.284  0.00  0.00    -0.391 OA
ATOM      4  H   UNL     1       1.979   0.253  -1.892  0.00  0.00    +0.210 HD
ENDBRANCH   2   3
BRANCH   2   5
ATOM      5  C   UNL     1       2.398  -1.249   0.929  0.00  0.00    +0.151 C 
BRANCH   5   6
ATOM      6  C   UNL     1       1.857  -2.578   0.470  0.00  0.00    +0.307 C 
ATOM      7  O   UNL     1       1.199  -3.326   1.175  0.00  0.00    -0.251 OA
BRANCH   6   8
ATOM      8  O   UNL     1       2.216  -2.892  -0.797  0.00  0.00    -0.481 OA
ATOM      9  H   UNL     1       2.655  -2.123  -1.234  0.00  0.00    +0.295 HD
ENDBRANCH   6   8
ENDBRANCH   5   6
ENDBRANCH   2   5
ENDBRANCH   1   2
BRANCH   1  10
ATOM     10  C   UNL     1       1.944   2.416  -0.295  0.00  0.00    +0.003 C 
BRANCH  10  11
ATOM     11  C   UNL     1       2.450   3.744   0.272  0.00  0.00    +0.000 C 
BRANCH  11  12
ATOM     12  C   UNL     1       1.986   4.919  -0.589  0.00  0.00    +0.000 C 
BRANCH  12  13
ATOM     13  C   UNL     1       2.494   6.249  -0.035  0.00  0.00    -0.000 C 
BRANCH  13  14
ATOM     14  C   UNL     1       2.028   7.420  -0.901  0.00  0.00    -0.000 C 
BRANCH  14  15
ATOM     15  C   UNL     1       2.533   8.751  -0.348  0.00  0.00    -0.000 C 
BRANCH  15  16
ATOM     16  C   UNL     1       2.069   9.924  -1.210  0.00  0.00    -0.003 C 
ATOM     17  C   UNL     1       2.574  11.248  -0.659  0.00  0.00    +0.004 C 
ENDBRANCH  15  16
ENDBRANCH  14  15
ENDBRANCH  13  14
ENDBRANCH  12  13
ENDBRANCH  11  12
ENDBRANCH  10  11
ENDBRANCH   1  10
TORSDOF 12
