REMARK  Name = 
REMARK  9 active torsions:
REMARK  status: ('A' for Active; 'I' for Inactive)
REMARK    1  A    between atoms: C_2  and  C_4
REMARK    2  A    between atoms: C_7  and  N_8
REMARK    3  A    between atoms: C_9  and  C_11
REMARK    4  A    between atoms: C_15  and  S_17
REMARK    5  A    between atoms: S_17  and  O_20
REMARK    6  A    between atoms: O_20  and  C_21
REMARK    7  A    between atoms: C_21  and  C_22
REMARK    8  A    between atoms: C_22  and  C_23
REMARK    9  A    between atoms: C_23  and  O_24
REMARK                            x       y       z     vdW  Elec       q    Type
REMARK                         _______ _______ _______ _____ _____    ______ ____
ROOT
ATOM      1  N   UNL     1       2.604   5.347   0.373  0.00  0.00    -0.281 N 
ATOM      2  H   UNL     1       2.681   4.728   1.171  0.00  0.00    +0.155 HD
ATOM      3  C   UNL     1       2.362   6.679   0.665  0.00  0.00    +0.248 C 
ATOM      4  O   UNL     1       2.744   7.632  -0.007  0.00  0.00    -0.270 OA
ENDROOT
BRANCH   1  10
ATOM      5  C   UNL     1       1.362   6.511  -3.715  0.00  0.00    +0.065 A 
ATOM      6  C   UNL     1       1.926   5.839  -4.793  0.00  0.00    +0.016 A 
ATOM      7  C   UNL     1       2.930   4.901  -4.564  0.00  0.00    +0.009 A 
ATOM      8  C   UNL     1       3.383   4.628  -3.260  0.00  0.00    -0.016 A 
ATOM      9  C   UNL     1       2.777   5.259  -2.138  0.00  0.00    +0.004 A 
ATOM     10  C   UNL     1       3.215   4.891  -0.830  0.00  0.00    +0.041 A 
ATOM     11  C   UNL     1       4.254   3.961  -0.676  0.00  0.00    +0.024 A 
ATOM     12  C   UNL     1       4.881   3.405  -1.789  0.00  0.00    +0.002 A 
ATOM     13  C   UNL     1       4.429   3.716  -3.068  0.00  0.00    +0.008 A 
ATOM     14  C   UNL     1       1.742   6.182  -2.410  0.00  0.00    +0.026 A 
BRANCH   5  18
ATOM     15  N   UNL     1       0.370   8.675  -3.066  0.00  0.00    -0.247 N 
ATOM     16  H   UNL     1       1.224   8.814  -2.526  0.00  0.00    +0.288 HD
ATOM     17  H   UNL     1       0.034   9.551  -3.445  0.00  0.00    +0.288 HD
ATOM     18  C   UNL     1       0.404   7.625  -3.940  0.00  0.00    +0.308 C 
ATOM     19  N   UNL     1      -0.359   7.611  -4.982  0.00  0.00    -0.099 NA
ATOM     20  H   UNL     1      -0.967   8.435  -4.963  0.00  0.00    +0.363 HD
ENDBRANCH   5  18
ENDBRANCH   1  10
BRANCH   3  21
ATOM     21  C   UNL     1       1.620   6.964   1.930  0.00  0.00    +0.039 A 
ATOM     22  C   UNL     1       1.821   8.212   2.542  0.00  0.00    +0.042 A 
ATOM     23  C   UNL     1       1.079   8.556   3.674  0.00  0.00    +0.118 A 
ATOM     24  C   UNL     1       0.131   7.674   4.202  0.00  0.00    +0.029 A 
ATOM     25  C   UNL     1      -0.070   6.433   3.595  0.00  0.00    +0.003 A 
ATOM     26  C   UNL     1       0.669   6.076   2.460  0.00  0.00    +0.013 A 
BRANCH  23  27
ATOM     27  S   UNL     1       1.302  10.142   4.445  0.00  0.00    +0.112 S 
ATOM     28  O   UNL     1       2.458  10.017   5.309  0.00  0.00    -0.142 OA
ATOM     29  O   UNL     1       0.011  10.543   4.970  0.00  0.00    -0.142 OA
BRANCH  27  30
ATOM     30  O   UNL     1       1.675  11.177   3.238  0.00  0.00    -0.234 OA
BRANCH  30  31
ATOM     31  C   UNL     1       1.854  12.538   3.612  0.00  0.00    +0.196 C 
BRANCH  31  32
ATOM     32  C   UNL     1       2.184  13.401   2.401  0.00  0.00    +0.058 C 
BRANCH  32  33
ATOM     33  C   UNL     1       1.069  13.402   1.364  0.00  0.00    +0.158 C 
BRANCH  33  34
ATOM     34  O   UNL     1       1.416  14.261   0.284  0.00  0.00    -0.395 OA
ATOM     35  H   UNL     1       1.461  15.170   0.629  0.00  0.00    +0.209 HD
ENDBRANCH  33  34
ENDBRANCH  32  33
ENDBRANCH  31  32
ENDBRANCH  30  31
ENDBRANCH  27  30
ENDBRANCH  23  27
ENDBRANCH   3  21
TORSDOF 9
