REMARK  Name = 
REMARK  9 active torsions:
REMARK  status: ('A' for Active; 'I' for Inactive)
REMARK    1  A    between atoms: O_1  and  C_2
REMARK    2  A    between atoms: C_7  and  S_8
REMARK    3  A    between atoms: S_8  and  C_10
REMARK    4  A    between atoms: C_10  and  C_11
REMARK    5  A    between atoms: C_11  and  C_12
REMARK    6  A    between atoms: C_12  and  C_13
REMARK    7  A    between atoms: C_13  and  P_14
REMARK    8  A    between atoms: P_14  and  O_15
REMARK    9  A    between atoms: P_14  and  O_16
REMARK                            x       y       z     vdW  Elec       q    Type
REMARK                         _______ _______ _______ _____ _____    ______ ____
ROOT
ATOM      1  S   UNL     1       2.433  -2.900  -0.276  0.00  0.00    +0.057 S 
ATOM      2  O   UNL     1       2.860  -3.713   0.913  0.00  0.00    -0.252 OA
ENDROOT
BRANCH   1   4
ATOM      3  C   UNL     1       2.680  -0.079  -0.636  0.00  0.00    +0.133 A 
ATOM      4  C   UNL     1       3.153  -1.248  -0.023  0.00  0.00    +0.080 A 
ATOM      5  C   UNL     1       4.334  -1.162   0.736  0.00  0.00    +0.021 A 
ATOM      6  C   UNL     1       5.015   0.050   0.881  0.00  0.00    +0.001 A 
ATOM      7  C   UNL     1       4.526   1.199   0.270  0.00  0.00    +0.004 A 
ATOM      8  C   UNL     1       3.352   1.139  -0.479  0.00  0.00    +0.046 A 
BRANCH   3   9
ATOM      9  O   UNL     1       1.563  -0.100  -1.423  0.00  0.00    -0.506 OA
ATOM     10  H   UNL     1       1.357   0.806  -1.710  0.00  0.00    +0.292 HD
ENDBRANCH   3   9
ENDBRANCH   1   4
BRANCH   1  11
ATOM     11  C   UNL     1       0.661  -2.564  -0.095  0.00  0.00    +0.109 C 
BRANCH  11  12
ATOM     12  C   UNL     1      -0.146  -3.864  -0.142  0.00  0.00    +0.014 C 
BRANCH  12  13
ATOM     13  C   UNL     1      -1.639  -3.548  -0.082  0.00  0.00    +0.013 C 
BRANCH  13  14
ATOM     14  C   UNL     1      -2.511  -4.793  -0.159  0.00  0.00    +0.127 C 
BRANCH  14  15
ATOM     15  P   UNL     1      -4.259  -4.405  -0.086  0.00  0.00    +0.328 P 
ATOM     16  O   UNL     1      -4.740  -3.437  -1.108  0.00  0.00    -0.259 OA
BRANCH  15  17
ATOM     17  O   UNL     1      -4.520  -3.962   1.432  0.00  0.00    -0.324 OA
ATOM     18  H   UNL     1      -3.864  -3.356   1.820  0.00  0.00    +0.220 HD
ENDBRANCH  15  17
BRANCH  15  19
ATOM     19  O   UNL     1      -4.957  -5.846  -0.135  0.00  0.00    -0.324 OA
ATOM     20  H   UNL     1      -4.862  -6.306  -0.989  0.00  0.00    +0.220 HD
ENDBRANCH  15  19
ENDBRANCH  14  15
ENDBRANCH  13  14
ENDBRANCH  12  13
ENDBRANCH  11  12
ENDBRANCH   1  11
TORSDOF 9
