REMARK  Name = 
REMARK  13 active torsions:
REMARK  status: ('A' for Active; 'I' for Inactive)
REMARK    1  A    between atoms: C_2  and  C_3
REMARK    2  A    between atoms: C_2  and  N_12
REMARK    3  A    between atoms: C_2  and  C_18
REMARK    4  A    between atoms: C_3  and  O_4
REMARK    5  A    between atoms: O_4  and  C_5
REMARK    6  A    between atoms: C_5  and  C_7
REMARK    7  A    between atoms: C_7  and  C_8
REMARK    8  A    between atoms: C_8  and  C_9
REMARK    9  A    between atoms: C_9  and  O_10
REMARK   10  A    between atoms: C_13  and  C_15
REMARK   11  A    between atoms: C_18  and  O_20
REMARK   12  A    between atoms: C_18  and  C_21
REMARK   13  A    between atoms: C_24  and  N_27
REMARK                            x       y       z     vdW  Elec       q    Type
REMARK                         _______ _______ _______ _____ _____    ______ ____
ROOT
ATOM      1  C   UNL     1       2.087   1.541  -2.050  0.00  0.00    +0.143 C 
ENDROOT
BRANCH   1   2
ATOM      2  N   UNL     1       2.875   0.850  -3.081  0.00  0.00    -0.304 N 
ATOM      3  H   UNL     1       3.851   1.116  -3.175  0.00  0.00    +0.149 HD
ATOM      4  C   UNL     1       2.377  -0.190  -3.844  0.00  0.00    +0.246 C 
ATOM      5  O   UNL     1       1.242  -0.637  -3.680  0.00  0.00    -0.273 OA
BRANCH   4   6
ATOM      6  C   UNL     1       3.318  -0.766  -4.905  0.00  0.00    +0.256 C 
ATOM      7 CL   UNL     1       4.776  -1.419  -4.126  0.00  0.00    -0.094 Cl
ATOM      8 CL   UNL     1       3.757   0.509  -6.061  0.00  0.00    -0.094 Cl
ENDBRANCH   4   6
ENDBRANCH   1   2
BRANCH   1   9
ATOM      9  C   UNL     1       2.725   1.401  -0.640  0.00  0.00    +0.168 C 
BRANCH   9  10
ATOM     10  C   UNL     1       2.671   0.019  -0.008  0.00  0.00    -0.017 A 
ATOM     11  C   UNL     1       3.478  -1.029  -0.479  0.00  0.00    +0.013 A 
ATOM     12  C   UNL     1       3.515  -2.263   0.176  0.00  0.00    +0.084 A 
ATOM     13  C   UNL     1       2.751  -2.449   1.331  0.00  0.00    +0.273 A 
ATOM     14  C   UNL     1       1.912  -1.431   1.798  0.00  0.00    +0.084 A 
ATOM     15  C   UNL     1       1.869  -0.206   1.123  0.00  0.00    +0.013 A 
BRANCH  13  16
ATOM     16  N   UNL     1       2.872  -3.701   2.088  0.00  0.00    +0.080 N 
ATOM     17  O   UNL     1       3.627  -4.576   1.641  0.00  0.00    +0.041 OA
ATOM     18  O   UNL     1       2.229  -3.800   3.144  0.00  0.00    -0.576 OA
ENDBRANCH  13  16
ENDBRANCH   9  10
BRANCH   9  19
ATOM     19  O   UNL     1       4.095   1.835  -0.688  0.00  0.00    -0.385 OA
ATOM     20  H   UNL     1       4.518   1.522   0.132  0.00  0.00    +0.210 HD
ENDBRANCH   9  19
ENDBRANCH   1   9
BRANCH   1  21
ATOM     21  C   UNL     1       1.963   3.037  -2.430  0.00  0.00    +0.257 C 
BRANCH  21  22
ATOM     22  O   UNL     1       1.196   3.790  -1.468  0.00  0.00    -0.463 OA
BRANCH  22  23
ATOM     23  C   UNL     1      -0.151   3.664  -1.565  0.00  0.00    +0.308 C 
ATOM     24  O   UNL     1      -0.744   2.982  -2.385  0.00  0.00    -0.251 OA
BRANCH  23  25
ATOM     25  C   UNL     1      -0.844   4.449  -0.485  0.00  0.00    +0.132 C 
BRANCH  25  26
ATOM     26  C   UNL     1      -1.112   5.880  -0.905  0.00  0.00    +0.131 C 
BRANCH  26  27
ATOM     27  C   UNL     1      -1.925   5.994  -2.169  0.00  0.00    +0.305 C 
ATOM     28  O   UNL     1      -1.511   6.542  -3.181  0.00  0.00    -0.251 OA
BRANCH  27  29
ATOM     29  O   UNL     1      -3.171   5.493  -2.075  0.00  0.00    -0.481 OA
ATOM     30  H   UNL     1      -3.402   5.084  -1.221  0.00  0.00    +0.295 HD
ENDBRANCH  27  29
ENDBRANCH  26  27
ENDBRANCH  25  26
ENDBRANCH  23  25
ENDBRANCH  22  23
ENDBRANCH  21  22
ENDBRANCH   1  21
TORSDOF 13
