REMARK  Name = 
REMARK  3 active torsions:
REMARK  status: ('A' for Active; 'I' for Inactive)
REMARK    1  A    between atoms: C_1  and  C_2
REMARK    2  A    between atoms: C_2  and  N_3
REMARK    3  A    between atoms: C_10  and  C_11
REMARK                            x       y       z     vdW  Elec       q    Type
REMARK                         _______ _______ _______ _____ _____    ______ ____
ROOT
ATOM      1  N   UNL     1       2.882   0.877  -1.022  0.00  0.00    -0.308 N 
ATOM      2  C   UNL     1       2.622   2.303  -0.918  0.00  0.00    +0.054 A 
ATOM      3  C   UNL     1       2.056   2.876   0.231  0.00  0.00    +0.026 A 
ATOM      4  C   UNL     1       1.793   4.248   0.295  0.00  0.00    +0.002 A 
ATOM      5  C   UNL     1       2.084   5.073  -0.787  0.00  0.00    +0.001 A 
ATOM      6  C   UNL     1       2.658   4.535  -1.937  0.00  0.00    +0.012 A 
ATOM      7  C   UNL     1       2.935   3.164  -2.002  0.00  0.00    +0.024 A 
ATOM      8  C   UNL     1       3.539   2.541  -3.158  0.00  0.00    +0.080 A 
ATOM      9  N   UNL     1       3.966   3.079  -4.333  0.00  0.00    -0.276 N 
ATOM     10  H   UNL     1       3.935   4.046  -4.636  0.00  0.00    +0.189 HD
ATOM     11  N   UNL     1       4.492   2.169  -5.176  0.00  0.00    -0.178 NA
ATOM     12  C   UNL     1       4.388   1.008  -4.509  0.00  0.00    +0.073 A 
ATOM     13  C   UNL     1       4.867  -0.263  -5.106  0.00  0.00    +0.068 C 
ATOM     14  C   UNL     1       3.792   1.196  -3.243  0.00  0.00    +0.087 A 
ATOM     15  C   UNL     1       3.453   0.283  -2.175  0.00  0.00    +0.263 A 
ATOM     16  O   UNL     1       3.641  -0.926  -2.291  0.00  0.00    -0.267 OA
ENDROOT
BRANCH   1  18
ATOM     17  C   UNL     1       0.952  -0.417  -0.198  0.00  0.00    +0.027 C 
ATOM     18  C   UNL     1       2.413  -0.042   0.012  0.00  0.00    +0.122 C 
ENDBRANCH   1  18
TORSDOF 1
