REMARK  Name = 
REMARK  9 active torsions:
REMARK  status: ('A' for Active; 'I' for Inactive)
REMARK    1  A    between atoms: C_1  and  N_2
REMARK    2  A    between atoms: N_2  and  C_3
REMARK    3  A    between atoms: C_4  and  C_6
REMARK    4  A    between atoms: C_8  and  C_22
REMARK    5  A    between atoms: C_10  and  N_11
REMARK    6  A    between atoms: C_12  and  C_14
REMARK    7  A    between atoms: C_17  and  C_18
REMARK    8  A    between atoms: C_25  and  C_28
REMARK    9  A    between atoms: N_30  and  O_31
REMARK                            x       y       z     vdW  Elec       q    Type
REMARK                         _______ _______ _______ _____ _____    ______ ____
ROOT
ATOM      1  C   UNL     1       4.764   0.165  -1.323  0.00  0.00    +0.039 A 
ATOM      2  C   UNL     1       5.520  -1.002  -1.453  0.00  0.00    +0.036 A 
ATOM      3  C   UNL     1       6.910  -0.954  -1.353  0.00  0.00    +0.035 A 
ATOM      4  C   UNL     1       7.541   0.295  -1.284  0.00  0.00    +0.032 A 
ATOM      5  C   UNL     1       6.825   1.505  -1.246  0.00  0.00    -0.015 A 
ATOM      6  C   UNL     1       5.422   1.410  -1.240  0.00  0.00    +0.021 A 
ENDROOT
BRANCH   5   7
ATOM      7  C   UNL     1       7.529   2.812  -1.199  0.00  0.00    -0.018 A 
ATOM      8  C   UNL     1       7.000   3.954  -1.828  0.00  0.00    +0.009 A 
ATOM      9  C   UNL     1       7.647   5.196  -1.764  0.00  0.00    +0.014 A 
ATOM     10  C   UNL     1       8.854   5.323  -1.071  0.00  0.00    +0.039 A 
ATOM     11  C   UNL     1       9.427   4.195  -0.484  0.00  0.00    +0.014 A 
ATOM     12  C   UNL     1       8.766   2.961  -0.540  0.00  0.00    +0.009 A 
BRANCH  10  13
ATOM     13  C   UNL     1       9.554   6.628  -0.941  0.00  0.00    +0.267 C 
ATOM     14  N   UNL     1       8.757   7.753  -0.967  0.00  0.00    -0.193 N 
ATOM     15  H   UNL     1       7.765   7.716  -0.761  0.00  0.00    +0.183 HD
ATOM     16  O   UNL     1      10.766   6.693  -0.754  0.00  0.00    -0.268 OA
BRANCH  14  17
ATOM     17  O   UNL     1       9.416   8.959  -0.624  0.00  0.00    -0.295 OA
ATOM     18  H   UNL     1      10.345   8.661  -0.508  0.00  0.00    +0.241 HD
ENDBRANCH  14  17
ENDBRANCH  10  13
ENDBRANCH   5   7
BRANCH   1  21
ATOM     19  C   UNL     1       1.101  -0.691  -0.634  0.00  0.00    +0.132 C 
ATOM     20  N   UNL     1       2.550  -0.825  -0.633  0.00  0.00    -0.304 N 
ATOM     21  C   UNL     1       3.272   0.168  -1.308  0.00  0.00    +0.246 C 
ATOM     22  O   UNL     1       2.710   1.106  -1.879  0.00  0.00    -0.270 OA
ATOM     23  C   UNL     1       3.116  -1.851   0.231  0.00  0.00    +0.132 C 
ENDBRANCH   1  21
BRANCH   3  24
ATOM     24  N   UNL     1       7.620  -2.180  -1.300  0.00  0.00    -0.281 N 
ATOM     25  H   UNL     1       7.074  -3.024  -1.413  0.00  0.00    +0.155 HD
ATOM     26  C   UNL     1       8.926  -2.328  -0.848  0.00  0.00    +0.248 C 
ATOM     27  O   UNL     1       9.647  -1.431  -0.426  0.00  0.00    -0.270 OA
BRANCH  26  28
ATOM     28  C   UNL     1       9.457  -3.718  -0.788  0.00  0.00    +0.037 A 
ATOM     29  C   UNL     1      10.393  -4.006   0.214  0.00  0.00    +0.013 A 
ATOM     30  C   UNL     1      10.951  -5.280   0.319  0.00  0.00    +0.004 A 
ATOM     31  C   UNL     1      10.580  -6.290  -0.574  0.00  0.00    -0.050 A 
ATOM     32  C   UNL     1      11.187  -7.654  -0.437  0.00  0.00    +0.044 C 
ATOM     33  C   UNL     1       9.660  -5.994  -1.591  0.00  0.00    +0.004 A 
ATOM     34  C   UNL     1       9.098  -4.714  -1.700  0.00  0.00    +0.013 A 
ENDBRANCH  26  28
ENDBRANCH   3  24
TORSDOF 6
