REMARK  Name = 
REMARK  7 active torsions:
REMARK  status: ('A' for Active; 'I' for Inactive)
REMARK    1  A    between atoms: O_1  and  C_2
REMARK    2  A    between atoms: C_2  and  C_4
REMARK    3  A    between atoms: C_4  and  C_5
REMARK    4  A    between atoms: C_5  and  C_6
REMARK    5  A    between atoms: C_6  and  C_7
REMARK    6  A    between atoms: C_9  and  C_12
REMARK    7  A    between atoms: C_14  and  N_18
REMARK                            x       y       z     vdW  Elec       q    Type
REMARK                         _______ _______ _______ _____ _____    ______ ____
ROOT
ATOM      1  C   UNL     1       7.173  -1.165  -1.453  0.00  0.00    +0.228 A 
ATOM      2  O   UNL     1       7.870  -2.327  -1.308  0.00  0.00    -0.338 OA
ATOM      3  N   UNL     1       9.203  -1.974  -1.141  0.00  0.00    -0.056 NA
ATOM      4  C   UNL     1       9.192  -0.632  -1.187  0.00  0.00    +0.202 A 
ATOM      5  N   UNL     1       7.934  -0.095  -1.392  0.00  0.00    -0.191 NA
ENDROOT
BRANCH   4   6
ATOM      6  C   UNL     1      10.395   0.186  -1.052  0.00  0.00    +0.029 A 
ATOM      7  C   UNL     1      10.315   1.587  -1.100  0.00  0.00    +0.012 A 
ATOM      8  C   UNL     1      11.463   2.379  -0.974  0.00  0.00    +0.007 A 
ATOM      9  C   UNL     1      12.711   1.782  -0.794  0.00  0.00    +0.084 A 
ATOM     10  C   UNL     1      12.801   0.387  -0.744  0.00  0.00    +0.274 A 
ATOM     11  C   UNL     1      11.655  -0.412  -0.872  0.00  0.00    +0.096 A 
BRANCH  10  12
ATOM     12  N   UNL     1      14.113  -0.249  -0.554  0.00  0.00    +0.080 N 
ATOM     13  O   UNL     1      15.103   0.491  -0.452  0.00  0.00    +0.041 OA
ATOM     14  O   UNL     1      14.155  -1.486  -0.509  0.00  0.00    -0.576 OA
ENDBRANCH  10  12
ENDBRANCH   4   6
BRANCH   1  15
ATOM     15  C   UNL     1       5.710  -1.312  -1.658  0.00  0.00    +0.099 C 
BRANCH  15  16
ATOM     16  C   UNL     1       5.078  -0.209  -2.505  0.00  0.00    +0.020 C 
BRANCH  16  17
ATOM     17  C   UNL     1       5.636  -0.125  -3.928  0.00  0.00    +0.121 C 
BRANCH  17  18
ATOM     18  C   UNL     1       4.930   0.941  -4.735  0.00  0.00    +0.305 C 
ATOM     19  O   UNL     1       3.996   1.621  -4.340  0.00  0.00    -0.251 OA
BRANCH  18  20
ATOM     20  O   UNL     1       5.439   1.068  -5.981  0.00  0.00    -0.481 OA
ATOM     21  H   UNL     1       6.186   0.468  -6.168  0.00  0.00    +0.295 HD
ENDBRANCH  18  20
ENDBRANCH  17  18
ENDBRANCH  16  17
ENDBRANCH  15  16
ENDBRANCH   1  15
TORSDOF 7
