REMARK  Name = 
REMARK  5 active torsions:
REMARK  status: ('A' for Active; 'I' for Inactive)
REMARK    1  A    between atoms: C_2  and  C_3
REMARK    2  A    between atoms: C_5  and  N_7
REMARK    3  A    between atoms: C_12  and  N_13
REMARK    4  A    between atoms: C_18  and  O_20
REMARK    5  A    between atoms: C_21  and  O_23
REMARK                            x       y       z     vdW  Elec       q    Type
REMARK                         _______ _______ _______ _____ _____    ______ ____
ROOT
ATOM      1  N   UNL     1       4.485   1.320   2.541  0.00  0.00    -0.302 N 
ATOM      2  C   UNL     1       5.487   0.938   3.407  0.00  0.00    +0.149 A 
ATOM      3  C   UNL     1       5.732   1.991   4.290  0.00  0.00    +0.071 A 
ATOM      4  C   UNL     1       6.739   1.787   5.247  0.00  0.00    +0.130 A 
ATOM      5  N   UNL     1       7.365   0.596   5.288  0.00  0.00    -0.220 NA
ATOM      6  C   UNL     1       7.030  -0.337   4.381  0.00  0.00    +0.225 A 
ATOM      7  C   UNL     1       4.840   3.028   3.920  0.00  0.00    +0.044 A 
ATOM      8  I   UNL     1       4.652   4.873   4.745  0.00  0.00    -0.041 I 
ATOM      9  N   UNL     1       6.123  -0.249   3.389  0.00  0.00    -0.218 NA
ATOM     10  C   UNL     1       4.086   2.605   2.856  0.00  0.00    +0.105 A 
ENDROOT
BRANCH   1  15
ATOM     11  C   UNL     1       2.182  -0.008   0.158  0.00  0.00    +0.149 C 
ATOM     12  C   UNL     1       0.665   0.054   0.125  0.00  0.00    +0.041 C 
ATOM     13  C   UNL     1       2.720  -1.331   0.690  0.00  0.00    +0.176 C 
ATOM     14  C   UNL     1       3.980  -0.945   1.470  0.00  0.00    +0.195 C 
ATOM     15  C   UNL     1       4.032   0.588   1.364  0.00  0.00    +0.252 C 
ATOM     16  O   UNL     1       2.691   1.003   1.036  0.00  0.00    -0.348 OA
BRANCH  13  17
ATOM     17  O   UNL     1       2.989  -2.238  -0.376  0.00  0.00    -0.387 OA
ATOM     18  H   UNL     1       3.962  -2.357  -0.381  0.00  0.00    +0.210 HD
ENDBRANCH  13  17
BRANCH  14  19
ATOM     19  O   UNL     1       5.134  -1.572   0.891  0.00  0.00    -0.385 OA
ATOM     20  H   UNL     1       5.870  -1.383   1.512  0.00  0.00    +0.210 HD
ENDBRANCH  14  19
ENDBRANCH   1  15
BRANCH   4  21
ATOM     21  N   UNL     1       7.145   2.738   6.168  0.00  0.00    -0.343 N 
ATOM     22  H   UNL     1       7.656   2.331   6.940  0.00  0.00    +0.144 HD
ATOM     23  H   UNL     1       6.475   3.464   6.383  0.00  0.00    +0.144 HD
ENDBRANCH   4  21
TORSDOF 4
