REMARK  Name = 
REMARK  8 active torsions:
REMARK  status: ('A' for Active; 'I' for Inactive)
REMARK    1  A    between atoms: C_2  and  C_3
REMARK    2  A    between atoms: C_12  and  C_17
REMARK    3  A    between atoms: C_22  and  C_25
REMARK    4  A    between atoms: N_27  and  C_28
REMARK    5  A    between atoms: C_28  and  C_29
REMARK    6  A    between atoms: C_29  and  N_30
REMARK    7  A    between atoms: N_30  and  C_31
REMARK    8  A    between atoms: N_30  and  C_32
REMARK                            x       y       z     vdW  Elec       q    Type
REMARK                         _______ _______ _______ _____ _____    ______ ____
ROOT
ATOM      1  C   UNL     1       0.868  -5.488   1.561  0.00  0.00    +0.250 C 
ATOM      2  N   UNL     1       0.918  -6.867   1.647  0.00  0.00    -0.261 N 
ATOM      3  H   UNL     1       1.573  -7.401   1.100  0.00  0.00    +0.157 HD
ATOM      4  C   UNL     1       0.258  -7.624   2.594  0.00  0.00    +0.165 A 
ATOM      5  S   UNL     1      -1.013  -6.988   3.543  0.00  0.00    -0.060 S 
ATOM      6  C   UNL     1      -1.143  -8.467   4.372  0.00  0.00    +0.081 A 
ATOM      7  C   UNL     1      -0.243  -9.382   3.858  0.00  0.00    +0.135 A 
ATOM      8  N   UNL     1       0.541  -8.893   2.800  0.00  0.00    -0.220 NA
ATOM      9  O   UNL     1       0.243  -4.753   2.322  0.00  0.00    -0.270 OA
ENDROOT
BRANCH   1  18
ATOM     10  C   UNL     1       2.071  -0.079   0.053  0.00  0.00    +0.036 C 
ATOM     11  C   UNL     1       2.566  -1.278  -0.700  0.00  0.00    -0.006 A 
ATOM     12  C   UNL     1       2.385  -2.669  -0.454  0.00  0.00    +0.005 A 
ATOM     13  C   UNL     1       3.048  -3.364  -1.465  0.00  0.00    +0.047 A 
ATOM     14  N   UNL     1       3.593  -2.420  -2.310  0.00  0.00    -0.350 N 
ATOM     15  H   UNL     1       4.108  -2.614  -3.159  0.00  0.00    +0.166 HD
ATOM     16  C   UNL     1       3.069  -4.765  -1.520  0.00  0.00    +0.027 A 
ATOM     17  C   UNL     1       2.365  -5.480  -0.532  0.00  0.00    +0.015 A 
ATOM     18  C   UNL     1       1.672  -4.818   0.485  0.00  0.00    +0.038 A 
ATOM     19  C   UNL     1       1.691  -3.408   0.521  0.00  0.00    +0.023 A 
ATOM     20  C   UNL     1       3.228  -1.163  -1.905  0.00  0.00    +0.106 A 
ATOM     21  C   UNL     1       3.434   0.057  -2.635  0.00  0.00    +0.261 C 
ATOM     22  O   UNL     1       4.038   0.135  -3.697  0.00  0.00    -0.269 OA
ATOM     23  N   UNL     1       2.829   1.155  -2.064  0.00  0.00    -0.310 N 
ATOM     24  H   UNL     1       3.003   2.014  -2.570  0.00  0.00    +0.149 HD
ATOM     25  C   UNL     1       2.517   1.239  -0.642  0.00  0.00    +0.112 C 
ATOM     26  C   UNL     1       2.581  -0.067   1.499  0.00  0.00    +0.014 C 
ENDBRANCH   1  18
BRANCH   7  27
ATOM     27  C   UNL     1      -0.128 -10.743   4.389  0.00  0.00    +0.263 C 
ATOM     28  N   UNL     1       0.778 -11.538   3.730  0.00  0.00    -0.309 N 
ATOM     29  H   UNL     1       1.380 -11.107   3.035  0.00  0.00    +0.149 HD
ATOM     30  O   UNL     1      -0.791 -11.134   5.346  0.00  0.00    -0.269 OA
BRANCH  28  31
ATOM     31  C   UNL     1       1.073 -12.880   4.187  0.00  0.00    +0.120 C 
BRANCH  31  32
ATOM     32  C   UNL     1       1.609 -13.778   3.061  0.00  0.00    +0.102 C 
BRANCH  32  33
ATOM     33  N   UNL     1       2.852 -13.297   2.418  0.00  0.00    -0.307 NA
ATOM     34  C   UNL     1       3.179 -14.171   1.285  0.00  0.00    +0.104 C 
ATOM     35  C   UNL     1       3.976 -13.283   3.359  0.00  0.00    +0.104 C 
ENDBRANCH  32  33
ENDBRANCH  31  32
ENDBRANCH  28  31
ENDBRANCH   7  27
TORSDOF 5
