REMARK  Name = 
REMARK  17 active torsions:
REMARK  status: ('A' for Active; 'I' for Inactive)
REMARK    1  A    between atoms: C_2  and  O_3
REMARK    2  A    between atoms: C_2  and  C_4
REMARK    3  A    between atoms: C_2  and  C_9
REMARK    4  A    between atoms: C_4  and  C_5
REMARK    5  A    between atoms: C_5  and  C_6
REMARK    6  A    between atoms: C_6  and  O_7
REMARK    7  A    between atoms: C_10  and  C_11
REMARK    8  A    between atoms: C_12  and  C_13
REMARK    9  A    between atoms: C_13  and  C_14
REMARK   10  A    between atoms: C_15  and  C_16
REMARK   11  A    between atoms: C_16  and  C_17
REMARK   12  A    between atoms: C_18  and  C_19
REMARK   13  A    between atoms: C_19  and  C_20
REMARK   14  A    between atoms: C_21  and  C_22
REMARK   15  A    between atoms: C_22  and  C_23
REMARK   16  A    between atoms: C_24  and  C_25
REMARK   17  A    between atoms: C_25  and  C_26
REMARK                            x       y       z     vdW  Elec       q    Type
REMARK                         _______ _______ _______ _____ _____    ______ ____
ROOT
ATOM      1  C   UNL     1       6.768  -0.886  -2.106  0.00  0.00    +0.054 C 
ENDROOT
BRANCH   1   2
ATOM      2  C   UNL     1       8.208  -0.966  -2.520  0.00  0.00    -0.027 C 
ATOM      3  C   UNL     1       9.262  -0.678  -1.737  0.00  0.00    -0.027 C 
BRANCH   3   4
ATOM      4  C   UNL     1       9.203  -0.107  -0.349  0.00  0.00    +0.053 C 
BRANCH   4   5
ATOM      5  C   UNL     1       9.112  -1.168   0.714  0.00  0.00    -0.027 C 
ATOM      6  C   UNL     1       8.930  -0.912   2.020  0.00  0.00    -0.027 C 
BRANCH   6   7
ATOM      7  C   UNL     1       8.752   0.455   2.623  0.00  0.00    +0.053 C 
BRANCH   7   8
ATOM      8  C   UNL     1      10.065   1.107   2.954  0.00  0.00    -0.027 C 
ATOM      9  C   UNL     1      10.190   2.383   3.357  0.00  0.00    -0.027 C 
BRANCH   9  10
ATOM     10  C   UNL     1       9.050   3.324   3.624  0.00  0.00    +0.053 C 
BRANCH  10  11
ATOM     11  C   UNL     1       8.703   4.163   2.428  0.00  0.00    -0.027 C 
ATOM     12  C   UNL     1       7.659   5.008   2.364  0.00  0.00    -0.031 C 
BRANCH  12  13
ATOM     13  C   UNL     1       6.680   5.278   3.472  0.00  0.00    +0.023 C 
ATOM     14  C   UNL     1       5.258   4.930   3.059  0.00  0.00    +0.008 C 
ENDBRANCH  12  13
ENDBRANCH  10  11
ENDBRANCH   9  10
ENDBRANCH   7   8
ENDBRANCH   6   7
ENDBRANCH   4   5
ENDBRANCH   3   4
ENDBRANCH   1   2
BRANCH   1  16
ATOM     15  C   UNL     1       4.701   0.459  -2.604  0.00  0.00    -0.004 C 
ATOM     16  C   UNL     1       5.975   0.129  -2.881  0.00  0.00    -0.023 C 
BRANCH  15  18
ATOM     17  C   UNL     1       2.655   0.138  -1.267  0.00  0.00    +0.004 C 
ATOM     18  C   UNL     1       3.930  -0.159  -1.553  0.00  0.00    -0.002 C 
BRANCH  17  19
ATOM     19  C   UNL     1       1.869  -0.653  -0.259  0.00  0.00    +0.138 C 
BRANCH  19  20
ATOM     20  O   UNL     1       1.384   0.231   0.739  0.00  0.00    -0.388 OA
ATOM     21  H   UNL     1       0.793   0.874   0.313  0.00  0.00    +0.210 HD
ENDBRANCH  19  20
BRANCH  19  22
ATOM     22  C   UNL     1       0.703  -1.404  -0.912  0.00  0.00    +0.046 C 
BRANCH  22  23
ATOM     23  C   UNL     1       1.175  -2.374  -1.998  0.00  0.00    +0.123 C 
BRANCH  23  24
ATOM     24  C   UNL     1       0.039  -3.150  -2.614  0.00  0.00    +0.305 C 
ATOM     25  O   UNL     1      -1.138  -3.050  -2.301  0.00  0.00    -0.251 OA
BRANCH  24  26
ATOM     26  O   UNL     1       0.463  -3.989  -3.584  0.00  0.00    -0.481 OA
ATOM     27  H   UNL     1       1.428  -3.958  -3.739  0.00  0.00    +0.295 HD
ENDBRANCH  24  26
ENDBRANCH  23  24
ENDBRANCH  22  23
ENDBRANCH  19  22
ENDBRANCH  17  19
ENDBRANCH  15  18
ENDBRANCH   1  16
TORSDOF 16
