REMARK  Name = 
REMARK  5 active torsions:
REMARK  status: ('A' for Active; 'I' for Inactive)
REMARK    1  A    between atoms: C_2  and  C_5
REMARK    2  A    between atoms: C_9  and  N_10
REMARK    3  A    between atoms: C_17  and  C_18
REMARK    4  A    between atoms: C_18  and  C_19
REMARK    5  A    between atoms: C_19  and  N_20
REMARK                            x       y       z     vdW  Elec       q    Type
REMARK                         _______ _______ _______ _____ _____    ______ ____
ROOT
ATOM      1  N   UNL     1       0.392  -8.414  -0.154  0.00  0.00    -0.269 N 
ATOM      2  H   UNL     1      -0.138  -8.402  -1.020  0.00  0.00    +0.156 HD
ATOM      3  C   UNL     1       0.911  -7.199   0.220  0.00  0.00    +0.310 C 
ATOM      4  N   UNL     1       0.427  -6.102  -0.437  0.00  0.00    -0.248 N 
ATOM      5  H   UNL     1       0.732  -5.207  -0.086  0.00  0.00    +0.158 HD
ATOM      6  C   UNL     1      -0.470  -6.132  -1.461  0.00  0.00    +0.166 A 
ATOM      7  S   UNL     1      -1.084  -4.626  -1.959  0.00  0.00    -0.057 S 
ATOM      8  C   UNL     1      -2.040  -5.433  -3.143  0.00  0.00    +0.013 A 
ATOM      9  C   UNL     1      -1.793  -6.793  -3.069  0.00  0.00    +0.124 A 
ATOM     10  N   UNL     1      -0.907  -7.192  -2.094  0.00  0.00    -0.233 NA
ATOM     11  O   UNL     1       1.734  -7.013   1.115  0.00  0.00    -0.252 OA
ENDROOT
BRANCH   1  14
ATOM     12  C   UNL     1      -0.091 -12.021   0.522  0.00  0.00    +0.057 A 
ATOM     13  C   UNL     1      -0.095 -10.762  -0.104  0.00  0.00    +0.035 A 
ATOM     14  C   UNL     1       0.485  -9.646   0.514  0.00  0.00    +0.035 A 
ATOM     15  C   UNL     1       1.069  -9.797   1.771  0.00  0.00    +0.023 A 
ATOM     16  C   UNL     1       1.084 -11.041   2.402  0.00  0.00    +0.002 A 
ATOM     17  C   UNL     1       0.510 -12.148   1.781  0.00  0.00    +0.012 A 
BRANCH  12  19
ATOM     18  F   UNL     1      -0.714 -14.341   0.591  0.00  0.00    -0.166 F 
ATOM     19  C   UNL     1      -0.733 -13.203  -0.158  0.00  0.00    +0.417 C 
ATOM     20  F   UNL     1      -2.042 -12.982  -0.463  0.00  0.00    -0.166 F 
ATOM     21  F   UNL     1      -0.126 -13.523  -1.335  0.00  0.00    -0.166 F 
ENDBRANCH  12  19
ENDBRANCH   1  14
BRANCH   8  22
ATOM     22  C   UNL     1      -2.953  -4.657  -4.049  0.00  0.00    +0.062 C 
BRANCH  22  23
ATOM     23  C   UNL     1      -3.578  -5.543  -5.129  0.00  0.00    +0.108 C 
BRANCH  23  24
ATOM     24  N   UNL     1      -4.514  -4.809  -5.968  0.00  0.00    -0.328 N 
ATOM     25  H   UNL     1      -4.237  -3.882  -6.277  0.00  0.00    +0.147 HD
ATOM     26  C   UNL     1      -5.053  -5.567  -7.016  0.00  0.00    +0.136 A 
ATOM     27  C   UNL     1      -5.841  -5.008  -8.031  0.00  0.00    +0.077 A 
ATOM     28  S   UNL     1      -6.335  -3.375  -8.278  0.00  0.00    -0.092 S 
ATOM     29  C   UNL     1      -7.253  -3.784  -9.661  0.00  0.00    +0.048 A 
ATOM     30  C   UNL     1      -7.171  -5.126  -9.954  0.00  0.00    +0.036 A 
ATOM     31  C   UNL     1      -6.358  -5.836  -9.023  0.00  0.00    +0.083 A 
ATOM     32  N   UNL     1      -6.113  -7.167  -9.073  0.00  0.00    -0.235 NA
ATOM     33  C   UNL     1      -5.354  -7.614  -8.074  0.00  0.00    +0.223 A 
ATOM     34  N   UNL     1      -4.833  -6.901  -7.068  0.00  0.00    -0.220 NA
ENDBRANCH  23  24
ENDBRANCH  22  23
ENDBRANCH   8  22
TORSDOF 5
