REMARK  Name = 
REMARK  16 active torsions:
REMARK  status: ('A' for Active; 'I' for Inactive)
REMARK    1  A    between atoms: C_2  and  C_3
REMARK    2  A    between atoms: C_2  and  C_23
REMARK    3  A    between atoms: C_2  and  C_26
REMARK    4  A    between atoms: C_3  and  P_4
REMARK    5  A    between atoms: P_4  and  O_5
REMARK    6  A    between atoms: P_4  and  C_7
REMARK    7  A    between atoms: C_7  and  N_9
REMARK    8  A    between atoms: C_7  and  C_20
REMARK    9  A    between atoms: C_10  and  O_12
REMARK   10  A    between atoms: O_12  and  C_13
REMARK   11  A    between atoms: C_13  and  C_14
REMARK   12  A    between atoms: C_20  and  C_21
REMARK   13  A    between atoms: C_20  and  C_22
REMARK   14  A    between atoms: C_23  and  O_24
REMARK   15  A    between atoms: C_28  and  C_29
REMARK   16  A    between atoms: C_29  and  N_30
REMARK                            x       y       z     vdW  Elec       q    Type
REMARK                         _______ _______ _______ _____ _____    ______ ____
ROOT
ATOM      1  P   UNL     1       1.957   2.296   1.439  0.00  0.00    +0.223 P 
ATOM      2  O   UNL     1       0.577   1.705   1.786  0.00  0.00    -0.289 OA
ENDROOT
BRANCH   1   3
ATOM      3  O   UNL     1       2.534   0.677   1.236  0.00  0.00    -0.342 OA
ATOM      4  H   UNL     1       2.183   0.175   2.004  0.00  0.00    +0.218 HD
ENDBRANCH   1   3
BRANCH   1   5
ATOM      5  C   UNL     1       1.941   2.428  -0.553  0.00  0.00    +0.118 C 
BRANCH   5   6
ATOM      6  C   UNL     1       2.554   1.181  -1.223  0.00  0.00    +0.137 C 
BRANCH   6   7
ATOM      7  C   UNL     1       2.293   1.084  -2.711  0.00  0.00    -0.033 A 
ATOM      8  C   UNL     1       3.154   1.617  -3.676  0.00  0.00    +0.004 A 
ATOM      9  C   UNL     1       2.897   1.408  -5.033  0.00  0.00    +0.001 A 
ATOM     10  C   UNL     1       1.793   0.654  -5.437  0.00  0.00    +0.005 A 
ATOM     11  C   UNL     1       0.928   0.102  -4.487  0.00  0.00    -0.034 A 
ATOM     12  C   UNL     1       1.172   0.351  -3.131  0.00  0.00    +0.009 A 
BRANCH  11  13
ATOM     13  C   UNL     1      -0.217  -0.792  -4.884  0.00  0.00    +0.113 C 
BRANCH  13  14
ATOM     14  N   UNL     1      -0.023  -2.140  -4.356  0.00  0.00    -0.326 NA
ATOM     15  H   UNL     1      -0.752  -2.752  -4.715  0.00  0.00    +0.119 HD
ATOM     16  H   UNL     1       0.862  -2.505  -4.709  0.00  0.00    +0.119 HD
ENDBRANCH  13  14
ENDBRANCH  11  13
ENDBRANCH   6   7
BRANCH   6  17
ATOM     17  C   UNL     1       4.040   1.072  -0.880  0.00  0.00    +0.313 C 
ATOM     18  O   UNL     1       4.743   2.027  -0.573  0.00  0.00    -0.250 OA
BRANCH  17  19
ATOM     19  O   UNL     1       4.536  -0.186  -0.982  0.00  0.00    -0.480 OA
ATOM     20  H   UNL     1       3.843  -0.843  -1.193  0.00  0.00    +0.295 HD
ENDBRANCH  17  19
ENDBRANCH   6  17
ENDBRANCH   5   6
ENDBRANCH   1   5
BRANCH   1  21
ATOM     21  C   UNL     1       1.347   4.008   1.653  0.00  0.00    +0.165 C 
BRANCH  21  22
ATOM     22  N   UNL     1       0.890   4.208   3.054  0.00  0.00    -0.269 N 
ATOM     23  H   UNL     1       0.096   4.806   3.231  0.00  0.00    +0.153 HD
ATOM     24  C   UNL     1       1.608   3.842   4.159  0.00  0.00    +0.401 C 
ATOM     25  O   UNL     1       2.587   3.112   4.127  0.00  0.00    -0.226 OA
BRANCH  24  26
ATOM     26  O   UNL     1       1.076   4.422   5.263  0.00  0.00    -0.446 OA
BRANCH  26  27
ATOM     27  C   UNL     1       1.587   3.977   6.530  0.00  0.00    +0.269 C 
BRANCH  27  28
ATOM     28  C   UNL     1       2.284   5.069   7.315  0.00  0.00    -0.010 A 
ATOM     29  C   UNL     1       3.676   5.219   7.237  0.00  0.00    +0.007 A 
ATOM     30  C   UNL     1       4.341   6.156   8.040  0.00  0.00    +0.000 A 
ATOM     31  C   UNL     1       3.621   6.961   8.919  0.00  0.00    +0.000 A 
ATOM     32  C   UNL     1       2.235   6.837   8.991  0.00  0.00    +0.000 A 
ATOM     33  C   UNL     1       1.570   5.901   8.190  0.00  0.00    +0.007 A 
ENDBRANCH  27  28
ENDBRANCH  26  27
ENDBRANCH  24  26
ENDBRANCH  21  22
BRANCH  21  34
ATOM     34  C   UNL     1       2.304   5.175   1.277  0.00  0.00    +0.013 C 
ATOM     35  C   UNL     1       3.623   5.199   2.055  0.00  0.00    +0.009 C 
ATOM     36  C   UNL     1       1.605   6.536   1.446  0.00  0.00    +0.009 C 
ENDBRANCH  21  34
ENDBRANCH   1  21
TORSDOF 14
