REMARK  Name = 
REMARK  8 active torsions:
REMARK  status: ('A' for Active; 'I' for Inactive)
REMARK    1  A    between atoms: C_1  and  O_2
REMARK    2  A    between atoms: O_2  and  C_3
REMARK    3  A    between atoms: C_6  and  N_9
REMARK    4  A    between atoms: C_12  and  N_13
REMARK    5  A    between atoms: C_14  and  C_16
REMARK    6  A    between atoms: C_16  and  C_18
REMARK    7  A    between atoms: C_21  and  O_22
REMARK    8  A    between atoms: O_22  and  C_23
REMARK                            x       y       z     vdW  Elec       q    Type
REMARK                         _______ _______ _______ _____ _____    ______ ____
ROOT
ATOM      1  N   UNL     1       5.309   3.317   3.566  0.00  0.00    -0.224 NA
ATOM      2  C   UNL     1       5.808   2.882   4.681  0.00  0.00    +0.173 A 
ATOM      3  S   UNL     1       5.503   1.336   5.490  0.00  0.00    -0.045 S 
ATOM      4  C   UNL     1       7.173   1.335   6.023  0.00  0.00    +0.100 A 
ATOM      5  C   UNL     1       7.700   2.587   6.000  0.00  0.00    +0.113 A 
ATOM      6  N   UNL     1       6.835   3.486   5.373  0.00  0.00    -0.322 N 
ATOM      7  H   UNL     1       7.295   4.250   4.897  0.00  0.00    +0.169 HD
ENDROOT
BRANCH   1  11
ATOM      8  C   UNL     1       2.891   1.149   0.838  0.00  0.00    +0.120 A 
ATOM      9  C   UNL     1       3.937   0.513   1.491  0.00  0.00    +0.048 A 
ATOM     10  C   UNL     1       4.739   1.225   2.383  0.00  0.00    +0.031 A 
ATOM     11  C   UNL     1       4.469   2.556   2.728  0.00  0.00    +0.067 A 
ATOM     12  C   UNL     1       3.416   3.180   2.068  0.00  0.00    +0.031 A 
ATOM     13  C   UNL     1       2.635   2.491   1.123  0.00  0.00    +0.048 A 
BRANCH   8  15
ATOM     14  C   UNL     1       1.350   1.025  -0.957  0.00  0.00    +0.277 C 
ATOM     15  O   UNL     1       2.219   0.360  -0.051  0.00  0.00    -0.495 OA
ENDBRANCH   8  15
ENDBRANCH   1  11
BRANCH   5  16
ATOM     16  N   UNL     1       8.950   2.972   6.406  0.00  0.00    -0.344 N 
ATOM     17  H   UNL     1       9.386   2.258   6.994  0.00  0.00    +0.144 HD
ATOM     18  H   UNL     1       8.926   3.867   6.890  0.00  0.00    +0.144 HD
ENDBRANCH   5  16
BRANCH   4  19
ATOM     19  C   UNL     1       7.901   0.070   6.354  0.00  0.00    +0.203 C 
ATOM     20  O   UNL     1       8.841   0.075   7.147  0.00  0.00    -0.286 OA
BRANCH  19  21
ATOM     21  C   UNL     1       7.504  -1.216   5.686  0.00  0.00    +0.023 A 
ATOM     22  C   UNL     1       7.640  -2.429   6.370  0.00  0.00    +0.015 A 
ATOM     23  C   UNL     1       7.183  -3.629   5.795  0.00  0.00    +0.046 A 
ATOM     24  C   UNL     1       6.567  -3.620   4.541  0.00  0.00    +0.120 A 
ATOM     25  C   UNL     1       6.475  -2.422   3.840  0.00  0.00    +0.046 A 
ATOM     26  C   UNL     1       7.002  -1.248   4.383  0.00  0.00    +0.015 A 
BRANCH  24  27
ATOM     27  O   UNL     1       5.956  -4.688   3.950  0.00  0.00    -0.495 OA
ATOM     28  C   UNL     1       6.627  -5.935   4.080  0.00  0.00    +0.277 C 
ENDBRANCH  24  27
ENDBRANCH  19  21
ENDBRANCH   4  19
TORSDOF 6
