REMARK  Name = 
REMARK  20 active torsions:
REMARK  status: ('A' for Active; 'I' for Inactive)
REMARK    1  A    between atoms: C_2  and  C_3
REMARK    2  A    between atoms: C_2  and  N_10
REMARK    3  A    between atoms: C_2  and  C_26
REMARK    4  A    between atoms: C_3  and  C_4
REMARK    5  A    between atoms: C_4  and  C_5
REMARK    6  A    between atoms: C_5  and  N_6
REMARK    7  A    between atoms: N_6  and  C_7
REMARK    8  A    between atoms: C_7  and  N_8
REMARK    9  A    between atoms: C_7  and  N_9
REMARK   10  A    between atoms: C_11  and  C_13
REMARK   11  A    between atoms: C_13  and  N_15
REMARK   12  A    between atoms: C_13  and  C_23
REMARK   13  A    between atoms: C_16  and  C_18
REMARK   14  A    between atoms: C_18  and  C_19
REMARK   15  A    between atoms: C_19  and  C_20
REMARK   16  A    between atoms: C_20  and  C_21
REMARK   17  A    between atoms: C_20  and  C_22
REMARK   18  A    between atoms: C_23  and  C_24
REMARK   19  A    between atoms: C_23  and  C_25
REMARK   20  A    between atoms: C_26  and  C_28
REMARK                            x       y       z     vdW  Elec       q    Type
REMARK                         _______ _______ _______ _____ _____    ______ ____
ROOT
ATOM      1  C   UNL     1       2.047   0.082   0.115  0.00  0.00    +0.146 C 
ENDROOT
BRANCH   1   2
ATOM      2  N   UNL     1       2.453   1.491   0.013  0.00  0.00    -0.304 N 
ATOM      3  H   UNL     1       3.163   1.859   0.644  0.00  0.00    +0.149 HD
ATOM      4  C   UNL     1       2.163   2.243  -1.108  0.00  0.00    +0.234 C 
ATOM      5  O   UNL     1       1.667   1.749  -2.118  0.00  0.00    -0.274 OA
BRANCH   4   6
ATOM      6  C   UNL     1       2.638   3.714  -1.031  0.00  0.00    +0.161 C 
BRANCH   6   7
ATOM      7  N   UNL     1       3.946   3.768  -1.682  0.00  0.00    -0.304 N 
ATOM      8  H   UNL     1       3.959   3.801  -2.695  0.00  0.00    +0.149 HD
ATOM      9  C   UNL     1       5.094   3.427  -1.010  0.00  0.00    +0.214 C 
ATOM     10  O   UNL     1       5.092   3.057   0.162  0.00  0.00    -0.276 OA
BRANCH   9  11
ATOM     11  C   UNL     1       6.352   3.515  -1.852  0.00  0.00    +0.096 C 
BRANCH  11  12
ATOM     12  C   UNL     1       7.167   2.225  -1.765  0.00  0.00    +0.012 C 
BRANCH  12  13
ATOM     13  C   UNL     1       6.420   0.970  -2.258  0.00  0.00    -0.017 C 
ATOM     14  C   UNL     1       7.294  -0.266  -2.048  0.00  0.00    +0.007 C 
ATOM     15  C   UNL     1       6.004   1.069  -3.725  0.00  0.00    +0.007 C 
ENDBRANCH  12  13
ENDBRANCH  11  12
ENDBRANCH   9  11
ENDBRANCH   6   7
BRANCH   6  16
ATOM     16  C   UNL     1       1.643   4.667  -1.729  0.00  0.00    +0.012 C 
ATOM     17  C   UNL     1       2.167   6.109  -1.752  0.00  0.00    +0.009 C 
ATOM     18  C   UNL     1       0.279   4.644  -1.031  0.00  0.00    +0.009 C 
ENDBRANCH   6  16
ENDBRANCH   4   6
ENDBRANCH   1   2
BRANCH   1  19
ATOM     19  C   UNL     1       1.920  -0.307   1.604  0.00  0.00    +0.208 C 
ATOM     20  O   UNL     1       2.858  -0.881   2.175  0.00  0.00    -0.288 OA
BRANCH  19  21
ATOM     21  C   UNL     1       0.674   0.073   2.259  0.00  0.00    +0.145 A 
ATOM     22  S   UNL     1       0.458  -0.187   3.943  0.00  0.00    -0.073 S 
ATOM     23  C   UNL     1      -1.089   0.545   3.846  0.00  0.00    +0.067 A 
ATOM     24  C   UNL     1      -1.349   0.910   2.543  0.00  0.00    +0.119 A 
ATOM     25  N   UNL     1      -0.343   0.631   1.635  0.00  0.00    -0.244 NA
ENDBRANCH  19  21
ENDBRANCH   1  19
BRANCH   1  26
ATOM     26  C   UNL     1       3.089  -0.801  -0.603  0.00  0.00    +0.032 C 
BRANCH  26  27
ATOM     27  C   UNL     1       2.743  -2.297  -0.616  0.00  0.00    +0.017 C 
BRANCH  27  28
ATOM     28  C   UNL     1       3.858  -3.116  -1.264  0.00  0.00    +0.083 C 
BRANCH  28  29
ATOM     29  N   UNL     1       5.151  -2.972  -0.575  0.00  0.00    -0.289 NA
ATOM     30  H   UNL     1       5.909  -2.544  -1.087  0.00  0.00    +0.125 HD
BRANCH  29  31
ATOM     31  C   UNL     1       5.331  -3.363   0.784  0.00  0.00    +0.188 C 
BRANCH  31  32
ATOM     32  N   UNL     1       5.069  -4.747   0.923  0.00  0.00    -0.303 NA
ATOM     33  H   UNL     1       4.159  -5.082   1.220  0.00  0.00    +0.121 HD
ATOM     34  H   UNL     1       5.813  -5.434   0.959  0.00  0.00    +0.121 HD
ENDBRANCH  31  32
BRANCH  31  35
ATOM     35  N   UNL     1       6.678  -3.144   1.179  0.00  0.00    -0.303 NA
ATOM     36  H   UNL     1       6.874  -2.742   2.093  0.00  0.00    +0.121 HD
ATOM     37  H   UNL     1       7.467  -3.145   0.542  0.00  0.00    +0.121 HD
ENDBRANCH  31  35
ENDBRANCH  29  31
ENDBRANCH  28  29
ENDBRANCH  27  28
ENDBRANCH  26  27
ENDBRANCH   1  26
TORSDOF 16
