REMARK  Name = 
REMARK  9 active torsions:
REMARK  status: ('A' for Active; 'I' for Inactive)
REMARK    1  A    between atoms: C_1  and  O_2
REMARK    2  A    between atoms: O_2  and  C_3
REMARK    3  A    between atoms: C_5  and  C_6
REMARK    4  A    between atoms: C_6  and  N_7
REMARK    5  A    between atoms: C_8  and  C_16
REMARK    6  A    between atoms: N_18  and  C_19
REMARK    7  A    between atoms: N_22  and  C_25
REMARK    8  A    between atoms: C_25  and  C_26
REMARK    9  A    between atoms: C_25  and  C_27
REMARK                            x       y       z     vdW  Elec       q    Type
REMARK                         _______ _______ _______ _____ _____    ______ ____
ROOT
ATOM      1  N   UNL     1       1.123   4.609   0.180  0.00  0.00    -0.332 N 
ATOM      2  C   UNL     1       0.245   5.510   0.846  0.00  0.00    +0.050 A 
ATOM      3  C   UNL     1       0.301   6.921   1.081  0.00  0.00    +0.026 A 
ATOM      4  C   UNL     1      -0.760   7.565   1.723  0.00  0.00    +0.002 A 
ATOM      5  C   UNL     1      -1.845   6.835   2.188  0.00  0.00    +0.001 A 
ATOM      6  C   UNL     1      -1.887   5.447   1.968  0.00  0.00    +0.010 A 
ATOM      7  C   UNL     1      -0.851   4.775   1.260  0.00  0.00    +0.001 A 
ATOM      8  C   UNL     1      -0.628   3.445   0.775  0.00  0.00    +0.041 A 
ATOM      9  C   UNL     1       0.568   3.324   0.055  0.00  0.00    +0.106 A 
ENDROOT
BRANCH   9  10
ATOM     10  C   UNL     1       0.870   2.084  -0.818  0.00  0.00    +0.261 C 
ATOM     11  N   UNL     1       2.155   1.483  -1.066  0.00  0.00    -0.307 N 
ATOM     12  H   UNL     1       2.961   1.800  -0.548  0.00  0.00    +0.149 HD
ATOM     13  O   UNL     1      -0.108   1.514  -1.319  0.00  0.00    -0.269 OA
BRANCH  11  14
ATOM     14  C   UNL     1       2.324   0.230  -2.009  0.00  0.00    +0.076 C 
ATOM     15  C   UNL     1       2.171  -1.216  -1.434  0.00  0.00    +0.037 C 
ATOM     16  C   UNL     1       3.459  -2.061  -1.199  0.00  0.00    +0.086 C 
ATOM     17  N   UNL     1       4.533  -1.995  -2.202  0.00  0.00    -0.300 NA
ATOM     18  C   UNL     1       4.769  -0.581  -2.530  0.00  0.00    +0.086 C 
ATOM     19  C   UNL     1       3.526   0.204  -2.993  0.00  0.00    +0.037 C 
BRANCH  17  20
ATOM     20  C   UNL     1       4.529  -2.963  -3.339  0.00  0.00    +0.050 C 
ATOM     21  C   UNL     1       4.325  -4.445  -2.940  0.00  0.00    +0.024 C 
ATOM     22  C   UNL     1       5.861  -2.963  -4.140  0.00  0.00    +0.024 C 
ENDBRANCH  17  20
ENDBRANCH  11  14
ENDBRANCH   9  10
BRANCH   1  23
ATOM     23  C   UNL     1       2.466   5.068  -0.202  0.00  0.00    +0.157 C 
BRANCH  23  28
ATOM     24  C   UNL     1       1.354   8.036  -2.246  0.00  0.00    +0.120 A 
ATOM     25  C   UNL     1       2.543   8.761  -2.213  0.00  0.00    +0.045 A 
ATOM     26  C   UNL     1       3.745   8.145  -1.857  0.00  0.00    +0.004 A 
ATOM     27  C   UNL     1       3.740   6.834  -1.389  0.00  0.00    +0.005 A 
ATOM     28  C   UNL     1       2.526   6.146  -1.263  0.00  0.00    -0.024 A 
ATOM     29  C   UNL     1       1.369   6.699  -1.845  0.00  0.00    +0.051 A 
BRANCH  24  31
ATOM     30  C   UNL     1      -1.033   8.150  -2.451  0.00  0.00    +0.277 C 
ATOM     31  O   UNL     1       0.249   8.751  -2.613  0.00  0.00    -0.495 OA
ENDBRANCH  24  31
ENDBRANCH  23  28
ENDBRANCH   1  23
TORSDOF 6
