REMARK  Name = 
REMARK  5 active torsions:
REMARK  status: ('A' for Active; 'I' for Inactive)
REMARK    1  A    between atoms: C_5  and  N_6
REMARK    2  A    between atoms: C_7  and  C_9
REMARK    3  A    between atoms: C_10  and  N_11
REMARK    4  A    between atoms: N_11  and  C_12
REMARK    5  A    between atoms: C_12  and  C_13
REMARK                            x       y       z     vdW  Elec       q    Type
REMARK                         _______ _______ _______ _____ _____    ______ ____
ROOT
ATOM      1  C   UNL     1       9.299  -1.155  -1.017  0.00  0.00    +0.058 A 
ATOM      2  C   UNL     1       9.969  -2.391  -1.134  0.00  0.00    +0.015 A 
ATOM      3  C   UNL     1      11.299  -2.456  -1.547  0.00  0.00    +0.001 A 
ATOM      4  C   UNL     1      11.992  -1.282  -1.799  0.00  0.00    +0.002 A 
ATOM      5  C   UNL     1      11.334  -0.055  -1.719  0.00  0.00    +0.024 A 
ATOM      6  C   UNL     1       9.961   0.031  -1.433  0.00  0.00    +0.040 A 
ENDROOT
BRANCH   1   9
ATOM      7  N   UNL     1       7.176  -0.263   0.089  0.00  0.00    -0.281 N 
ATOM      8  H   UNL     1       6.174  -0.337  -0.039  0.00  0.00    +0.155 HD
ATOM      9  C   UNL     1       7.858  -1.255  -0.595  0.00  0.00    +0.250 C 
ATOM     10  O   UNL     1       7.214  -2.244  -0.952  0.00  0.00    -0.270 OA
BRANCH   7  15
ATOM     11 CL   UNL     1       9.512   4.715   2.191  0.00  0.00    -0.084 Cl
ATOM     12  C   UNL     1       8.764   3.245   1.701  0.00  0.00    +0.041 A 
ATOM     13  C   UNL     1       9.325   2.023   2.073  0.00  0.00    +0.022 A 
ATOM     14  C   UNL     1       8.778   0.830   1.588  0.00  0.00    +0.025 A 
ATOM     15  C   UNL     1       7.652   0.870   0.762  0.00  0.00    +0.034 A 
ATOM     16  C   UNL     1       7.034   2.094   0.475  0.00  0.00    +0.025 A 
ATOM     17  C   UNL     1       7.620   3.286   0.907  0.00  0.00    +0.022 A 
ENDBRANCH   7  15
ENDBRANCH   1   9
BRANCH   6  18
ATOM     18  N   UNL     1       9.298   1.249  -1.482  0.00  0.00    -0.339 N 
ATOM     19  H   UNL     1       8.297   1.113  -1.598  0.00  0.00    +0.146 HD
BRANCH  18  20
ATOM     20  C   UNL     1       9.737   2.442  -2.177  0.00  0.00    +0.137 C 
BRANCH  20  21
ATOM     21  C   UNL     1       9.056   2.466  -3.523  0.00  0.00    -0.028 A 
ATOM     22  C   UNL     1       9.586   1.731  -4.585  0.00  0.00    +0.025 A 
ATOM     23  C   UNL     1       8.880   1.677  -5.773  0.00  0.00    +0.111 A 
ATOM     24  N   UNL     1       7.696   2.301  -5.970  0.00  0.00    -0.263 NA
ATOM     25  C   UNL     1       7.197   2.998  -4.927  0.00  0.00    +0.111 A 
ATOM     26  C   UNL     1       7.825   3.110  -3.702  0.00  0.00    +0.025 A 
ENDBRANCH  20  21
ENDBRANCH  18  20
ENDBRANCH   6  18
TORSDOF 5
