REMARK  Name = 
REMARK  3 active torsions:
REMARK  status: ('A' for Active; 'I' for Inactive)
REMARK    1  A    between atoms: C_1  and  C_2
REMARK    2  A    between atoms: N_10  and  C_17
REMARK    3  A    between atoms: C_13  and  O_14
REMARK                            x       y       z     vdW  Elec       q    Type
REMARK                         _______ _______ _______ _____ _____    ______ ____
ROOT
ATOM      1  C   UNL     1       1.045  -0.204  -0.201  0.00  0.00    +0.044 C 
ATOM      2  C   UNL     1       2.544  -0.092  -0.186  0.00  0.00    -0.036 A 
ATOM      3  C   UNL     1       3.296  -1.278  -0.164  0.00  0.00    +0.004 A 
ATOM      4  C   UNL     1       4.685  -1.236  -0.071  0.00  0.00    +0.005 A 
ATOM      5  C   UNL     1       5.337  -0.009   0.040  0.00  0.00    +0.056 A 
ATOM      6  C   UNL     1       4.616   1.191   0.001  0.00  0.00    +0.187 A 
ATOM      7  N   UNL     1       5.362   2.374   0.101  0.00  0.00    -0.042 NA
ATOM      8  C   UNL     1       4.751   3.512   0.201  0.00  0.00    +0.334 C 
ATOM      9  C   UNL     1       3.229   3.637   0.240  0.00  0.00    +0.235 C 
ATOM     10  C   UNL     1       2.549   2.441  -0.388  0.00  0.00    +0.211 C 
ATOM     11  O   UNL     1       1.468   2.534  -0.964  0.00  0.00    -0.288 OA
ATOM     12  C   UNL     1       3.040   4.955  -0.512  0.00  0.00    +0.099 C 
ATOM     13  C   UNL     1       4.322   5.762  -0.249  0.00  0.00    +0.236 C 
ATOM     14  N   UNL     1       5.304   4.780   0.204  0.00  0.00    -0.188 N 
ATOM     15  C   UNL     1       3.228   1.140  -0.182  0.00  0.00    +0.074 A 
ENDROOT
BRANCH  14  16
ATOM     16  C   UNL     1       6.605   5.165   0.565  0.00  0.00    +0.121 A 
ATOM     17  C   UNL     1       7.016   6.511   0.534  0.00  0.00    +0.049 A 
ATOM     18  C   UNL     1       8.310   6.905   0.902  0.00  0.00    +0.004 A 
ATOM     19  C   UNL     1       9.237   5.958   1.315  0.00  0.00    +0.000 A 
ATOM     20  C   UNL     1       8.862   4.623   1.375  0.00  0.00    +0.004 A 
ATOM     21  C   UNL     1       7.563   4.240   1.013  0.00  0.00    +0.049 A 
ENDBRANCH  14  16
BRANCH   9  22
ATOM     22  O   UNL     1       2.713   3.787   1.560  0.00  0.00    -0.370 OA
ATOM     23  H   UNL     1       1.741   3.831   1.478  0.00  0.00    +0.211 HD
ENDBRANCH   9  22
TORSDOF 2
