REMARK  Name = 
REMARK  20 active torsions:
REMARK  status: ('A' for Active; 'I' for Inactive)
REMARK    1  A    between atoms: C_2  and  C_3
REMARK    2  A    between atoms: C_2  and  C_4
REMARK    3  A    between atoms: C_2  and  C_17
REMARK    4  A    between atoms: C_4  and  C_5
REMARK    5  A    between atoms: C_5  and  C_6
REMARK    6  A    between atoms: C_6  and  C_7
REMARK    7  A    between atoms: C_7  and  C_8
REMARK    8  A    between atoms: C_8  and  O_10
REMARK    9  A    between atoms: C_8  and  C_11
REMARK   10  A    between atoms: C_11  and  C_13
REMARK   11  A    between atoms: C_11  and  C_15
REMARK   12  A    between atoms: C_13  and  O_14
REMARK   13  A    between atoms: C_17  and  C_18
REMARK   14  A    between atoms: C_18  and  C_20
REMARK   15  A    between atoms: C_18  and  C_21
REMARK   16  A    between atoms: C_21  and  C_22
REMARK   17  A    between atoms: C_22  and  C_24
REMARK   18  A    between atoms: C_22  and  C_25
REMARK   19  A    between atoms: C_25  and  C_26
REMARK   20  A    between atoms: C_26  and  O_27
REMARK                            x       y       z     vdW  Elec       q    Type
REMARK                         _______ _______ _______ _____ _____    ______ ____
ROOT
ATOM      1  C   UNL     1       1.748   5.129   5.589  0.00  0.00    -0.014 C 
ATOM      2  C   UNL     1       2.127   6.477   6.216  0.00  0.00    +0.007 C 
ENDROOT
BRANCH   1   3
ATOM      3  C   UNL     1       0.252   4.826   5.812  0.00  0.00    +0.003 C 
BRANCH   3   4
ATOM      4  C   UNL     1      -0.716   5.776   5.090  0.00  0.00    +0.000 C 
BRANCH   4   5
ATOM      5  C   UNL     1      -0.548   5.842   3.565  0.00  0.00    +0.003 C 
BRANCH   5   6
ATOM      6  C   UNL     1      -0.834   4.493   2.903  0.00  0.00    +0.032 C 
BRANCH   6   7
ATOM      7  C   UNL     1      -0.587   4.477   1.393  0.00  0.00    +0.127 C 
BRANCH   7   8
ATOM      8  O   UNL     1      -1.442   5.438   0.778  0.00  0.00    -0.391 OA
ATOM      9  H   UNL     1      -1.065   5.585  -0.117  0.00  0.00    +0.210 HD
ENDBRANCH   7   8
BRANCH   7  10
ATOM     10  C   UNL     1      -0.838   3.084   0.791  0.00  0.00    +0.106 C 
BRANCH  10  11
ATOM     11  C   UNL     1      -0.442   3.058  -0.671  0.00  0.00    +0.231 C 
ATOM     12  O   UNL     1       0.124   3.996  -1.235  0.00  0.00    -0.301 OA
ENDBRANCH  10  11
BRANCH  10  13
ATOM     13  C   UNL     1      -2.251   2.527   0.945  0.00  0.00    +0.169 C 
BRANCH  13  14
ATOM     14  O   UNL     1      -3.241   3.401   0.431  0.00  0.00    -0.394 OA
ATOM     15  H   UNL     1      -3.006   4.312   0.711  0.00  0.00    +0.209 HD
ENDBRANCH  13  14
ENDBRANCH  10  13
ENDBRANCH   7  10
ENDBRANCH   6   7
ENDBRANCH   5   6
ENDBRANCH   4   5
ENDBRANCH   3   4
ENDBRANCH   1   3
BRANCH   1  16
ATOM     16  C   UNL     1       2.663   4.003   6.136  0.00  0.00    +0.006 C 
BRANCH  16  17
ATOM     17  C   UNL     1       2.426   2.583   5.541  0.00  0.00    -0.014 C 
ATOM     18  C   UNL     1       3.410   1.597   6.182  0.00  0.00    +0.007 C 
BRANCH  17  19
ATOM     19  C   UNL     1       2.550   2.568   4.005  0.00  0.00    +0.007 C 
BRANCH  19  20
ATOM     20  C   UNL     1       2.096   1.270   3.287  0.00  0.00    -0.003 C 
ATOM     21  C   UNL     1       0.661   0.875   3.668  0.00  0.00    +0.008 C 
BRANCH  20  22
ATOM     22  C   UNL     1       2.310   1.464   1.772  0.00  0.00    +0.123 C 
BRANCH  22  23
ATOM     23  C   UNL     1       1.778   0.337   0.917  0.00  0.00    +0.305 C 
ATOM     24  O   UNL     1       0.815   0.438   0.168  0.00  0.00    -0.251 OA
BRANCH  23  25
ATOM     25  O   UNL     1       2.456  -0.818   1.060  0.00  0.00    -0.481 OA
ATOM     26  H   UNL     1       3.209  -0.760   1.681  0.00  0.00    +0.295 HD
ENDBRANCH  23  25
ENDBRANCH  22  23
ENDBRANCH  20  22
ENDBRANCH  19  20
ENDBRANCH  17  19
ENDBRANCH  16  17
ENDBRANCH   1  16
TORSDOF 17
