REMARK  Name = 
REMARK  17 active torsions:
REMARK  status: ('A' for Active; 'I' for Inactive)
REMARK    1  A    between atoms: C_1  and  C_2
REMARK    2  A    between atoms: C_2  and  O_3
REMARK    3  A    between atoms: O_3  and  C_4
REMARK    4  A    between atoms: C_4  and  C_5
REMARK    5  A    between atoms: C_5  and  O_6
REMARK    6  A    between atoms: O_6  and  C_7
REMARK    7  A    between atoms: C_7  and  C_8
REMARK    8  A    between atoms: C_8  and  O_9
REMARK    9  A    between atoms: O_9  and  C_10
REMARK   10  A    between atoms: C_10  and  C_11
REMARK   11  A    between atoms: C_11  and  O_12
REMARK   12  A    between atoms: O_12  and  C_13
REMARK   13  A    between atoms: C_13  and  C_14
REMARK   14  A    between atoms: C_14  and  O_15
REMARK   15  A    between atoms: O_15  and  C_16
REMARK   16  A    between atoms: C_16  and  C_17
REMARK   17  A    between atoms: C_17  and  O_18
REMARK                            x       y       z     vdW  Elec       q    Type
REMARK                         _______ _______ _______ _____ _____    ______ ____
ROOT
ATOM      1  C   UNL     1      10.293  -4.153   3.521  0.00  0.00    +0.188 C 
ENDROOT
BRANCH   1   2
ATOM      2  C   UNL     1      10.769  -5.272   4.439  0.00  0.00    +0.188 C 
BRANCH   2   3
ATOM      3  O   UNL     1      12.196  -5.294   4.459  0.00  0.00    -0.375 OA
BRANCH   3   4
ATOM      4  C   UNL     1      12.691  -6.328   5.310  0.00  0.00    +0.188 C 
BRANCH   4   5
ATOM      5  C   UNL     1      14.215  -6.304   5.289  0.00  0.00    +0.188 C 
BRANCH   5   6
ATOM      6  O   UNL     1      14.727  -7.327   6.146  0.00  0.00    -0.375 OA
BRANCH   6   7
ATOM      7  C   UNL     1      16.161  -7.340   6.130  0.00  0.00    +0.187 C 
BRANCH   7   8
ATOM      8  C   UNL     1      16.644  -8.434   7.077  0.00  0.00    +0.184 C 
BRANCH   8   9
ATOM      9  O   UNL     1      16.158  -9.703   6.643  0.00  0.00    -0.393 OA
ATOM     10  H   UNL     1      15.199  -9.575   6.504  0.00  0.00    +0.209 HD
ENDBRANCH   8   9
ENDBRANCH   7   8
ENDBRANCH   6   7
ENDBRANCH   5   6
ENDBRANCH   4   5
ENDBRANCH   3   4
ENDBRANCH   2   3
ENDBRANCH   1   2
BRANCH   1  11
ATOM     11  O   UNL     1       8.866  -4.133   3.505  0.00  0.00    -0.375 OA
BRANCH  11  12
ATOM     12  C   UNL     1       8.369  -3.099   2.656  0.00  0.00    +0.188 C 
BRANCH  12  13
ATOM     13  C   UNL     1       6.845  -3.121   2.675  0.00  0.00    +0.188 C 
BRANCH  13  14
ATOM     14  O   UNL     1       6.349  -2.087   1.825  0.00  0.00    -0.375 OA
BRANCH  14  15
ATOM     15  C   UNL     1       4.922  -2.066   1.810  0.00  0.00    +0.188 C 
BRANCH  15  16
ATOM     16  C   UNL     1       4.448  -0.949   0.888  0.00  0.00    +0.188 C 
BRANCH  16  17
ATOM     17  O   UNL     1       3.021  -0.921   0.871  0.00  0.00    -0.378 OA
BRANCH  17  19
ATOM     18  C   UNL     1       1.015   0.080   0.054  0.00  0.00    +0.034 C 
ATOM     19  C   UNL     1       2.530   0.111   0.019  0.00  0.00    +0.156 C 
ENDBRANCH  17  19
ENDBRANCH  16  17
ENDBRANCH  15  16
ENDBRANCH  14  15
ENDBRANCH  13  14
ENDBRANCH  12  13
ENDBRANCH  11  12
ENDBRANCH   1  11
TORSDOF 16
