REMARK  Name = 
REMARK  7 active torsions:
REMARK  status: ('A' for Active; 'I' for Inactive)
REMARK    1  A    between atoms: O_1  and  C_2
REMARK    2  A    between atoms: C_2  and  C_4
REMARK    3  A    between atoms: C_4  and  N_5
REMARK    4  A    between atoms: N_5  and  S_6
REMARK    5  A    between atoms: S_6  and  C_9
REMARK    6  A    between atoms: C_12  and  N_15
REMARK    7  A    between atoms: C_18  and  C_21
REMARK                            x       y       z     vdW  Elec       q    Type
REMARK                         _______ _______ _______ _____ _____    ______ ____
ROOT
ATOM      1  C   UNL     1       7.373   0.210   2.532  0.00  0.00    +0.105 A 
ATOM      2  C   UNL     1       7.751   1.195   1.627  0.00  0.00    +0.030 A 
ATOM      3  C   UNL     1       9.029   1.167   1.068  0.00  0.00    +0.025 A 
ATOM      4  C   UNL     1       9.951   0.150   1.366  0.00  0.00    +0.030 A 
ATOM      5  C   UNL     1       9.514  -0.863   2.235  0.00  0.00    +0.025 A 
ATOM      6  C   UNL     1       8.241  -0.840   2.822  0.00  0.00    +0.030 A 
ENDROOT
BRANCH   4   7
ATOM      7  N   UNL     1      11.205   0.147   0.789  0.00  0.00    -0.330 N 
ATOM      8  C   UNL     1      11.942   1.391   0.546  0.00  0.00    +0.105 C 
ATOM      9  C   UNL     1      12.435   1.397  -0.902  0.00  0.00    +0.027 C 
ATOM     10  C   UNL     1      13.323   0.163  -1.195  0.00  0.00    +0.022 C 
ATOM     11  C   UNL     1      12.464  -1.085  -0.881  0.00  0.00    +0.027 C 
ATOM     12  C   UNL     1      11.966  -1.083   0.568  0.00  0.00    +0.105 C 
BRANCH  10  13
ATOM     13  C   UNL     1      14.699   0.180  -0.518  0.00  0.00    -0.044 A 
ATOM     14  C   UNL     1      15.353   1.384  -0.203  0.00  0.00    +0.004 A 
ATOM     15  C   UNL     1      16.610   1.395   0.411  0.00  0.00    +0.000 A 
ATOM     16  C   UNL     1      17.254   0.200   0.705  0.00  0.00    +0.000 A 
ATOM     17  C   UNL     1      16.647  -1.004   0.372  0.00  0.00    +0.000 A 
ATOM     18  C   UNL     1      15.392  -1.013  -0.242  0.00  0.00    +0.004 A 
ENDBRANCH  10  13
ENDBRANCH   4   7
BRANCH   1  19
ATOM     19  S   UNL     1       5.767   0.282   3.269  0.00  0.00    +0.059 S 
ATOM     20  O   UNL     1       4.790   0.471   2.228  0.00  0.00    -0.153 OA
ATOM     21  O   UNL     1       5.664  -0.785   4.241  0.00  0.00    -0.153 OA
BRANCH  19  22
ATOM     22  N   UNL     1       5.839   1.703   4.210  0.00  0.00    -0.179 NA
ATOM     23  H   UNL     1       5.403   1.475   5.111  0.00  0.00    +0.149 HD
BRANCH  22  24
ATOM     24  C   UNL     1       5.287   2.920   3.546  0.00  0.00    +0.226 C 
BRANCH  24  25
ATOM     25  C   UNL     1       5.474   4.130   4.438  0.00  0.00    +0.320 C 
ATOM     26  O   UNL     1       4.833   5.164   4.346  0.00  0.00    -0.250 OA
BRANCH  25  27
ATOM     27  O   UNL     1       6.480   3.964   5.335  0.00  0.00    -0.480 OA
ATOM     28  H   UNL     1       6.888   3.079   5.204  0.00  0.00    +0.295 HD
ENDBRANCH  25  27
ENDBRANCH  24  25
ENDBRANCH  22  24
ENDBRANCH  19  22
ENDBRANCH   1  19
TORSDOF 7
