REMARK  Name = 
REMARK  5 active torsions:
REMARK  status: ('A' for Active; 'I' for Inactive)
REMARK    1  A    between atoms: O_1  and  C_2
REMARK    2  A    between atoms: C_4  and  C_5
REMARK    3  A    between atoms: C_5  and  C_6
REMARK    4  A    between atoms: C_14  and  O_15
REMARK    5  A    between atoms: O_15  and  C_16
REMARK                            x       y       z     vdW  Elec       q    Type
REMARK                         _______ _______ _______ _____ _____    ______ ____
ROOT
ATOM      1  C   UNL     1       2.510  -0.208   0.592  0.00  0.00    +0.159 A 
ATOM      2  C   UNL     1       3.129  -1.337   0.056  0.00  0.00    +0.170 A 
ATOM      3  C   UNL     1       4.482  -1.284  -0.303  0.00  0.00    +0.050 A 
ATOM      4  C   UNL     1       5.135  -0.055  -0.348  0.00  0.00    +0.008 A 
ATOM      5  C   UNL     1       4.467   1.112   0.042  0.00  0.00    -0.038 A 
ATOM      6  C   UNL     1       3.178   1.016   0.595  0.00  0.00    +0.053 A 
ENDROOT
BRANCH   1   7
ATOM      7  O   UNL     1       1.223  -0.294   1.042  0.00  0.00    -0.503 OA
ATOM      8  H   UNL     1       0.926   0.587   1.320  0.00  0.00    +0.292 HD
ENDBRANCH   1   7
BRANCH   2   9
ATOM      9  O   UNL     1       2.358  -2.455  -0.205  0.00  0.00    -0.451 OA
BRANCH   9  10
ATOM     10  C   UNL     1       2.501  -3.032  -1.459  0.00  0.00    +0.147 A 
ATOM     11  C   UNL     1       2.338  -4.415  -1.583  0.00  0.00    +0.085 A 
ATOM     12 CL   UNL     1       1.769  -5.379  -0.270  0.00  0.00    -0.080 Cl
ATOM     13  C   UNL     1       2.651  -5.054  -2.788  0.00  0.00    +0.043 A 
ATOM     14  C   UNL     1       3.113  -4.304  -3.871  0.00  0.00    +0.043 A 
ATOM     15 CL   UNL     1       3.613  -5.097  -5.312  0.00  0.00    -0.083 Cl
ATOM     16  C   UNL     1       3.190  -2.919  -3.788  0.00  0.00    +0.023 A 
ATOM     17  C   UNL     1       2.844  -2.281  -2.598  0.00  0.00    +0.049 A 
ENDBRANCH   9  10
ENDBRANCH   2   9
BRANCH   5  18
ATOM     18  C   UNL     1       5.069   2.468  -0.258  0.00  0.00    +0.090 C 
BRANCH  18  19
ATOM     19  C   UNL     1       4.530   3.099  -1.531  0.00  0.00    +0.046 A 
ATOM     20  N   UNL     1       3.913   4.301  -1.411  0.00  0.00    -0.260 NA
ATOM     21  C   UNL     1       3.442   4.880  -2.539  0.00  0.00    +0.111 A 
ATOM     22  C   UNL     1       3.544   4.315  -3.800  0.00  0.00    +0.020 A 
ATOM     23  C   UNL     1       4.176   3.086  -3.913  0.00  0.00    +0.003 A 
ATOM     24  C   UNL     1       4.682   2.470  -2.770  0.00  0.00    +0.023 A 
ENDBRANCH  18  19
ENDBRANCH   5  18
TORSDOF 5
