REMARK  Name = 
REMARK  3 active torsions:
REMARK  status: ('A' for Active; 'I' for Inactive)
REMARK    1  A    between atoms: O_1  and  C_2
REMARK    2  A    between atoms: C_2  and  C_4
REMARK    3  A    between atoms: C_7  and  C_9
REMARK                            x       y       z     vdW  Elec       q    Type
REMARK                         _______ _______ _______ _____ _____    ______ ____
ROOT
ATOM      1  C   UNL     1       3.133  -0.830  -0.856  0.00  0.00    +0.212 A 
ATOM      2  O   UNL     1       2.869  -2.174  -0.833  0.00  0.00    -0.448 OA
ATOM      3  C   UNL     1       3.649  -2.768  -1.783  0.00  0.00    +0.137 A 
ATOM      4  C   UNL     1       4.421  -1.806  -2.407  0.00  0.00    +0.051 A 
ATOM      5  C   UNL     1       4.094  -0.565  -1.809  0.00  0.00    +0.057 A 
ENDROOT
BRANCH   3   6
ATOM      6  C   UNL     1       3.577  -4.227  -1.883  0.00  0.00    +0.037 A 
ATOM      7  C   UNL     1       2.407  -4.982  -1.667  0.00  0.00    +0.052 A 
ATOM      8 CL   UNL     1       0.864  -4.267  -1.338  0.00  0.00    -0.083 Cl
ATOM      9  C   UNL     1       2.437  -6.383  -1.748  0.00  0.00    +0.022 A 
ATOM     10  C   UNL     1       3.623  -7.049  -2.055  0.00  0.00    +0.021 A 
ATOM     11  C   UNL     1       4.779  -6.314  -2.288  0.00  0.00    +0.042 A 
ATOM     12 CL   UNL     1       6.245  -7.125  -2.676  0.00  0.00    -0.084 Cl
ATOM     13  C   UNL     1       4.760  -4.921  -2.206  0.00  0.00    +0.033 A 
ENDBRANCH   3   6
BRANCH   1  14
ATOM     14  C   UNL     1       2.425   0.033   0.058  0.00  0.00    +0.372 C 
ATOM     15  O   UNL     1       2.629   1.227   0.221  0.00  0.00    -0.242 OA
BRANCH  14  16
ATOM     16  O   UNL     1       1.468  -0.649   0.738  0.00  0.00    -0.475 OA
ATOM     17  H   UNL     1       1.454  -1.586   0.446  0.00  0.00    +0.296 HD
ENDBRANCH  14  16
ENDBRANCH   1  14
TORSDOF 3
