REMARK  Name = 
REMARK  5 active torsions:
REMARK  status: ('A' for Active; 'I' for Inactive)
REMARK    1  A    between atoms: O_1  and  C_2
REMARK    2  A    between atoms: C_2  and  C_4
REMARK    3  A    between atoms: C_4  and  C_5
REMARK    4  A    between atoms: C_8  and  C_11
REMARK    5  A    between atoms: C_17  and  C_20
REMARK                            x       y       z     vdW  Elec       q    Type
REMARK                         _______ _______ _______ _____ _____    ______ ____
ROOT
ATOM      1  C   UNL     1       8.948  -0.011  -0.762  0.00  0.00    +0.009 A 
ATOM      2  C   UNL     1       9.838  -1.134  -0.817  0.00  0.00    +0.027 A 
ATOM      3  C   UNL     1      11.133  -0.641  -0.896  0.00  0.00    +0.139 A 
ATOM      4  N   UNL     1      12.273  -1.348  -0.995  0.00  0.00    -0.237 NA
ATOM      5  C   UNL     1      12.061  -2.694  -1.031  0.00  0.00    +0.121 A 
ATOM      6  C   UNL     1      10.831  -3.358  -0.960  0.00  0.00    +0.001 A 
ATOM      7  N   UNL     1      11.060   0.723  -0.871  0.00  0.00    -0.345 N 
ATOM      8  H   UNL     1      11.869   1.325  -0.920  0.00  0.00    +0.167 HD
ATOM      9  C   UNL     1       9.700  -2.533  -0.840  0.00  0.00    +0.022 A 
ATOM     10  C   UNL     1       9.746   1.121  -0.805  0.00  0.00    +0.093 A 
ENDROOT
BRANCH   6  11
ATOM     11  C   UNL     1      10.687  -4.832  -1.007  0.00  0.00    -0.016 A 
ATOM     12  C   UNL     1       9.527  -5.426  -1.547  0.00  0.00    +0.017 A 
ATOM     13  C   UNL     1       9.305  -6.812  -1.524  0.00  0.00    -0.017 A 
ATOM     14  C   UNL     1      10.296  -7.657  -0.990  0.00  0.00    -0.018 A 
ATOM     15  C   UNL     1      10.070  -9.043  -0.958  0.00  0.00    +0.008 A 
ATOM     16  C   UNL     1       8.869  -9.580  -1.428  0.00  0.00    +0.001 A 
ATOM     17  C   UNL     1       7.887  -8.743  -1.948  0.00  0.00    +0.001 A 
ATOM     18  C   UNL     1      11.476  -7.087  -0.491  0.00  0.00    +0.009 A 
ATOM     19  C   UNL     1       8.108  -7.367  -2.005  0.00  0.00    +0.008 A 
ATOM     20  C   UNL     1      11.661  -5.697  -0.486  0.00  0.00    +0.009 A 
ENDBRANCH   6  11
BRANCH   1  24
ATOM     21  C   UNL     1       4.663  -0.098  -0.887  0.00  0.00    -0.037 A 
ATOM     22  C   UNL     1       5.376  -1.084  -0.198  0.00  0.00    +0.005 A 
ATOM     23  C   UNL     1       6.769  -1.015  -0.112  0.00  0.00    +0.009 A 
ATOM     24  C   UNL     1       7.486   0.012  -0.740  0.00  0.00    -0.016 A 
ATOM     25  C   UNL     1       6.763   1.015  -1.400  0.00  0.00    +0.009 A 
ATOM     26  C   UNL     1       5.366   0.965  -1.468  0.00  0.00    +0.005 A 
BRANCH  21  27
ATOM     27  C   UNL     1       3.168  -0.226  -1.065  0.00  0.00    +0.155 C 
BRANCH  27  28
ATOM     28  C   UNL     1       2.702  -0.964  -2.302  0.00  0.00    +0.309 C 
ATOM     29  O   UNL     1       1.514  -1.144  -2.544  0.00  0.00    -0.251 OA
BRANCH  28  30
ATOM     30  O   UNL     1       3.658  -1.425  -3.141  0.00  0.00    -0.480 OA
ATOM     31  H   UNL     1       4.575  -1.234  -2.869  0.00  0.00    +0.295 HD
ENDBRANCH  28  30
ENDBRANCH  27  28
ENDBRANCH  21  27
ENDBRANCH   1  24
TORSDOF 5
