REMARK  Name = 
REMARK  1 active torsions:
REMARK  status: ('A' for Active; 'I' for Inactive)
REMARK    1  A    between atoms: N_1  and  C_2
REMARK                            x       y       z     vdW  Elec       q    Type
REMARK                         _______ _______ _______ _____ _____    ______ ____
ROOT
ATOM      1  C   UNL     1       2.443   0.081   0.078  0.00  0.00    +0.032 A 
ATOM      2  C   UNL     1       3.152  -1.155   0.090  0.00  0.00    +0.004 A 
ATOM      3  C   UNL     1       4.572  -1.136   0.070  0.00  0.00    +0.008 A 
ATOM      4  C   UNL     1       5.284  -2.351   0.067  0.00  0.00    +0.048 A 
ATOM      5  C   UNL     1       4.623  -3.583   0.082  0.00  0.00    +0.014 A 
ATOM      6  C   UNL     1       3.236  -3.614   0.109  0.00  0.00    +0.001 A 
ATOM      7  C   UNL     1       6.765  -2.333   0.060  0.00  0.00    +0.259 A 
ATOM      8  O   UNL     1       7.424  -3.365   0.057  0.00  0.00    -0.267 OA
ATOM      9  N   UNL     1       7.359  -1.095   0.057  0.00  0.00    -0.289 N 
ATOM     10  H   UNL     1       8.369  -1.080   0.057  0.00  0.00    +0.172 HD
ATOM     11  C   UNL     1       6.727   0.124   0.059  0.00  0.00    +0.259 A 
ATOM     12  O   UNL     1       7.353   1.176   0.056  0.00  0.00    -0.267 OA
ATOM     13  C   UNL     1       5.246   0.095   0.066  0.00  0.00    +0.048 A 
ATOM     14  C   UNL     1       4.546   1.302   0.096  0.00  0.00    +0.016 A 
ATOM     15  C   UNL     1       2.514  -2.418   0.119  0.00  0.00    +0.010 A 
ATOM     16  C   UNL     1       3.156   1.288   0.127  0.00  0.00    +0.024 A 
ENDROOT
BRANCH   1  17
ATOM     17  N   UNL     1       1.045   0.144   0.246  0.00  0.00    -0.357 N 
ATOM     18  H   UNL     1       0.538  -0.642  -0.142  0.00  0.00    +0.142 HD
ATOM     19  H   UNL     1       0.636   1.028  -0.043  0.00  0.00    +0.142 HD
ENDBRANCH   1  17
TORSDOF 1
