REMARK  Name = 
REMARK  2 active torsions:
REMARK  status: ('A' for Active; 'I' for Inactive)
REMARK    1  A    between atoms: O_1  and  C_2
REMARK    2  A    between atoms: N_5  and  C_16
REMARK                            x       y       z     vdW  Elec       q    Type
REMARK                         _______ _______ _______ _____ _____    ______ ____
ROOT
ATOM      1  C   UNL     1       2.446   0.045  -0.250  0.00  0.00    +0.235 C 
ATOM      2  C   UNL     1       1.220  -0.601   0.383  0.00  0.00    +0.211 C 
ATOM      3  O   UNL     1       0.287   0.006   0.893  0.00  0.00    -0.288 OA
ATOM      4  C   UNL     1       1.190  -2.061   0.152  0.00  0.00    +0.072 A 
ATOM      5  C   UNL     1       0.001  -2.724  -0.147  0.00  0.00    +0.016 A 
ATOM      6  C   UNL     1       0.056  -4.056  -0.560  0.00  0.00    +0.001 A 
ATOM      7  C   UNL     1       1.285  -4.720  -0.630  0.00  0.00    +0.004 A 
ATOM      8  C   UNL     1       2.467  -4.050  -0.304  0.00  0.00    +0.056 A 
ATOM      9  C   UNL     1       2.435  -2.703   0.060  0.00  0.00    +0.187 A 
ATOM     10  N   UNL     1       3.645  -2.048   0.340  0.00  0.00    -0.042 NA
ATOM     11  C   UNL     1       3.681  -0.754   0.241  0.00  0.00    +0.334 C 
ATOM     12  N   UNL     1       4.710   0.121   0.565  0.00  0.00    -0.188 N 
ATOM     13  C   UNL     1       4.338   1.482   0.195  0.00  0.00    +0.236 C 
ATOM     14  C   UNL     1       2.803   1.467   0.151  0.00  0.00    +0.099 C 
ENDROOT
BRANCH  12  15
ATOM     15  C   UNL     1       5.923  -0.169   1.205  0.00  0.00    +0.121 A 
ATOM     16  C   UNL     1       6.242  -1.455   1.678  0.00  0.00    +0.049 A 
ATOM     17  C   UNL     1       7.439  -1.736   2.352  0.00  0.00    +0.004 A 
ATOM     18  C   UNL     1       8.365  -0.729   2.576  0.00  0.00    +0.000 A 
ATOM     19  C   UNL     1       8.094   0.552   2.118  0.00  0.00    +0.004 A 
ATOM     20  C   UNL     1       6.896   0.822   1.438  0.00  0.00    +0.049 A 
ENDBRANCH  12  15
BRANCH   1  21
ATOM     21  O   UNL     1       2.224   0.038  -1.658  0.00  0.00    -0.370 OA
ATOM     22  H   UNL     1       1.337   0.426  -1.798  0.00  0.00    +0.211 HD
ENDBRANCH   1  21
TORSDOF 2
