REMARK  Name = 
REMARK  7 active torsions:
REMARK  status: ('A' for Active; 'I' for Inactive)
REMARK    1  A    between atoms: CA_2  and  CB_3
REMARK    2  A    between atoms: CA_2  and  N_4
REMARK    3  A    between atoms: CA_2  and  C_10
REMARK    4  A    between atoms: C_5  and  C_7
REMARK    5  A    between atoms: C_7  and  C_8
REMARK    6  A    between atoms: C_8  and  S_9
REMARK    7  A    between atoms: C_10  and  O_11
REMARK                            x       y       z     vdW  Elec       q    Type
REMARK                         _______ _______ _______ _____ _____    ______ ____
ROOT
ATOM      1  N   ALA A   1       2.448   0.966   1.057  0.00  0.00    -0.303 N 
ATOM      2  H   ALA A   1       3.097   0.626   1.758  0.00  0.00    +0.150 HD
ATOM      3  C   UNK A   0       2.320   2.323   0.897  0.00  0.00    +0.214 C 
ATOM      4  O   UNK A   0       1.939   2.801  -0.168  0.00  0.00    -0.276 OA
ENDROOT
BRANCH   1   5
ATOM      5  CA  ALA A   1       2.028   0.024   0.012  0.00  0.00    +0.178 C 
ATOM      6  CB  ALA A   1       1.566  -1.281   0.640  0.00  0.00    +0.040 C 
BRANCH   5   7
ATOM      7  C   ALA A   1       3.158  -0.189  -1.003  0.00  0.00    +0.325 C 
ATOM      8  OXT ALA A   1       3.640  -1.274  -1.297  0.00  0.00    -0.249 OA
BRANCH   7   9
ATOM      9  O   ALA A   1       3.558   0.964  -1.598  0.00  0.00    -0.479 OA
ATOM     10  H   ALA A   1       3.019   1.741  -1.319  0.00  0.00    +0.295 HD
ENDBRANCH   7   9
ENDBRANCH   5   7
ENDBRANCH   1   5
BRANCH   3  11
ATOM     11  C   UNK A   0       2.774   3.143   2.083  0.00  0.00    +0.106 C 
BRANCH  11  12
ATOM     12  C   UNK A   0       1.941   4.412   2.201  0.00  0.00    +0.075 C 
BRANCH  12  13
ATOM     13  S   UNK A   0       2.503   5.417   3.609  0.00  0.00    -0.178 S 
ATOM     14  H   UNK A   0       2.111   4.577   4.578  0.00  0.00    +0.102 HD
ENDBRANCH  12  13
ENDBRANCH  11  12
ENDBRANCH   3  11
TORSDOF 6
