REMARK  Name = 
REMARK  2 active torsions:
REMARK  status: ('A' for Active; 'I' for Inactive)
REMARK    1  A    between atoms: C_4  and  C_6
REMARK    2  A    between atoms: C_9  and  C_11
REMARK                            x       y       z     vdW  Elec       q    Type
REMARK                         _______ _______ _______ _____ _____    ______ ____
ROOT
ATOM      1  C   UNL     1       1.935  -1.455   0.026  0.00  0.00    +0.059 A 
ATOM      2  S   UNL     1       1.681  -3.140   0.012  0.00  0.00    -0.066 S 
ATOM      3  C   UNL     1       3.385  -3.406   0.014  0.00  0.00    +0.109 A 
ATOM      4  N   UNL     1       4.113  -2.306   0.088  0.00  0.00    -0.247 NA
ATOM      5  C   UNL     1       3.287  -1.191   0.073  0.00  0.00    +0.129 A 
ENDROOT
BRANCH   1   9
ATOM      6  N   UNL     1      -0.133   1.437  -0.024  0.00  0.00    -0.284 N 
ATOM      7  H   UNL     1      -0.201   2.450  -0.016  0.00  0.00    +0.188 HD
ATOM      8  N   UNL     1       1.090   0.880   0.009  0.00  0.00    -0.173 NA
ATOM      9  C   UNL     1       0.847  -0.437  -0.007  0.00  0.00    +0.101 A 
ATOM     10  C   UNL     1      -0.542  -0.706  -0.060  0.00  0.00    +0.049 A 
ATOM     11  C   UNL     1      -1.147   0.527  -0.065  0.00  0.00    +0.105 A 
ENDBRANCH   1   9
BRANCH   3  12
ATOM     12  C   UNL     1       3.926  -4.774  -0.046  0.00  0.00    +0.007 A 
ATOM     13  C   UNL     1       3.256  -5.813  -0.715  0.00  0.00    +0.010 A 
ATOM     14  C   UNL     1       3.802  -7.096  -0.785  0.00  0.00    +0.001 A 
ATOM     15  C   UNL     1       5.031  -7.363  -0.188  0.00  0.00    +0.000 A 
ATOM     16  C   UNL     1       5.709  -6.347   0.483  0.00  0.00    +0.001 A 
ATOM     17  C   UNL     1       5.163  -5.062   0.551  0.00  0.00    +0.010 A 
ENDBRANCH   3  12
TORSDOF 2
