REMARK  Name = 
REMARK  7 active torsions:
REMARK  status: ('A' for Active; 'I' for Inactive)
REMARK    1  A    between atoms: C_1  and  C_2
REMARK    2  A    between atoms: C_5  and  C_21
REMARK    3  A    between atoms: C_7  and  C_8
REMARK    4  A    between atoms: C_11  and  C_14
REMARK    5  A    between atoms: N_16  and  C_17
REMARK    6  A    between atoms: C_17  and  C_18
REMARK    7  A    between atoms: N_23  and  C_24
REMARK                            x       y       z     vdW  Elec       q    Type
REMARK                         _______ _______ _______ _____ _____    ______ ____
ROOT
ATOM      1  C   UNL     1       0.941   0.260   0.179  0.00  0.00    +0.044 C 
ATOM      2  C   UNL     1       2.426   0.084  -0.027  0.00  0.00    -0.043 A 
ATOM      3  C   UNL     1       3.070  -1.169  -0.224  0.00  0.00    -0.014 A 
ATOM      4  C   UNL     1       4.483  -1.141  -0.384  0.00  0.00    +0.021 A 
ATOM      5  C   UNL     1       5.221   0.055  -0.379  0.00  0.00    +0.037 A 
ATOM      6  C   UNL     1       4.558   1.265  -0.204  0.00  0.00    +0.013 A 
ATOM      7  C   UNL     1       3.178   1.279  -0.040  0.00  0.00    +0.005 A 
ENDROOT
BRANCH   3   8
ATOM      8  C   UNL     1       2.365  -2.491  -0.304  0.00  0.00    -0.018 A 
ATOM      9  C   UNL     1       1.111  -2.636  -0.924  0.00  0.00    +0.009 A 
ATOM     10  C   UNL     1       0.475  -3.879  -1.054  0.00  0.00    +0.013 A 
ATOM     11  C   UNL     1       1.109  -5.043  -0.625  0.00  0.00    +0.037 A 
ATOM     12  C   UNL     1       2.347  -4.937   0.011  0.00  0.00    +0.013 A 
ATOM     13  C   UNL     1       2.954  -3.679   0.181  0.00  0.00    +0.009 A 
BRANCH  11  14
ATOM     14  C   UNL     1       0.506  -6.391  -0.848  0.00  0.00    +0.244 C 
ATOM     15  N   UNL     1      -0.358  -6.491  -1.922  0.00  0.00    -0.311 N 
ATOM     16  H   UNL     1      -0.375  -5.746  -2.602  0.00  0.00    +0.149 HD
ATOM     17  O   UNL     1       0.819  -7.339  -0.139  0.00  0.00    -0.270 OA
BRANCH  15  18
ATOM     18  C   UNL     1      -0.875  -7.772  -2.342  0.00  0.00    +0.108 C 
BRANCH  18  19
ATOM     19  C   UNL     1      -1.761  -7.585  -3.534  0.00  0.00    +0.006 C 
ATOM     20  C   UNL     1      -1.638  -8.500  -4.728  0.00  0.00    +0.005 C 
ATOM     21  C   UNL     1      -1.208  -7.065  -4.842  0.00  0.00    +0.005 C 
ENDBRANCH  18  19
ENDBRANCH  15  18
ENDBRANCH  11  14
ENDBRANCH   3   8
BRANCH   5  22
ATOM     22  C   UNL     1       6.703   0.103  -0.542  0.00  0.00    +0.244 C 
ATOM     23  N   UNL     1       7.280  -0.908  -1.289  0.00  0.00    -0.308 N 
ATOM     24  H   UNL     1       6.688  -1.569  -1.773  0.00  0.00    +0.149 HD
ATOM     25  O   UNL     1       7.338   1.032  -0.054  0.00  0.00    -0.270 OA
BRANCH  23  26
ATOM     26  C   UNL     1       8.677  -0.908  -1.598  0.00  0.00    +0.073 C 
ATOM     27  C   UNL     1       9.148  -0.596  -2.992  0.00  0.00    +0.024 C 
ATOM     28  C   UNL     1       9.277  -1.990  -2.452  0.00  0.00    +0.024 C 
ENDBRANCH  23  26
ENDBRANCH   5  22
TORSDOF 6
