REMARK  Name = 
REMARK  6 active torsions:
REMARK  status: ('A' for Active; 'I' for Inactive)
REMARK    1  A    between atoms: C_1  and  C_2
REMARK    2  A    between atoms: C_2  and  O_3
REMARK    3  A    between atoms: C_4  and  C_5
REMARK    4  A    between atoms: C_4  and  C_7
REMARK    5  A    between atoms: N_9  and  C_10
REMARK    6  A    between atoms: C_13  and  C_16
REMARK                            x       y       z     vdW  Elec       q    Type
REMARK                         _______ _______ _______ _____ _____    ______ ____
ROOT
ATOM      1  C   UNL     1       6.727  -2.386  -1.038  0.00  0.00    +0.034 A 
ATOM      2  C   UNL     1       7.444  -3.020  -0.029  0.00  0.00    +0.024 A 
ATOM      3  C   UNL     1       8.840  -3.076  -0.088  0.00  0.00    +0.010 A 
ATOM      4  C   UNL     1       9.554  -2.550  -1.179  0.00  0.00    -0.018 A 
ATOM      5  C   UNL     1       8.807  -1.851  -2.146  0.00  0.00    +0.010 A 
ATOM      6  C   UNL     1       7.412  -1.736  -2.059  0.00  0.00    +0.024 A 
ENDROOT
BRANCH   4   7
ATOM      7  C   UNL     1      11.012  -2.785  -1.339  0.00  0.00    -0.018 A 
ATOM      8  C   UNL     1      11.618  -3.958  -0.847  0.00  0.00    +0.008 A 
ATOM      9  C   UNL     1      12.976  -4.228  -1.039  0.00  0.00    +0.001 A 
ATOM     10  C   UNL     1      13.770  -3.326  -1.739  0.00  0.00    +0.000 A 
ATOM     11  C   UNL     1      13.202  -2.157  -2.235  0.00  0.00    +0.001 A 
ATOM     12  C   UNL     1      11.843  -1.885  -2.028  0.00  0.00    +0.008 A 
ENDBRANCH   4   7
BRANCH   1  14
ATOM     13  C   UNL     1       4.533  -3.457  -0.689  0.00  0.00    +0.262 C 
ATOM     14  N   UNL     1       5.322  -2.392  -1.078  0.00  0.00    -0.281 N 
ATOM     15  H   UNL     1       4.862  -1.672  -1.631  0.00  0.00    +0.155 HD
ATOM     16  O   UNL     1       4.964  -4.523  -0.249  0.00  0.00    -0.269 OA
BRANCH  13  19
ATOM     17  C   UNL     1       0.950  -2.040  -1.468  0.00  0.00    +0.087 C 
ATOM     18  C   UNL     1       2.451  -2.173  -1.370  0.00  0.00    +0.113 C 
ATOM     19  C   UNL     1       3.062  -3.287  -0.898  0.00  0.00    +0.150 C 
BRANCH  19  20
ATOM     20  C   UNL     1       2.197  -4.466  -0.485  0.00  0.00    +0.108 C 
ATOM     21  N   UNL     1       1.480  -5.445  -0.142  0.00  0.00    -0.191 NA
ENDBRANCH  19  20
BRANCH  18  22
ATOM     22  O   UNL     1       3.175  -1.063  -1.788  0.00  0.00    -0.510 OA
ATOM     23  H   UNL     1       2.557  -0.347  -2.033  0.00  0.00    +0.292 HD
ENDBRANCH  18  22
ENDBRANCH  13  19
ENDBRANCH   1  14
TORSDOF 5
