REMARK  Name = 
REMARK  5 active torsions:
REMARK  status: ('A' for Active; 'I' for Inactive)
REMARK    1  A    between atoms: N_1  and  S_2
REMARK    2  A    between atoms: S_2  and  C_5
REMARK    3  A    between atoms: C_8  and  C_15
REMARK    4  A    between atoms: C_10  and  C_11
REMARK    5  A    between atoms: C_18  and  C_20
REMARK                            x       y       z     vdW  Elec       q    Type
REMARK                         _______ _______ _______ _____ _____    ______ ____
ROOT
ATOM      1  C   UNL     1       3.329  -1.406   0.782  0.00  0.00    +0.117 A 
ATOM      2  C   UNL     1       2.705  -2.603   0.393  0.00  0.00    +0.082 A 
ATOM      3  C   UNL     1       3.225  -3.813   0.916  0.00  0.00    +0.026 A 
ATOM      4  C   UNL     1       4.344  -3.853   1.767  0.00  0.00    +0.018 A 
ATOM      5  C   UNL     1       4.928  -2.640   2.139  0.00  0.00    +0.013 A 
ATOM      6  C   UNL     1       4.427  -1.428   1.656  0.00  0.00    +0.030 A 
ENDROOT
BRANCH   4   7
ATOM      7  C   UNL     1       4.912  -5.119   2.223  0.00  0.00    +0.136 A 
ATOM      8  O   UNL     1       4.286  -6.246   1.788  0.00  0.00    -0.455 OA
ATOM      9  C   UNL     1       4.934  -7.349   2.289  0.00  0.00    +0.130 A 
ATOM     10  C   UNL     1       6.021  -6.893   3.021  0.00  0.00    +0.050 A 
ATOM     11  C   UNL     1       5.990  -5.476   3.003  0.00  0.00    +0.050 A 
BRANCH   9  12
ATOM     12  C   UNL     1       4.509  -8.688   2.069  0.00  0.00    +0.066 C 
ATOM     13  C   UNL     1       3.218  -9.040   2.007  0.00  0.00    +0.081 C 
ATOM     14  C   UNL     1       2.807 -10.472   1.920  0.00  0.00    +0.257 C 
ATOM     15  O   UNL     1       3.565 -11.411   1.746  0.00  0.00    -0.269 OA
ATOM     16  N   UNL     1       1.462 -10.572   2.142  0.00  0.00    -0.261 N 
ATOM     17  H   UNL     1       1.004 -11.465   2.223  0.00  0.00    +0.157 HD
ATOM     18  C   UNL     1       0.807  -9.428   2.409  0.00  0.00    +0.158 C 
ATOM     19  N   UNL     1      -0.413  -9.384   2.790  0.00  0.00    -0.279 NA
ATOM     20  H   UNL     1      -0.646  -8.395   2.948  0.00  0.00    +0.189 HD
ATOM     21  S   UNL     1       1.814  -8.045   2.211  0.00  0.00    -0.049 S 
ENDBRANCH   9  12
ENDBRANCH   4   7
BRANCH   2  22
ATOM     22  C   UNL     1       1.533  -2.732  -0.555  0.00  0.00    +0.419 C 
ATOM     23  F   UNL     1       0.442  -3.274   0.055  0.00  0.00    -0.166 F 
ATOM     24  F   UNL     1       1.828  -3.581  -1.585  0.00  0.00    -0.166 F 
ATOM     25  F   UNL     1       1.089  -1.603  -1.163  0.00  0.00    -0.166 F 
ENDBRANCH   2  22
BRANCH   1  26
ATOM     26  S   UNL     1       2.769   0.181   0.226  0.00  0.00    +0.056 S 
ATOM     27  O   UNL     1       1.359   0.291   0.521  0.00  0.00    -0.153 OA
ATOM     28  O   UNL     1       3.718   1.189   0.638  0.00  0.00    -0.153 OA
BRANCH  26  29
ATOM     29  N   UNL     1       2.955   0.064  -1.434  0.00  0.00    -0.204 NA
ATOM     30  H   UNL     1       2.037   0.036  -1.885  0.00  0.00    +0.144 HD
ATOM     31  H   UNL     1       3.564   0.809  -1.776  0.00  0.00    +0.144 HD
ENDBRANCH  26  29
ENDBRANCH   1  26
TORSDOF 5
