REMARK  Name = 
REMARK  9 active torsions:
REMARK  status: ('A' for Active; 'I' for Inactive)
REMARK    1  A    between atoms: C_2  and  C_3
REMARK    2  A    between atoms: C_2  and  C_4
REMARK    3  A    between atoms: C_2  and  N_13
REMARK    4  A    between atoms: C_4  and  C_5
REMARK    5  A    between atoms: C_5  and  C_6
REMARK    6  A    between atoms: C_9  and  O_10
REMARK    7  A    between atoms: C_14  and  C_16
REMARK    8  A    between atoms: C_16  and  C_17
REMARK    9  A    between atoms: C_18  and  C_26
REMARK                            x       y       z     vdW  Elec       q    Type
REMARK                         _______ _______ _______ _____ _____    ______ ____
ROOT
ATOM      1  C   UNL     1       4.404  -3.066  -0.013  0.00  0.00    +0.133 C 
ENDROOT
BRANCH   1   2
ATOM      2  C   UNL     1       4.613  -3.572   1.393  0.00  0.00    -0.006 A 
ATOM      3  C   UNL     1       4.581  -2.810   2.619  0.00  0.00    +0.004 A 
ATOM      4  C   UNL     1       4.388  -1.452   2.952  0.00  0.00    +0.010 A 
ATOM      5  C   UNL     1       4.352  -1.027   4.279  0.00  0.00    +0.001 A 
ATOM      6  C   UNL     1       4.582  -1.936   5.301  0.00  0.00    +0.002 A 
ATOM      7  C   UNL     1       4.842  -3.278   5.016  0.00  0.00    +0.026 A 
ATOM      8  C   UNL     1       4.821  -3.684   3.673  0.00  0.00    +0.047 A 
ATOM      9  N   UNL     1       5.040  -4.919   3.118  0.00  0.00    -0.354 N 
ATOM     10  H   UNL     1       5.261  -5.743   3.658  0.00  0.00    +0.166 HD
ATOM     11  C   UNL     1       4.934  -4.891   1.742  0.00  0.00    +0.051 A 
BRANCH  11  12
ATOM     12  C   UNL     1       5.180  -6.101   0.933  0.00  0.00    -0.001 A 
ATOM     13  C   UNL     1       4.485  -6.345  -0.259  0.00  0.00    +0.010 A 
ATOM     14  C   UNL     1       4.758  -7.471  -1.042  0.00  0.00    +0.001 A 
ATOM     15  C   UNL     1       5.710  -8.395  -0.626  0.00  0.00    +0.000 A 
ATOM     16  C   UNL     1       6.392  -8.189   0.569  0.00  0.00    +0.001 A 
ATOM     17  C   UNL     1       6.136  -7.048   1.337  0.00  0.00    +0.010 A 
ENDBRANCH  11  12
ENDBRANCH   1   2
BRANCH   1  20
ATOM     18  N   UNL     1       2.698  -1.318  -0.112  0.00  0.00    -0.312 N 
ATOM     19  H   UNL     1       2.081  -2.095   0.093  0.00  0.00    +0.149 HD
ATOM     20  C   UNL     1       4.056  -1.594  -0.135  0.00  0.00    +0.218 C 
ATOM     21  O   UNL     1       4.933  -0.742  -0.245  0.00  0.00    -0.275 OA
BRANCH  18  22
ATOM     22  C   UNL     1       2.087   0.023  -0.056  0.00  0.00    +0.070 C 
ATOM     23  C   UNL     1       2.915   1.100  -0.760  0.00  0.00    +0.028 C 
BRANCH  22  24
ATOM     24  C   UNL     1       1.726   0.401   1.395  0.00  0.00    +0.026 C 
BRANCH  24  25
ATOM     25  C   UNL     1       0.961   1.719   1.543  0.00  0.00    +0.037 C 
BRANCH  25  26
ATOM     26  C   UNL     1       0.674   2.045   2.992  0.00  0.00    -0.047 A 
ATOM     27  C   UNL     1      -0.522   1.634   3.595  0.00  0.00    +0.007 A 
ATOM     28  C   UNL     1      -0.778   1.935   4.935  0.00  0.00    +0.045 A 
ATOM     29  C   UNL     1       0.162   2.638   5.679  0.00  0.00    +0.117 A 
ATOM     30  C   UNL     1       1.357   3.052   5.102  0.00  0.00    +0.045 A 
ATOM     31  C   UNL     1       1.614   2.751   3.761  0.00  0.00    +0.007 A 
BRANCH  29  32
ATOM     32  O   UNL     1      -0.127   2.902   6.985  0.00  0.00    -0.507 OA
ATOM     33  H   UNL     1       0.639   3.342   7.388  0.00  0.00    +0.292 HD
ENDBRANCH  29  32
ENDBRANCH  25  26
ENDBRANCH  24  25
ENDBRANCH  22  24
ENDBRANCH  18  22
ENDBRANCH   1  20
TORSDOF 8
