REMARK  Name = 
REMARK  4 active torsions:
REMARK  status: ('A' for Active; 'I' for Inactive)
REMARK    1  A    between atoms: O_1  and  C_2
REMARK    2  A    between atoms: C_2  and  C_4
REMARK    3  A    between atoms: C_7  and  C_8
REMARK    4  A    between atoms: C_8  and  C_9
REMARK                            x       y       z     vdW  Elec       q    Type
REMARK                         _______ _______ _______ _____ _____    ______ ____
ROOT
ATOM      1  C   UNL     1       2.414   0.323   2.144  0.00  0.00    +0.211 A 
ATOM      2  O   UNL     1       2.526  -0.768   2.970  0.00  0.00    -0.453 OA
ATOM      3  C   UNL     1       3.805  -1.237   2.851  0.00  0.00    +0.110 A 
ATOM      4  C   UNL     1       4.529  -0.417   2.010  0.00  0.00    +0.046 A 
ATOM      5  C   UNL     1       3.634   0.580   1.552  0.00  0.00    +0.057 A 
ENDROOT
BRANCH   1   6
ATOM      6  C   UNL     1       1.134   0.976   2.020  0.00  0.00    +0.372 C 
ATOM      7  O   UNL     1       0.857   1.878   1.243  0.00  0.00    -0.242 OA
BRANCH   6   8
ATOM      8  O   UNL     1       0.232   0.458   2.895  0.00  0.00    -0.475 OA
ATOM      9  H   UNL     1       0.659  -0.241   3.431  0.00  0.00    +0.296 HD
ENDBRANCH   6   8
ENDBRANCH   1   6
BRANCH   3  10
ATOM     10  C   UNL     1       4.152  -2.467   3.625  0.00  0.00    +0.111 C 
BRANCH  10  11
ATOM     11  C   UNL     1       3.721  -3.758   2.950  0.00  0.00    -0.022 A 
ATOM     12  C   UNL     1       4.614  -4.790   2.617  0.00  0.00    +0.045 A 
ATOM     13 CL   UNL     1       6.311  -4.688   2.934  0.00  0.00    -0.083 Cl
ATOM     14  C   UNL     1       4.152  -5.970   2.017  0.00  0.00    +0.020 A 
ATOM     15  C   UNL     1       2.796  -6.142   1.744  0.00  0.00    +0.001 A 
ATOM     16  C   UNL     1       1.895  -5.137   2.078  0.00  0.00    +0.000 A 
ATOM     17  C   UNL     1       2.353  -3.963   2.679  0.00  0.00    +0.005 A 
ENDBRANCH  10  11
ENDBRANCH   3  10
TORSDOF 4
