REMARK  Name = 
REMARK  3 active torsions:
REMARK  status: ('A' for Active; 'I' for Inactive)
REMARK    1  A    between atoms: O_1  and  N_2
REMARK    2  A    between atoms: C_3  and  C_5
REMARK    3  A    between atoms: C_6  and  C_7
REMARK                            x       y       z     vdW  Elec       q    Type
REMARK                         _______ _______ _______ _____ _____    ______ ____
ROOT
ATOM      1  C   UNL     1       4.614  -1.155   0.240  0.00  0.00    +0.070 C 
ATOM      2  C   UNL     1       5.350  -2.143   0.775  0.00  0.00    +0.014 C 
ENDROOT
BRANCH   2   3
ATOM      3  C   UNL     1       6.824  -2.187   0.692  0.00  0.00    -0.006 A 
ATOM      4  C   UNL     1       7.538  -3.401   0.619  0.00  0.00    +0.049 A 
ATOM      5 CL   UNL     1       6.746  -4.941   0.627  0.00  0.00    -0.083 Cl
ATOM      6  C   UNL     1       8.934  -3.409   0.514  0.00  0.00    +0.040 A 
ATOM      7  C   UNL     1       9.635  -2.209   0.488  0.00  0.00    +0.042 A 
ATOM      8 CL   UNL     1      11.348  -2.216   0.329  0.00  0.00    -0.083 Cl
ATOM      9  C   UNL     1       8.959  -0.999   0.588  0.00  0.00    +0.020 A 
ATOM     10  C   UNL     1       7.567  -0.989   0.704  0.00  0.00    +0.011 A 
ENDBRANCH   2   3
BRANCH   1  13
ATOM     11  N   UNL     1       2.496  -0.076  -0.201  0.00  0.00    -0.194 N 
ATOM     12  H   UNL     1       1.481  -0.072  -0.223  0.00  0.00    +0.183 HD
ATOM     13  C   UNL     1       3.130  -1.172   0.304  0.00  0.00    +0.259 C 
ATOM     14  O   UNL     1       2.500  -2.110   0.781  0.00  0.00    -0.269 OA
BRANCH  11  15
ATOM     15  O   UNL     1       3.208   0.994  -0.769  0.00  0.00    -0.295 OA
ATOM     16  H   UNL     1       2.525   1.489  -1.257  0.00  0.00    +0.241 HD
ENDBRANCH  11  15
ENDBRANCH   1  13
TORSDOF 3
