REMARK  Name = 
REMARK  12 active torsions:
REMARK  status: ('A' for Active; 'I' for Inactive)
REMARK    1  A    between atoms: C_2  and  N_3
REMARK    2  A    between atoms: C_2  and  C_11
REMARK    3  A    between atoms: C_2  and  C_14
REMARK    4  A    between atoms: C_4  and  O_6
REMARK    5  A    between atoms: O_6  and  C_7
REMARK    6  A    between atoms: C_7  and  C_8
REMARK    7  A    between atoms: C_7  and  C_9
REMARK    8  A    between atoms: C_7  and  C_10
REMARK    9  A    between atoms: C_11  and  C_12
REMARK   10  A    between atoms: C_11  and  C_13
REMARK   11  A    between atoms: N_16  and  C_17
REMARK   12  A    between atoms: C_23  and  C_24
REMARK                            x       y       z     vdW  Elec       q    Type
REMARK                         _______ _______ _______ _____ _____    ______ ____
ROOT
ATOM      1  C   UNL     1       1.959  -0.116  -0.253  0.00  0.00    +0.165 C 
ENDROOT
BRANCH   1   2
ATOM      2  N   UNL     1       0.495  -0.140  -0.169  0.00  0.00    -0.270 N 
ATOM      3  H   UNL     1       0.031   0.144   0.684  0.00  0.00    +0.153 HD
ATOM      4  C   UNL     1      -0.291  -0.349  -1.257  0.00  0.00    +0.401 C 
ATOM      5  O   UNL     1       0.179  -0.585  -2.359  0.00  0.00    -0.226 OA
BRANCH   4   6
ATOM      6  O   UNL     1      -1.603  -0.178  -0.981  0.00  0.00    -0.445 OA
BRANCH   6   7
ATOM      7  C   UNL     1      -2.535  -0.186  -2.104  0.00  0.00    +0.107 C 
ATOM      8  C   UNL     1      -2.264   1.006  -3.033  0.00  0.00    +0.055 C 
ATOM      9  C   UNL     1      -3.942   0.003  -1.519  0.00  0.00    +0.055 C 
ATOM     10  C   UNL     1      -2.507  -1.526  -2.856  0.00  0.00    +0.055 C 
ENDBRANCH   6   7
ENDBRANCH   4   6
ENDBRANCH   1   2
BRANCH   1  11
ATOM     11  C   UNL     1       2.456   1.191  -0.942  0.00  0.00    +0.238 C 
ATOM     12  N   UNL     1       2.121   1.358  -2.283  0.00  0.00    -0.283 N 
ATOM     13  H   UNL     1       1.490   0.658  -2.696  0.00  0.00    +0.155 HD
ATOM     14  O   UNL     1       3.089   2.006  -0.267  0.00  0.00    -0.273 OA
BRANCH  12  15
ATOM     15  C   UNL     1       2.432   2.490  -3.099  0.00  0.00    +0.045 A 
ATOM     16  C   UNL     1       1.732   2.748  -4.303  0.00  0.00    +0.054 A 
ATOM     17  C   UNL     1       1.958   3.932  -5.029  0.00  0.00    +0.053 A 
ATOM     18 CL   UNL     1       1.073   4.352  -6.456  0.00  0.00    -0.083 Cl
ATOM     19  C   UNL     1       2.948   4.823  -4.621  0.00  0.00    +0.021 A 
ATOM     20  C   UNL     1       3.699   4.544  -3.487  0.00  0.00    +0.003 A 
ATOM     21  C   UNL     1       3.430   3.401  -2.728  0.00  0.00    +0.024 A 
BRANCH  16  22
ATOM     22  C   UNL     1       0.780   1.779  -4.864  0.00  0.00    +0.262 C 
ATOM     23  O   UNL     1       0.988   0.575  -4.780  0.00  0.00    -0.296 OA
ENDBRANCH  16  22
ENDBRANCH  12  15
ENDBRANCH   1  11
BRANCH   1  24
ATOM     24  C   UNL     1       2.603  -1.412  -0.814  0.00  0.00    +0.012 C 
ATOM     25  C   UNL     1       2.163  -2.638  -0.001  0.00  0.00    +0.009 C 
ATOM     26  C   UNL     1       4.135  -1.334  -0.811  0.00  0.00    +0.009 C 
ENDBRANCH   1  24
TORSDOF 7
