REMARK  Name = 
REMARK  8 active torsions:
REMARK  status: ('A' for Active; 'I' for Inactive)
REMARK    1  A    between atoms: O_1  and  C_2
REMARK    2  A    between atoms: C_2  and  C_4
REMARK    3  A    between atoms: C_5  and  S_9
REMARK    4  A    between atoms: S_9  and  N_12
REMARK    5  A    between atoms: N_12  and  C_13
REMARK    6  A    between atoms: C_14  and  O_15
REMARK    7  A    between atoms: C_17  and  C_20
REMARK    8  A    between atoms: C_20  and  O_21
REMARK                            x       y       z     vdW  Elec       q    Type
REMARK                         _______ _______ _______ _____ _____    ______ ____
ROOT
ATOM      1  N   UNL     1       5.959   0.497  -3.529  0.00  0.00    -0.213 N 
ATOM      2  H   UNL     1       5.535  -0.188  -4.175  0.00  0.00    +0.174 HD
ENDROOT
BRANCH   1   3
ATOM      3  C   UNL     1       6.446   1.688  -4.158  0.00  0.00    +0.089 A 
ATOM      4  C   UNL     1       5.734   2.243  -5.220  0.00  0.00    +0.029 A 
ATOM      5  C   UNL     1       6.185   3.419  -5.828  0.00  0.00    +0.017 A 
ATOM      6  C   UNL     1       7.369   4.034  -5.394  0.00  0.00    +0.062 A 
ATOM      7  C   UNL     1       8.084   3.485  -4.327  0.00  0.00    +0.062 A 
ATOM      8  C   UNL     1       7.604   2.333  -3.702  0.00  0.00    +0.140 A 
BRANCH   6   9
ATOM      9  C   UNL     1       7.775   5.301  -6.050  0.00  0.00    +0.337 C 
ATOM     10  O   UNL     1       6.964   6.081  -6.521  0.00  0.00    -0.245 OA
BRANCH   9  11
ATOM     11  O   UNL     1       9.108   5.495  -6.113  0.00  0.00    -0.477 OA
ATOM     12  H   UNL     1       9.659   4.736  -5.846  0.00  0.00    +0.295 HD
ENDBRANCH   9  11
ENDBRANCH   6   9
BRANCH   8  13
ATOM     13  O   UNL     1       8.322   1.873  -2.635  0.00  0.00    -0.505 OA
ATOM     14  H   UNL     1       7.724   1.302  -2.112  0.00  0.00    +0.292 HD
ENDBRANCH   8  13
ENDBRANCH   1   3
BRANCH   1  15
ATOM     15  S   UNL     1       4.947   0.674  -2.189  0.00  0.00    +0.074 S 
ATOM     16  O   UNL     1       4.456  -0.636  -1.824  0.00  0.00    -0.150 OA
ATOM     17  O   UNL     1       5.624   1.520  -1.228  0.00  0.00    -0.150 OA
BRANCH  15  22
ATOM     18  C   UNL     1       2.571   1.099  -3.542  0.00  0.00    +0.123 A 
ATOM     19  S   UNL     1       1.226   2.161  -3.633  0.00  0.00    -0.088 S 
ATOM     20  C   UNL     1       1.850   3.174  -2.411  0.00  0.00    +0.048 A 
ATOM     21  C   UNL     1       3.060   2.721  -1.932  0.00  0.00    +0.037 A 
ATOM     22  C   UNL     1       3.491   1.532  -2.603  0.00  0.00    +0.130 A 
BRANCH  18  23
ATOM     23  C   UNL     1       2.669  -0.055  -4.415  0.00  0.00    +0.345 C 
ATOM     24  O   UNL     1       3.717  -0.562  -4.777  0.00  0.00    -0.244 OA
BRANCH  23  25
ATOM     25  O   UNL     1       1.460  -0.513  -4.828  0.00  0.00    -0.477 OA
ATOM     26  H   UNL     1       0.710  -0.016  -4.433  0.00  0.00    +0.295 HD
ENDBRANCH  23  25
ENDBRANCH  18  23
ENDBRANCH  15  22
ENDBRANCH   1  15
TORSDOF 8
