REMARK  Name = 
REMARK  4 active torsions:
REMARK  status: ('A' for Active; 'I' for Inactive)
REMARK    1  A    between atoms: C_2  and  C_4
REMARK    2  A    between atoms: C_9  and  N_10
REMARK    3  A    between atoms: N_14  and  C_15
REMARK    4  A    between atoms: C_17  and  O_18
REMARK                            x       y       z     vdW  Elec       q    Type
REMARK                         _______ _______ _______ _____ _____    ______ ____
ROOT
ATOM      1  N   UNL     1       2.618  -2.714   0.718  0.00  0.00    -0.299 N 
ATOM      2  H   UNL     1       2.034  -3.341   1.271  0.00  0.00    +0.154 HD
ATOM      3  C   UNL     1       1.968  -2.233  -0.445  0.00  0.00    +0.128 A 
ATOM      4  C   UNL     1       1.167  -3.101  -1.155  0.00  0.00    +0.063 A 
ATOM      5  C   UNL     1       0.601  -2.608  -2.306  0.00  0.00    +0.118 A 
ATOM      6  N   UNL     1       0.788  -1.356  -2.759  0.00  0.00    -0.223 NA
ATOM      7  C   UNL     1       1.588  -0.569  -2.028  0.00  0.00    +0.221 A 
ATOM      8  N   UNL     1       1.778   0.722  -2.530  0.00  0.00    -0.283 N 
ATOM      9  H   UNL     1       1.265   0.823  -3.393  0.00  0.00    +0.155 HD
ATOM     10  N   UNL     1       2.181  -0.984  -0.896  0.00  0.00    -0.199 NA
ENDROOT
BRANCH   1  12
ATOM     11  C   UNL     1       3.740  -2.304   2.898  0.00  0.00    +0.058 A 
ATOM     12  C   UNL     1       3.619  -2.082   1.504  0.00  0.00    +0.045 A 
ATOM     13  C   UNL     1       4.560  -1.226   0.905  0.00  0.00    +0.024 A 
ATOM     14  C   UNL     1       5.550  -0.576   1.647  0.00  0.00    +0.002 A 
ATOM     15  C   UNL     1       5.659  -0.807   3.010  0.00  0.00    +0.001 A 
ATOM     16  C   UNL     1       4.774  -1.684   3.630  0.00  0.00    +0.015 A 
BRANCH  11  20
ATOM     17  N   UNL     1       2.631  -2.995   4.968  0.00  0.00    -0.325 N 
ATOM     18  H   UNL     1       2.932  -2.151   5.434  0.00  0.00    +0.145 HD
ATOM     19  H   UNL     1       1.957  -3.573   5.454  0.00  0.00    +0.145 HD
ATOM     20  C   UNL     1       2.792  -3.202   3.622  0.00  0.00    +0.243 C 
ATOM     21  O   UNL     1       2.153  -4.072   3.039  0.00  0.00    -0.270 OA
ENDBRANCH  11  20
ENDBRANCH   1  12
BRANCH   8  22
ATOM     22  C   UNL     1       2.622   1.775  -2.153  0.00  0.00    +0.037 A 
ATOM     23  C   UNL     1       2.786   2.874  -3.013  0.00  0.00    +0.023 A 
ATOM     24  C   UNL     1       3.690   3.903  -2.714  0.00  0.00    +0.005 A 
ATOM     25  C   UNL     1       4.438   3.856  -1.542  0.00  0.00    +0.045 A 
ATOM     26  C   UNL     1       4.243   2.806  -0.661  0.00  0.00    +0.119 A 
ATOM     27  C   UNL     1       3.347   1.781  -0.958  0.00  0.00    +0.068 A 
BRANCH  26  28
ATOM     28  O   UNL     1       4.943   2.802   0.511  0.00  0.00    -0.507 OA
ATOM     29  H   UNL     1       4.549   2.120   1.083  0.00  0.00    +0.292 HD
ENDBRANCH  26  28
ENDBRANCH   8  22
TORSDOF 4
