REMARK  Name = 
REMARK  10 active torsions:
REMARK  status: ('A' for Active; 'I' for Inactive)
REMARK    1  A    between atoms: C_5  and  C_6
REMARK    2  A    between atoms: C_6  and  O_7
REMARK    3  A    between atoms: O_7  and  C_8
REMARK    4  A    between atoms: C_8  and  C_9
REMARK    5  A    between atoms: C_9  and  N_10
REMARK    6  A    between atoms: N_10  and  C_11
REMARK    7  A    between atoms: C_11  and  C_12
REMARK    8  A    between atoms: C_12  and  N_13
REMARK    9  A    between atoms: N_13  and  S_14
REMARK   10  A    between atoms: S_14  and  C_17
REMARK                            x       y       z     vdW  Elec       q    Type
REMARK                         _______ _______ _______ _____ _____    ______ ____
ROOT
ATOM      1  C   UNL     1      12.973  -3.799  -1.655  0.00  0.00    +0.121 C 
ENDROOT
BRANCH   1   2
ATOM      2  N   UNL     1      13.568  -5.147  -1.682  0.00  0.00    -0.189 NA
ATOM      3  H   UNL     1      13.060  -5.859  -2.209  0.00  0.00    +0.148 HD
BRANCH   2   4
ATOM      4  S   UNL     1      15.210  -5.208  -2.109  0.00  0.00    +0.059 S 
ATOM      5  O   UNL     1      15.369  -4.343  -3.254  0.00  0.00    -0.153 OA
ATOM      6  O   UNL     1      15.546  -6.613  -2.187  0.00  0.00    -0.153 OA
BRANCH   4   7
ATOM      7  C   UNL     1      16.002  -4.543  -0.656  0.00  0.00    +0.113 A 
ATOM      8  C   UNL     1      16.758  -3.331  -0.637  0.00  0.00    +0.011 A 
ATOM      9  C   UNL     1      17.286  -2.932   0.616  0.00  0.00    +0.002 A 
ATOM     10  C   UNL     1      18.013  -1.740   0.689  0.00  0.00    +0.119 A 
ATOM     11  N   UNL     1      18.260  -0.918  -0.351  0.00  0.00    -0.263 NA
ATOM     12  C   UNL     1      17.771  -1.307  -1.539  0.00  0.00    +0.111 A 
ATOM     13  C   UNL     1      17.086  -3.708   1.770  0.00  0.00    +0.010 A 
ATOM     14  C   UNL     1      16.353  -4.888   1.721  0.00  0.00    +0.003 A 
ATOM     15  C   UNL     1      17.041  -2.473  -1.729  0.00  0.00    +0.030 A 
ATOM     16  C   UNL     1      15.809  -5.303   0.514  0.00  0.00    +0.029 A 
ENDBRANCH   4   7
ENDBRANCH   2   4
ENDBRANCH   1   2
BRANCH   1  17
ATOM     17  C   UNL     1      11.472  -3.862  -1.322  0.00  0.00    +0.098 C 
BRANCH  17  18
ATOM     18  N   UNL     1      10.836  -2.540  -1.220  0.00  0.00    -0.313 NA
ATOM     19  H   UNL     1       9.858  -2.667  -0.957  0.00  0.00    +0.122 HD
BRANCH  18  20
ATOM     20  C   UNL     1      10.900  -1.793  -2.482  0.00  0.00    +0.109 C 
BRANCH  20  21
ATOM     21  C   UNL     1      10.281  -0.402  -2.353  0.00  0.00    +0.175 C 
BRANCH  21  22
ATOM     22  O   UNL     1      10.409   0.258  -3.613  0.00  0.00    -0.374 OA
BRANCH  22  23
ATOM     23  C   UNL     1       9.905   1.589  -3.549  0.00  0.00    +0.195 C 
BRANCH  23  28
ATOM     24 CL   UNL     1      10.583   4.610  -8.723  0.00  0.00    -0.084 Cl
ATOM     25  C   UNL     1      10.380   3.716  -7.266  0.00  0.00    +0.041 A 
ATOM     26  C   UNL     1      11.325   2.760  -6.902  0.00  0.00    +0.020 A 
ATOM     27  C   UNL     1      11.167   2.050  -5.708  0.00  0.00    +0.007 A 
ATOM     28  C   UNL     1      10.060   2.284  -4.878  0.00  0.00    -0.022 A 
ATOM     29  C   UNL     1       9.119   3.252  -5.263  0.00  0.00    +0.007 A 
ATOM     30  C   UNL     1       9.276   3.963  -6.454  0.00  0.00    +0.020 A 
ENDBRANCH  23  28
ENDBRANCH  22  23
ENDBRANCH  21  22
ENDBRANCH  20  21
ENDBRANCH  18  20
ENDBRANCH  17  18
ENDBRANCH   1  17
TORSDOF 10
