REMARK  Name = 
REMARK  6 active torsions:
REMARK  status: ('A' for Active; 'I' for Inactive)
REMARK    1  A    between atoms: C_2  and  C_3
REMARK    2  A    between atoms: C_2  and  N_5
REMARK    3  A    between atoms: C_2  and  C_22
REMARK    4  A    between atoms: C_3  and  N_4
REMARK    5  A    between atoms: C_6  and  C_8
REMARK    6  A    between atoms: C_11  and  C_13
REMARK                            x       y       z     vdW  Elec       q    Type
REMARK                         _______ _______ _______ _____ _____    ______ ____
ROOT
ATOM      1  N   UNL     1       2.531   1.230   0.518  0.00  0.00    -0.303 N 
ATOM      2  H   UNL     1       2.801   1.125   1.486  0.00  0.00    +0.150 HD
ATOM      3  C   UNL     1       2.437   2.512   0.020  0.00  0.00    +0.251 C 
ATOM      4  O   UNL     1       2.038   2.731  -1.122  0.00  0.00    -0.270 OA
ENDROOT
BRANCH   3   5
ATOM      5  C   UNL     1       2.777   3.576   0.958  0.00  0.00    +0.074 A 
ATOM      6  S   UNL     1       3.307   3.241   2.547  0.00  0.00    -0.084 S 
ATOM      7  C   UNL     1       3.273   4.897   3.020  0.00  0.00    +0.021 A 
ATOM      8  C   UNL     1       2.991   5.694   1.924  0.00  0.00    +0.017 A 
ATOM      9  C   UNL     1       2.711   4.938   0.743  0.00  0.00    +0.021 A 
BRANCH   7  10
ATOM     10  C   UNL     1       3.504   5.251   4.431  0.00  0.00    +0.001 A 
ATOM     11  C   UNL     1       3.096   4.411   5.483  0.00  0.00    +0.029 A 
ATOM     12  C   UNL     1       3.308   4.793   6.798  0.00  0.00    +0.114 A 
ATOM     13  N   UNL     1       3.878   5.946   7.192  0.00  0.00    -0.237 NA
ATOM     14  C   UNL     1       4.245   6.729   6.162  0.00  0.00    +0.139 A 
ATOM     15  N   UNL     1       4.827   7.955   6.325  0.00  0.00    -0.346 N 
ATOM     16  H   UNL     1       5.017   8.363   7.228  0.00  0.00    +0.167 HD
ATOM     17  C   UNL     1       5.094   8.507   5.102  0.00  0.00    +0.085 A 
ATOM     18  C   UNL     1       4.684   7.607   4.139  0.00  0.00    +0.029 A 
ATOM     19  C   UNL     1       4.113   6.475   4.796  0.00  0.00    +0.027 A 
ENDBRANCH   7  10
ENDBRANCH   3   5
BRANCH   1  20
ATOM     20  C   UNL     1       2.091   0.045  -0.209  0.00  0.00    +0.117 C 
BRANCH  20  21
ATOM     21  C   UNL     1       2.960  -1.149   0.158  0.00  0.00    -0.026 A 
ATOM     22  C   UNL     1       3.733  -1.773  -0.835  0.00  0.00    +0.005 A 
ATOM     23  C   UNL     1       4.523  -2.885  -0.535  0.00  0.00    +0.000 A 
ATOM     24  C   UNL     1       4.560  -3.385   0.764  0.00  0.00    +0.000 A 
ATOM     25  C   UNL     1       3.807  -2.772   1.765  0.00  0.00    +0.000 A 
ATOM     26  C   UNL     1       3.013  -1.663   1.466  0.00  0.00    +0.005 A 
ENDBRANCH  20  21
BRANCH  20  27
ATOM     27  C   UNL     1       0.582  -0.260   0.038  0.00  0.00    +0.104 C 
BRANCH  27  28
ATOM     28  N   UNL     1      -0.344   0.794  -0.403  0.00  0.00    -0.328 NA
ATOM     29  H   UNL     1      -0.056   1.681   0.013  0.00  0.00    +0.118 HD
ATOM     30  H   UNL     1      -0.211   0.950  -1.405  0.00  0.00    +0.118 HD
ENDBRANCH  27  28
ENDBRANCH  20  27
ENDBRANCH   1  20
TORSDOF 6
