REMARK  Name = 
REMARK  5 active torsions:
REMARK  status: ('A' for Active; 'I' for Inactive)
REMARK    1  A    between atoms: O_1  and  C_2
REMARK    2  A    between atoms: C_5  and  C_6
REMARK    3  A    between atoms: C_6  and  C_8
REMARK    4  A    between atoms: C_14  and  N_17
REMARK    5  A    between atoms: C_15  and  O_16
REMARK                            x       y       z     vdW  Elec       q    Type
REMARK                         _______ _______ _______ _____ _____    ______ ____
ROOT
ATOM      1  C   UNL     1       2.324   0.047  -0.005  0.00  0.00    +0.165 A 
ATOM      2  C   UNL     1       2.919  -1.204  -0.196  0.00  0.00    +0.238 A 
ATOM      3  C   UNL     1       4.317  -1.285  -0.270  0.00  0.00    +0.328 A 
ATOM      4  C   UNL     1       5.122  -0.169  -0.022  0.00  0.00    +0.103 A 
ATOM      5  C   UNL     1       4.497   1.077   0.166  0.00  0.00    +0.022 A 
ATOM      6  C   UNL     1       3.103   1.189   0.154  0.00  0.00    +0.050 A 
ENDROOT
BRANCH   3   7
ATOM      7  N   UNL     1       4.903  -2.515  -0.746  0.00  0.00    +0.084 N 
ATOM      8  O   UNL     1       4.555  -3.554  -0.163  0.00  0.00    +0.042 OA
ATOM      9  O   UNL     1       5.667  -2.450  -1.715  0.00  0.00    -0.576 OA
ENDBRANCH   3   7
BRANCH   1  10
ATOM     10  O   UNL     1       0.961   0.138   0.019  0.00  0.00    -0.503 OA
ATOM     11  H   UNL     1       0.693   1.069  -0.041  0.00  0.00    +0.292 HD
ENDBRANCH   1  10
BRANCH   2  12
ATOM     12  O   UNL     1       2.094  -2.292  -0.314  0.00  0.00    -0.499 OA
ATOM     13  H   UNL     1       2.570  -3.112  -0.074  0.00  0.00    +0.293 HD
ENDBRANCH   2  12
BRANCH   4  14
ATOM     14  C   UNL     1       6.602  -0.185   0.055  0.00  0.00    +0.200 C 
ATOM     15  O   UNL     1       7.202   0.744  -0.479  0.00  0.00    -0.286 OA
BRANCH  14  16
ATOM     16  C   UNL     1       7.376  -1.208   0.819  0.00  0.00    +0.022 A 
ATOM     17  C   UNL     1       8.745  -1.331   0.541  0.00  0.00    +0.012 A 
ATOM     18  C   UNL     1       9.539  -2.231   1.255  0.00  0.00    +0.001 A 
ATOM     19  C   UNL     1       8.969  -3.022   2.249  0.00  0.00    +0.000 A 
ATOM     20  C   UNL     1       7.609  -2.910   2.533  0.00  0.00    +0.001 A 
ATOM     21  C   UNL     1       6.814  -1.995   1.833  0.00  0.00    +0.012 A 
ENDBRANCH  14  16
ENDBRANCH   4  14
TORSDOF 5
