REMARK  Name = 
REMARK  6 active torsions:
REMARK  status: ('A' for Active; 'I' for Inactive)
REMARK    1  A    between atoms: C_2  and  N_18
REMARK    2  A    between atoms: C_4  and  C_6
REMARK    3  A    between atoms: C_11  and  C_12
REMARK    4  A    between atoms: C_12  and  C_14
REMARK    5  A    between atoms: C_14  and  C_15
REMARK    6  A    between atoms: C_16  and  O_17
REMARK                            x       y       z     vdW  Elec       q    Type
REMARK                         _______ _______ _______ _____ _____    ______ ____
ROOT
ATOM      1  C   UNL     1       1.985  -0.048  -0.070  0.00  0.00    +0.083 C 
ATOM      2  C   UNL     1       3.013   0.731  -0.867  0.00  0.00    +0.047 C 
ATOM      3  C   UNL     1       2.839  -0.755  -1.075  0.00  0.00    +0.033 C 
ENDROOT
BRANCH   1   4
ATOM      4  N   UNL     1       0.569   0.082  -0.279  0.00  0.00    -0.296 N 
ATOM      5  H   UNL     1       0.202  -0.138  -1.195  0.00  0.00    +0.151 HD
ATOM      6  C   UNL     1      -0.316  -0.034   0.773  0.00  0.00    +0.305 C 
ATOM      7  N   UNL     1      -1.616   0.225   0.388  0.00  0.00    -0.254 N 
ATOM      8  H   UNL     1      -1.709   0.963  -0.295  0.00  0.00    +0.158 HD
ATOM      9  C   UNL     1      -2.643   0.256   1.339  0.00  0.00    +0.126 A 
ATOM     10  C   UNL     1      -2.743  -0.713   2.334  0.00  0.00    +0.045 A 
ATOM     11  C   UNL     1      -3.670  -0.534   3.357  0.00  0.00    +0.020 A 
ATOM     12  C   UNL     1      -4.464   0.602   3.347  0.00  0.00    +0.036 A 
ATOM     13 BR   UNL     1      -5.643   0.960   4.772  0.00  0.00    -0.049 Br
ATOM     14  C   UNL     1      -4.347   1.479   2.279  0.00  0.00    +0.128 A 
ATOM     15  N   UNL     1      -3.476   1.313   1.252  0.00  0.00    -0.239 NA
ATOM     16  O   UNL     1       0.040  -0.296   1.918  0.00  0.00    -0.252 OA
ENDBRANCH   1   4
BRANCH   2  17
ATOM     17  C   UNL     1       2.596   1.756  -1.907  0.00  0.00    +0.035 A 
ATOM     18  C   UNL     1       2.194   3.056  -1.538  0.00  0.00    +0.134 A 
ATOM     19  C   UNL     1       1.786   4.009  -2.498  0.00  0.00    +0.059 A 
ATOM     20  C   UNL     1       1.852   3.690  -3.856  0.00  0.00    +0.018 A 
ATOM     21  C   UNL     1       2.287   2.431  -4.248  0.00  0.00    +0.039 A 
ATOM     22  C   UNL     1       2.647   1.488  -3.284  0.00  0.00    +0.130 A 
ATOM     23  F   UNL     1       3.068   0.292  -3.720  0.00  0.00    -0.205 F 
BRANCH  18  24
ATOM     24  O   UNL     1       2.231   3.364  -0.198  0.00  0.00    -0.506 OA
ATOM     25  H   UNL     1       2.120   4.336  -0.093  0.00  0.00    +0.292 HD
ENDBRANCH  18  24
BRANCH  19  26
ATOM     26  C   UNL     1       1.286   5.343  -2.061  0.00  0.00    +0.166 C 
ATOM     27  O   UNL     1       1.651   5.783  -0.972  0.00  0.00    -0.292 OA
BRANCH  26  28
ATOM     28  C   UNL     1       0.332   6.087  -2.983  0.00  0.00    +0.076 C 
ATOM     29  C   UNL     1      -0.534   7.088  -2.240  0.00  0.00    +0.012 C 
ENDBRANCH  26  28
ENDBRANCH  19  26
ENDBRANCH   2  17
TORSDOF 5
