REMARK  Name = 
REMARK  10 active torsions:
REMARK  status: ('A' for Active; 'I' for Inactive)
REMARK    1  A    between atoms: C_2  and  C_3
REMARK    2  A    between atoms: C_2  and  N_13
REMARK    3  A    between atoms: C_2  and  B_23
REMARK    4  A    between atoms: C_3  and  C_4
REMARK    5  A    between atoms: C_8  and  C_10
REMARK    6  A    between atoms: C_10  and  O_11
REMARK    7  A    between atoms: C_14  and  C_16
REMARK    8  A    between atoms: C_16  and  C_17
REMARK    9  A    between atoms: B_23  and  O_24
REMARK   10  A    between atoms: B_23  and  O_25
REMARK                            x       y       z     vdW  Elec       q    Type
REMARK                         _______ _______ _______ _____ _____    ______ ____
ROOT
ATOM      1  C   UNL     1       2.163   0.140  -0.123  0.00  0.00    +0.000 C 
ENDROOT
BRANCH   1   2
ATOM      2  N   UNL     1       2.589   0.530  -1.470  0.00  0.00    +0.000 N 
ATOM      3  H   UNL     1       3.235   1.329  -1.572  0.00  0.00    +0.000 HD
ATOM      4  C   UNL     1       2.194  -0.104  -2.609  0.00  0.00    +0.000 C 
ATOM      5  O   UNL     1       1.392  -1.029  -2.572  0.00  0.00    +0.000 OA
BRANCH   4   6
ATOM      6  C   UNL     1       2.766   0.310  -3.942  0.00  0.00    +0.000 C 
BRANCH   6   7
ATOM      7  C   UNL     1       1.699   0.765  -4.900  0.00  0.00    +0.000 A 
ATOM      8  C   UNL     1       1.507   0.093  -6.120  0.00  0.00    +0.000 A 
ATOM      9  C   UNL     1       0.527   0.526  -7.018  0.00  0.00    +0.000 A 
ATOM     10  C   UNL     1      -0.269   1.632  -6.705  0.00  0.00    +0.000 A 
ATOM     11  C   UNL     1      -0.085   2.306  -5.495  0.00  0.00    +0.000 A 
ATOM     12  C   UNL     1       0.896   1.877  -4.595  0.00  0.00    +0.000 A 
ENDBRANCH   6   7
ENDBRANCH   4   6
ENDBRANCH   1   2
BRANCH   1  13
ATOM     13  B   UNL     1       2.696   1.228   0.983  0.00  0.00    +0.000 B 
BRANCH  13  14
ATOM     14  O   UNL     1       2.367   2.647   0.821  0.00  0.00    +0.000 OA
ATOM     15  H   UNL     1       1.727   2.707   0.068  0.00  0.00    +0.000 HD
ENDBRANCH  13  14
BRANCH  13  16
ATOM     16  O   UNL     1       3.622   0.869   2.072  0.00  0.00    +0.000 OA
ATOM     17  H   UNL     1       3.476  -0.078   2.311  0.00  0.00    +0.000 HD
ENDBRANCH  13  16
ENDBRANCH   1  13
BRANCH   1  18
ATOM     18  C   UNL     1       2.585  -1.325   0.202  0.00  0.00    +0.000 C 
BRANCH  18  19
ATOM     19  C   UNL     1       4.071  -1.659   0.166  0.00  0.00    +0.000 A 
ATOM     20  C   UNL     1       5.075  -0.722  -0.149  0.00  0.00    +0.000 A 
ATOM     21  C   UNL     1       6.435  -1.069  -0.158  0.00  0.00    +0.000 A 
ATOM     22  C   UNL     1       6.789  -2.393   0.155  0.00  0.00    +0.000 A 
ATOM     23  C   UNL     1       5.808  -3.338   0.464  0.00  0.00    +0.000 A 
ATOM     24  C   UNL     1       4.459  -2.973   0.472  0.00  0.00    +0.000 A 
BRANCH  21  25
ATOM     25  C   UNL     1       7.449  -0.019  -0.498  0.00  0.00    +0.000 C 
ATOM     26  O   UNL     1       7.077   1.115  -0.761  0.00  0.00    +0.000 OA
BRANCH  25  27
ATOM     27  O   UNL     1       8.777  -0.267  -0.523  0.00  0.00    +0.000 OA
ATOM     28  H   UNL     1       9.169  -1.124  -0.327  0.00  0.00    +0.000 HD
ENDBRANCH  25  27
ENDBRANCH  21  25
ENDBRANCH  18  19
ENDBRANCH   1  18
TORSDOF 10
