REMARK  Name = 
REMARK  3 active torsions:
REMARK  status: ('A' for Active; 'I' for Inactive)
REMARK    1  A    between atoms: C_10  and  C_20
REMARK    2  A    between atoms: C_16  and  O_17
REMARK    3  A    between atoms: C_23  and  O_24
REMARK                            x       y       z     vdW  Elec       q    Type
REMARK                         _______ _______ _______ _____ _____    ______ ____
ROOT
ATOM      1  C   UNL     1       2.076   0.073   0.017  0.00  0.00    +0.035 C 
ATOM      2  C   UNL     1       2.477  -1.383   0.007  0.00  0.00    +0.001 A 
ATOM      3  C   UNL     1       2.195  -2.188  -1.110  0.00  0.00    +0.053 A 
ATOM      4  C   UNL     1       2.614  -3.515  -1.138  0.00  0.00    +0.117 A 
ATOM      5  C   UNL     1       3.296  -4.067  -0.063  0.00  0.00    +0.049 A 
ATOM      6  C   UNL     1       3.545  -3.289   1.067  0.00  0.00    +0.049 A 
ATOM      7  C   UNL     1       3.116  -1.962   1.112  0.00  0.00    +0.125 A 
ATOM      8  O   UNL     1       3.404  -1.279   2.267  0.00  0.00    -0.484 OA
ATOM      9  C   UNL     1       2.623  -0.092   2.464  0.00  0.00    +0.207 C 
ATOM     10  C   UNL     1       2.656   0.813   1.228  0.00  0.00    +0.048 C 
ATOM     11  C   UNL     1       4.064   1.216   0.764  0.00  0.00    +0.083 C 
ATOM     12  C   UNL     1       3.893   1.527  -0.707  0.00  0.00    +0.250 C 
ATOM     13  F   UNL     1       4.950   1.082  -1.418  0.00  0.00    -0.206 F 
ATOM     14  F   UNL     1       3.821   2.866  -0.896  0.00  0.00    -0.206 F 
ATOM     15  C   UNL     1       2.601   0.881  -1.179  0.00  0.00    +0.084 C 
ENDROOT
BRANCH   9  16
ATOM     16  C   UNL     1       3.103   0.664   3.695  0.00  0.00    -0.007 A 
ATOM     17  C   UNL     1       4.458   0.685   4.065  0.00  0.00    +0.011 A 
ATOM     18  C   UNL     1       4.891   1.465   5.139  0.00  0.00    +0.046 A 
ATOM     19  C   UNL     1       3.975   2.227   5.852  0.00  0.00    +0.117 A 
ATOM     20  C   UNL     1       2.624   2.204   5.525  0.00  0.00    +0.046 A 
ATOM     21  C   UNL     1       2.191   1.425   4.447  0.00  0.00    +0.011 A 
BRANCH  19  22
ATOM     22  O   UNL     1       4.447   2.999   6.871  0.00  0.00    -0.507 OA
ATOM     23  H   UNL     1       3.717   3.538   7.217  0.00  0.00    +0.292 HD
ENDBRANCH  19  22
ENDBRANCH   9  16
BRANCH   4  24
ATOM     24  O   UNL     1       2.375  -4.312  -2.218  0.00  0.00    -0.507 OA
ATOM     25  H   UNL     1       1.934  -3.787  -2.906  0.00  0.00    +0.292 HD
ENDBRANCH   4  24
TORSDOF 3
