REMARK  Name = 
REMARK  7 active torsions:
REMARK  status: ('A' for Active; 'I' for Inactive)
REMARK    1  A    between atoms: C_2  and  C_17
REMARK    2  A    between atoms: C_7  and  C_9
REMARK    3  A    between atoms: C_9  and  C_10
REMARK    4  A    between atoms: C_10  and  C_11
REMARK    5  A    between atoms: N_19  and  C_20
REMARK    6  A    between atoms: C_20  and  C_21
REMARK    7  A    between atoms: C_24  and  C_27
REMARK                            x       y       z     vdW  Elec       q    Type
REMARK                         _______ _______ _______ _____ _____    ______ ____
ROOT
ATOM      1  C   UNL     1       2.622   0.089  -1.531  0.00  0.00    +0.234 C 
ATOM      2  N   UNL     1       3.483  -0.845  -2.061  0.00  0.00    -0.310 N 
ATOM      3  H   UNL     1       3.765  -1.631  -1.488  0.00  0.00    +0.149 HD
ATOM      4  O   UNL     1       2.209   1.048  -2.182  0.00  0.00    -0.274 OA
ENDROOT
BRANCH   1   5
ATOM      5  C   UNL     1       2.211  -0.124  -0.057  0.00  0.00    +0.162 C 
ATOM      6  N   UNL     1       2.803  -1.309   0.578  0.00  0.00    -0.290 N 
ATOM      7  C   UNL     1       2.271  -2.582   0.626  0.00  0.00    +0.216 C 
ATOM      8  O   UNL     1       2.765  -3.454   1.340  0.00  0.00    -0.276 OA
ATOM      9  C   UNL     1       3.887  -0.941   1.476  0.00  0.00    +0.108 C 
ATOM     10  C   UNL     1       4.088   0.553   1.272  0.00  0.00    +0.021 C 
ATOM     11  C   UNL     1       2.719   1.034   0.805  0.00  0.00    +0.033 C 
BRANCH   7  12
ATOM     12  C   UNL     1       1.079  -2.859  -0.279  0.00  0.00    +0.096 C 
BRANCH  12  13
ATOM     13  C   UNL     1       0.572  -4.296  -0.137  0.00  0.00    +0.013 C 
BRANCH  13  14
ATOM     14  C   UNL     1      -0.627  -4.625  -1.054  0.00  0.00    -0.011 C 
ATOM     15  C   UNL     1      -1.152  -6.047  -0.778  0.00  0.00    +0.003 C 
ATOM     16  C   UNL     1      -0.207  -7.141  -1.276  0.00  0.00    +0.000 C 
ATOM     17  C   UNL     1       0.169  -6.954  -2.744  0.00  0.00    +0.000 C 
ATOM     18  C   UNL     1       0.672  -5.544  -3.044  0.00  0.00    +0.000 C 
ATOM     19  C   UNL     1      -0.315  -4.487  -2.554  0.00  0.00    +0.003 C 
ENDBRANCH  13  14
ENDBRANCH  12  13
ENDBRANCH   7  12
ENDBRANCH   1   5
BRANCH   2  20
ATOM     20  C   UNL     1       3.956  -0.732  -3.420  0.00  0.00    +0.139 C 
BRANCH  20  21
ATOM     21  C   UNL     1       4.894  -1.853  -3.771  0.00  0.00    -0.030 A 
ATOM     22  C   UNL     1       6.265  -1.748  -3.492  0.00  0.00    +0.006 A 
ATOM     23  C   UNL     1       7.131  -2.809  -3.774  0.00  0.00    +0.016 A 
ATOM     24  C   UNL     1       6.633  -3.992  -4.331  0.00  0.00    +0.065 A 
ATOM     25  C   UNL     1       5.271  -4.096  -4.632  0.00  0.00    +0.016 A 
ATOM     26  C   UNL     1       4.407  -3.035  -4.346  0.00  0.00    +0.006 A 
BRANCH  24  27
ATOM     27  C   UNL     1       7.556  -5.134  -4.584  0.00  0.00    +0.308 C 
ATOM     28  N   UNL     1       7.173  -6.372  -4.544  0.00  0.00    -0.099 NA
ATOM     29  H   UNL     1       6.191  -6.452  -4.268  0.00  0.00    +0.363 HD
ATOM     30  N   UNL     1       8.870  -4.917  -4.871  0.00  0.00    -0.247 N 
ATOM     31  H   UNL     1       9.311  -5.773  -5.198  0.00  0.00    +0.288 HD
ATOM     32  H   UNL     1       9.070  -4.125  -5.469  0.00  0.00    +0.288 HD
ENDBRANCH  24  27
ENDBRANCH  20  21
ENDBRANCH   2  20
TORSDOF 7
