REMARK  Name = 
REMARK  2 active torsions:
REMARK  status: ('A' for Active; 'I' for Inactive)
REMARK    1  A    between atoms: N_3  and  C_4
REMARK    2  A    between atoms: N_10  and  C_11
REMARK                            x       y       z     vdW  Elec       q    Type
REMARK                         _______ _______ _______ _____ _____    ______ ____
ROOT
ATOM      1  O   UNL     1       0.971  -0.467  -0.193  0.00  0.00    -0.252 OA
ATOM      2  C   UNL     1       2.161  -0.190  -0.088  0.00  0.00    +0.308 C 
ATOM      3  N   UNL     1       3.062  -0.908   0.683  0.00  0.00    -0.269 N 
ATOM      4  H   UNL     1       3.953  -0.475   0.864  0.00  0.00    +0.156 HD
ATOM      5  N   UNL     1       2.773   0.880  -0.721  0.00  0.00    -0.269 N 
ATOM      6  H   UNL     1       3.774   0.951  -0.633  0.00  0.00    +0.156 HD
ENDROOT
BRANCH   3   7
ATOM      7  C   UNL     1       2.760  -2.056   1.453  0.00  0.00    +0.035 A 
ATOM      8  C   UNL     1       3.691  -2.458   2.417  0.00  0.00    +0.023 A 
ATOM      9  C   UNL     1       3.410  -3.526   3.275  0.00  0.00    +0.002 A 
ATOM     10  C   UNL     1       2.205  -4.217   3.160  0.00  0.00    +0.000 A 
ATOM     11  C   UNL     1       1.297  -3.860   2.169  0.00  0.00    +0.002 A 
ATOM     12  C   UNL     1       1.578  -2.793   1.315  0.00  0.00    +0.023 A 
ENDBRANCH   3   7
BRANCH   5  13
ATOM     13  C   UNL     1       2.156   1.806  -1.595  0.00  0.00    +0.035 A 
ATOM     14  C   UNL     1       2.983   2.727  -2.253  0.00  0.00    +0.023 A 
ATOM     15  C   UNL     1       2.447   3.635  -3.173  0.00  0.00    +0.002 A 
ATOM     16  C   UNL     1       1.081   3.639  -3.438  0.00  0.00    +0.000 A 
ATOM     17  C   UNL     1       0.248   2.748  -2.772  0.00  0.00    +0.002 A 
ATOM     18  C   UNL     1       0.782   1.842  -1.851  0.00  0.00    +0.023 A 
ENDBRANCH   5  13
TORSDOF 2
