REMARK  Name = 
REMARK  5 active torsions:
REMARK  status: ('A' for Active; 'I' for Inactive)
REMARK    1  A    between atoms: C_1  and  C_2
REMARK    2  A    between atoms: C_2  and  C_3
REMARK    3  A    between atoms: C_3  and  C_4
REMARK    4  A    between atoms: C_4  and  C_5
REMARK    5  A    between atoms: C_9  and  O_10
REMARK                            x       y       z     vdW  Elec       q    Type
REMARK                         _______ _______ _______ _____ _____    ______ ____
ROOT
ATOM      1  C   UNL     1       4.995   0.074   5.212  0.00  0.00    +0.002 C 
ATOM      2  C   UNL     1       6.313   0.854   4.943  0.00  0.00    +0.020 C 
ATOM      3  C   UNL     1       6.252   1.567   3.587  0.00  0.00    +0.081 C 
ATOM      4  C   UNL     1       6.115   0.522   2.497  0.00  0.00    +0.170 C 
ATOM      5  O   UNL     1       6.626   0.673   1.388  0.00  0.00    -0.292 OA
ATOM      6  C   UNL     1       5.301  -0.712   2.819  0.00  0.00    +0.064 C 
ATOM      7 BR   UNL     1       6.396  -2.263   2.752  0.00  0.00    -0.046 Br
ATOM      8  C   UNL     1       4.488  -0.559   3.889  0.00  0.00    -0.016 C 
ATOM      9  C   UNL     1       3.150   0.027   3.670  0.00  0.00    -0.017 A 
ATOM     10  C   UNL     1       2.860   0.984   4.642  0.00  0.00    -0.036 A 
ATOM     11  C   UNL     1       1.689   1.728   4.612  0.00  0.00    +0.049 A 
ATOM     12  C   UNL     1       0.770   1.453   3.607  0.00  0.00    +0.117 A 
ATOM     13  C   UNL     1       1.011   0.453   2.666  0.00  0.00    +0.046 A 
ATOM     14  C   UNL     1       2.216  -0.263   2.684  0.00  0.00    +0.012 A 
ATOM     15  C   UNL     1       3.922   1.099   5.678  0.00  0.00    +0.047 C 
ENDROOT
BRANCH  12  16
ATOM     16  O   UNL     1      -0.399   2.151   3.524  0.00  0.00    -0.507 OA
ATOM     17  H   UNL     1      -0.399   2.845   4.205  0.00  0.00    +0.292 HD
ENDBRANCH  12  16
BRANCH   1  18
ATOM     18  C   UNL     1       5.221  -1.023   6.291  0.00  0.00    +0.012 C 
BRANCH  18  19
ATOM     19  C   UNL     1       3.988  -1.895   6.618  0.00  0.00    +0.001 C 
BRANCH  19  21
ATOM     20  C   UNL     1       3.076  -3.730   8.106  0.00  0.00    +0.004 C 
ATOM     21  C   UNL     1       4.298  -2.902   7.730  0.00  0.00    -0.003 C 
ENDBRANCH  19  21
ENDBRANCH  18  19
ENDBRANCH   1  18
TORSDOF 4
