REMARK  Name = 
REMARK  10 active torsions:
REMARK  status: ('A' for Active; 'I' for Inactive)
REMARK    1  A    between atoms: C_2  and  C_3
REMARK    2  A    between atoms: C_2  and  C_10
REMARK    3  A    between atoms: C_2  and  C_18
REMARK    4  A    between atoms: C_3  and  C_4
REMARK    5  A    between atoms: C_10  and  C_11
REMARK    6  A    between atoms: C_11  and  O_12
REMARK    7  A    between atoms: C_11  and  O_13
REMARK    8  A    between atoms: C_11  and  C_14
REMARK    9  A    between atoms: C_14  and  N_15
REMARK   10  A    between atoms: C_18  and  O_19
REMARK                            x       y       z     vdW  Elec       q    Type
REMARK                         _______ _______ _______ _____ _____    ______ ____
ROOT
ATOM      1  C   UNL     1       2.222   0.142  -0.048  0.00  0.00    +0.109 C 
ENDROOT
BRANCH   1   2
ATOM      2  C   UNL     1       2.770   1.150   0.942  0.00  0.00    +0.308 C 
ATOM      3  O   UNL     1       3.856   1.706   0.817  0.00  0.00    -0.251 OA
BRANCH   2   4
ATOM      4  O   UNL     1       1.953   1.382   1.993  0.00  0.00    -0.480 OA
ATOM      5  H   UNL     1       1.076   0.960   1.918  0.00  0.00    +0.295 HD
ENDBRANCH   2   4
ENDBRANCH   1   2
BRANCH   1   6
ATOM      6  C   UNL     1       2.708   0.445  -1.483  0.00  0.00    +0.114 C 
BRANCH   6   7
ATOM      7  C   UNL     1       2.189   1.781  -2.065  0.00  0.00    +0.305 C 
BRANCH   7   8
ATOM      8  O   UNL     1       2.682   2.899  -1.332  0.00  0.00    -0.501 OA
ATOM      9  H   UNL     1       3.546   2.682  -0.927  0.00  0.00    +0.288 HD
ENDBRANCH   7   8
BRANCH   7  10
ATOM     10  O   UNL     1       0.775   1.807  -1.903  0.00  0.00    -0.501 OA
ATOM     11  H   UNL     1       0.384   1.191  -2.555  0.00  0.00    +0.288 HD
ENDBRANCH   7  10
BRANCH   7  12
ATOM     12  C   UNL     1       2.647   2.050  -3.503  0.00  0.00    +0.516 C 
BRANCH  12  13
ATOM     13  N   UNL     1       2.161   1.000  -4.437  0.00  0.00    +0.046 N 
ATOM     14  O   UNL     1       2.918   0.692  -5.366  0.00  0.00    +0.035 OA
ATOM     15  O   UNL     1       1.035   0.524  -4.248  0.00  0.00    -0.582 OA
ENDBRANCH  12  13
ENDBRANCH   7  12
ENDBRANCH   6   7
ENDBRANCH   1   6
BRANCH   1  16
ATOM     16  C   UNL     1       2.559  -1.294   0.408  0.00  0.00    +0.050 C 
BRANCH  16  17
ATOM     17  C   UNL     1       4.028  -1.627   0.528  0.00  0.00    -0.047 A 
ATOM     18  C   UNL     1       4.735  -2.173  -0.552  0.00  0.00    +0.003 A 
ATOM     19  C   UNL     1       6.098  -2.455  -0.435  0.00  0.00    +0.000 A 
ATOM     20  C   UNL     1       6.766  -2.204   0.762  0.00  0.00    +0.000 A 
ATOM     21  C   UNL     1       6.071  -1.670   1.844  0.00  0.00    +0.000 A 
ATOM     22  C   UNL     1       4.710  -1.386   1.729  0.00  0.00    +0.003 A 
ENDBRANCH  16  17
ENDBRANCH   1  16
TORSDOF 10
