REMARK  Name = 
REMARK  6 active torsions:
REMARK  status: ('A' for Active; 'I' for Inactive)
REMARK    1  A    between atoms: C_1  and  C_2
REMARK    2  A    between atoms: N_8  and  C_9
REMARK    3  A    between atoms: C_9  and  C_10
REMARK    4  A    between atoms: C_10  and  C_11
REMARK    5  A    between atoms: C_11  and  N_12
REMARK    6  A    between atoms: C_22  and  C_23
REMARK                            x       y       z     vdW  Elec       q    Type
REMARK                         _______ _______ _______ _____ _____    ______ ____
ROOT
ATOM      1  C   UNL     1       1.030   0.330  -0.017  0.00  0.00    +0.044 C 
ATOM      2  C   UNL     1       2.532   0.278  -0.043  0.00  0.00    -0.050 A 
ATOM      3  C   UNL     1       3.143  -0.976  -0.014  0.00  0.00    +0.005 A 
ATOM      4  C   UNL     1       4.530  -1.098   0.023  0.00  0.00    +0.027 A 
ATOM      5  C   UNL     1       5.315   0.069   0.040  0.00  0.00    +0.050 A 
ATOM      6  N   UNL     1       6.702   0.212   0.115  0.00  0.00    -0.340 N 
ATOM      7  C   UNL     1       7.052   1.547   0.141  0.00  0.00    +0.051 A 
ATOM      8  C   UNL     1       8.284   2.207   0.257  0.00  0.00    +0.030 A 
ATOM      9  C   UNL     1       8.315   3.606   0.299  0.00  0.00    -0.035 A 
ATOM     10  C   UNL     1       9.631   4.318   0.374  0.00  0.00    +0.044 C 
ATOM     11  C   UNL     1       7.092   4.259   0.120  0.00  0.00    +0.055 A 
ATOM     12  C   UNL     1       6.853   5.681   0.090  0.00  0.00    +0.260 A 
ATOM     13  N   UNL     1       5.576   5.774  -0.382  0.00  0.00    -0.289 N 
ATOM     14  H   UNL     1       5.154   6.665  -0.574  0.00  0.00    +0.172 HD
ATOM     15  C   UNL     1       4.878   4.595  -0.486  0.00  0.00    +0.260 A 
ATOM     16  O   UNL     1       3.724   4.546  -0.876  0.00  0.00    -0.267 OA
ATOM     17  O   UNL     1       7.522   6.654   0.419  0.00  0.00    -0.267 OA
ATOM     18  C   UNL     1       5.849   3.614  -0.120  0.00  0.00    +0.062 A 
ATOM     19  C   UNL     1       5.855   2.198  -0.010  0.00  0.00    +0.021 A 
ATOM     20  C   UNL     1       4.738   1.355  -0.032  0.00  0.00    +0.009 A 
ATOM     21  C   UNL     1       3.325   1.447  -0.077  0.00  0.00    +0.014 A 
ENDROOT
BRANCH   6  22
ATOM     22  C   UNL     1       7.646  -0.893   0.083  0.00  0.00    +0.123 C 
BRANCH  22  23
ATOM     23  C   UNL     1       8.580  -1.029   1.285  0.00  0.00    +0.036 C 
BRANCH  23  24
ATOM     24  C   UNL     1       7.864  -1.159   2.625  0.00  0.00    +0.079 C 
BRANCH  24  25
ATOM     25  N   UNL     1       8.869  -1.251   3.680  0.00  0.00    -0.330 NA
ATOM     26  H   UNL     1       8.412  -1.381   4.582  0.00  0.00    +0.118 HD
ATOM     27  H   UNL     1       9.462  -2.066   3.533  0.00  0.00    +0.118 HD
ENDBRANCH  24  25
ENDBRANCH  23  24
ENDBRANCH  22  23
ENDBRANCH   6  22
TORSDOF 4
