REMARK  Name = 
REMARK  2 active torsions:
REMARK  status: ('A' for Active; 'I' for Inactive)
REMARK    1  A    between atoms: C_1  and  C_2
REMARK    2  A    between atoms: N_4  and  C_5
REMARK                            x       y       z     vdW  Elec       q    Type
REMARK                         _______ _______ _______ _____ _____    ______ ____
ROOT
ATOM      1  C   UNL     1       4.733  -1.246   0.068  0.00  0.00    +0.037 A 
ATOM      2  C   UNL     1       5.417  -0.631   1.125  0.00  0.00    +0.072 A 
ATOM      3  C   UNL     1       6.817  -0.662   1.170  0.00  0.00    +0.164 A 
ATOM      4  C   UNL     1       7.541  -1.215   0.115  0.00  0.00    +0.162 A 
ATOM      5  O   UNL     1       8.907  -1.225   0.171  0.00  0.00    -0.486 OA
ATOM      6  C   UNL     1       9.513  -0.588  -0.966  0.00  0.00    +0.257 C 
ATOM      7  C   UNL     1      10.402   0.550  -0.476  0.00  0.00    +0.201 C 
ATOM      8  O   UNL     1      11.613   0.021   0.073  0.00  0.00    -0.373 OA
ATOM      9  C   UNL     1      12.372   1.049   0.718  0.00  0.00    +0.201 C 
ATOM     10  C   UNL     1      13.695   0.483   1.226  0.00  0.00    +0.257 C 
ATOM     11  O   UNL     1      13.474  -0.248   2.444  0.00  0.00    -0.486 OA
ATOM     12  C   UNL     1      14.175   0.286   3.493  0.00  0.00    +0.162 A 
ATOM     13  C   UNL     1      15.571   0.232   3.510  0.00  0.00    +0.049 A 
ATOM     14  C   UNL     1      16.274   0.763   4.591  0.00  0.00    +0.004 A 
ATOM     15  C   UNL     1      15.582   1.339   5.658  0.00  0.00    +0.004 A 
ATOM     16  C   UNL     1      14.186   1.370   5.653  0.00  0.00    +0.049 A 
ATOM     17  C   UNL     1      13.479   0.816   4.583  0.00  0.00    +0.162 A 
ATOM     18  O   UNL     1      12.112   0.859   4.533  0.00  0.00    -0.486 OA
ATOM     19  C   UNL     1      11.482   0.226   5.658  0.00  0.00    +0.257 C 
ATOM     20  C   UNL     1      10.577  -0.901   5.162  0.00  0.00    +0.201 C 
ATOM     21  O   UNL     1       9.379  -0.361   4.593  0.00  0.00    -0.373 OA
ATOM     22  C   UNL     1       8.602  -1.388   3.963  0.00  0.00    +0.201 C 
ATOM     23  C   UNL     1       7.283  -0.813   3.445  0.00  0.00    +0.257 C 
ATOM     24  C   UNL     1       6.867  -1.819  -0.944  0.00  0.00    +0.051 A 
ATOM     25  O   UNL     1       7.492  -0.091   2.219  0.00  0.00    -0.486 OA
ATOM     26  C   UNL     1       5.471  -1.827  -0.966  0.00  0.00    +0.027 A 
ENDROOT
BRANCH   1  29
ATOM     27  C   UNL     1       1.032  -1.706  -0.508  0.00  0.00    +0.109 C 
ATOM     28  C   UNL     1       2.490  -2.015  -0.704  0.00  0.00    +0.214 C 
ATOM     29  N   UNL     1       3.321  -1.245   0.095  0.00  0.00    -0.286 N 
ATOM     30  H   UNL     1       2.885  -0.705   0.831  0.00  0.00    +0.155 HD
ATOM     31  O   UNL     1       2.839  -2.868  -1.512  0.00  0.00    -0.276 OA
ENDBRANCH   1  29
TORSDOF 1
