REMARK  Name = 
REMARK  6 active torsions:
REMARK  status: ('A' for Active; 'I' for Inactive)
REMARK    1  A    between atoms: C_2  and  O_3
REMARK    2  A    between atoms: C_2  and  C_4
REMARK    3  A    between atoms: C_2  and  C_6
REMARK    4  A    between atoms: C_4  and  O_5
REMARK    5  A    between atoms: C_9  and  N_10
REMARK    6  A    between atoms: C_11  and  C_13
REMARK                            x       y       z     vdW  Elec       q    Type
REMARK                         _______ _______ _______ _____ _____    ______ ____
ROOT
ATOM      1  N   UNL     1       2.841   2.884  -5.005  0.00  0.00    -0.280 N 
ATOM      2  H   UNL     1       2.604   3.862  -4.940  0.00  0.00    +0.155 HD
ATOM      3  C   UNL     1       3.263   2.427  -6.243  0.00  0.00    +0.265 C 
ATOM      4  O   UNL     1       3.690   1.304  -6.483  0.00  0.00    -0.268 OA
ENDROOT
BRANCH   3   5
ATOM      5  C   UNL     1       3.268   3.428  -7.287  0.00  0.00    +0.103 A 
ATOM      6  N   UNL     1       4.057   3.256  -8.405  0.00  0.00    -0.351 N 
ATOM      7  H   UNL     1       4.629   2.435  -8.560  0.00  0.00    +0.166 HD
ATOM      8  C   UNL     1       4.039   4.375  -9.199  0.00  0.00    +0.047 A 
ATOM      9  C   UNL     1       3.106   5.247  -8.642  0.00  0.00    +0.002 A 
ATOM     10  C   UNL     1       2.868   6.479  -9.280  0.00  0.00    +0.030 A 
ATOM     11  C   UNL     1       3.608   6.800 -10.422  0.00  0.00    +0.042 A 
ATOM     12  C   UNL     1       4.549   5.917 -10.949  0.00  0.00    +0.022 A 
ATOM     13 CL   UNL     1       3.369   8.330 -11.178  0.00  0.00    -0.084 Cl
ATOM     14  C   UNL     1       4.772   4.673 -10.353  0.00  0.00    +0.027 A 
ATOM     15  C   UNL     1       2.606   4.631  -7.457  0.00  0.00    +0.041 A 
ENDBRANCH   3   5
BRANCH   1  19
ATOM     16  C   UNL     1       3.095   0.862  -1.276  0.00  0.00    -0.017 A 
ATOM     17  C   UNL     1       2.697   2.205  -1.359  0.00  0.00    +0.008 A 
ATOM     18  C   UNL     1       2.592   2.850  -2.602  0.00  0.00    +0.023 A 
ATOM     19  C   UNL     1       2.883   2.164  -3.787  0.00  0.00    +0.034 A 
ATOM     20  C   UNL     1       3.231   0.816  -3.703  0.00  0.00    +0.023 A 
ATOM     21  C   UNL     1       3.342   0.174  -2.466  0.00  0.00    +0.008 A 
BRANCH  16  22
ATOM     22  C   UNL     1       3.303   0.197   0.074  0.00  0.00    +0.170 C 
BRANCH  22  23
ATOM     23  O   UNL     1       2.457  -0.946   0.193  0.00  0.00    -0.385 OA
ATOM     24  H   UNL     1       2.615  -1.522  -0.573  0.00  0.00    +0.210 HD
ENDBRANCH  22  23
BRANCH  22  25
ATOM     25  C   UNL     1       4.774  -0.216   0.297  0.00  0.00    +0.192 C 
BRANCH  25  26
ATOM     26  O   UNL     1       5.657   0.902   0.317  0.00  0.00    -0.392 OA
ATOM     27  H   UNL     1       5.580   1.349  -0.546  0.00  0.00    +0.210 HD
ENDBRANCH  25  26
ENDBRANCH  22  25
ENDBRANCH  16  22
ENDBRANCH   1  19
TORSDOF 6
