REMARK  Name = 
REMARK  5 active torsions:
REMARK  status: ('A' for Active; 'I' for Inactive)
REMARK    1  A    between atoms: C_1  and  O_2
REMARK    2  A    between atoms: O_2  and  C_3
REMARK    3  A    between atoms: C_4  and  C_9
REMARK    4  A    between atoms: C_12  and  C_14
REMARK    5  A    between atoms: C_14  and  O_15
REMARK                            x       y       z     vdW  Elec       q    Type
REMARK                         _______ _______ _______ _____ _____    ______ ____
ROOT
ATOM      1  C   UNL     1       4.449   0.266  -1.534  0.00  0.00    +0.139 A 
ATOM      2  O   UNL     1       3.517   1.264  -1.600  0.00  0.00    -0.448 OA
ATOM      3  C   UNL     1       4.160   2.415  -1.970  0.00  0.00    +0.212 A 
ATOM      4  C   UNL     1       5.497   2.149  -2.180  0.00  0.00    +0.057 A 
ATOM      5  C   UNL     1       5.680   0.770  -1.913  0.00  0.00    +0.051 A 
ENDROOT
BRANCH   1  11
ATOM      6  C   UNL     1       2.885  -1.250  -0.246  0.00  0.00    +0.131 A 
ATOM      7  C   UNL     1       2.511  -2.550   0.132  0.00  0.00    +0.046 A 
ATOM      8  C   UNL     1       3.181  -3.661  -0.378  0.00  0.00    +0.004 A 
ATOM      9  C   UNL     1       4.242  -3.487  -1.257  0.00  0.00    +0.001 A 
ATOM     10  C   UNL     1       4.639  -2.197  -1.621  0.00  0.00    +0.015 A 
ATOM     11  C   UNL     1       3.973  -1.059  -1.125  0.00  0.00    +0.059 A 
BRANCH   6  13
ATOM     12  C   UNL     1       0.892  -0.283   0.594  0.00  0.00    +0.277 C 
ATOM     13  O   UNL     1       2.270  -0.135   0.271  0.00  0.00    -0.494 OA
ENDBRANCH   6  13
ENDBRANCH   1  11
BRANCH   3  14
ATOM     14  C   UNL     1       3.392   3.631  -2.069  0.00  0.00    +0.372 C 
ATOM     15  O   UNL     1       3.818   4.731  -2.388  0.00  0.00    -0.242 OA
BRANCH  14  16
ATOM     16  O   UNL     1       2.087   3.409  -1.754  0.00  0.00    -0.475 OA
ATOM     17  H   UNL     1       1.972   2.463  -1.513  0.00  0.00    +0.296 HD
ENDBRANCH  14  16
ENDBRANCH   3  14
TORSDOF 4
