REMARK  Name = 
REMARK  7 active torsions:
REMARK  status: ('A' for Active; 'I' for Inactive)
REMARK    1  A    between atoms: C_1  and  C_2
REMARK    2  A    between atoms: C_2  and  N_3
REMARK    3  A    between atoms: N_7  and  C_8
REMARK    4  A    between atoms: C_8  and  C_9
REMARK    5  A    between atoms: C_8  and  C_10
REMARK    6  A    between atoms: C_8  and  C_12
REMARK    7  A    between atoms: C_10  and  C_11
REMARK                            x       y       z     vdW  Elec       q    Type
REMARK                         _______ _______ _______ _____ _____    ______ ____
ROOT
ATOM      1  N   UNL     1       7.858  -4.351   0.328  0.00  0.00    -0.314 N 
ATOM      2  H   UNL     1       8.007  -5.340   0.498  0.00  0.00    +0.149 HD
ATOM      3  C   UNL     1       8.341  -3.653   1.426  0.00  0.00    +0.221 A 
ATOM      4  N   UNL     1       8.452  -4.352   2.537  0.00  0.00    -0.184 NA
ATOM      5  C   UNL     1       8.826  -3.625   3.576  0.00  0.00    +0.229 A 
ATOM      6 CL   UNL     1       9.079  -4.477   5.036  0.00  0.00    -0.041 Cl
ATOM      7  N   UNL     1       9.065  -2.323   3.618  0.00  0.00    -0.184 NA
ATOM      8  C   UNL     1       8.991  -1.731   2.441  0.00  0.00    +0.222 A 
ATOM      9  N   UNL     1       9.277  -0.384   2.315  0.00  0.00    -0.296 N 
ATOM     10  H   UNL     1       9.899  -0.248   1.530  0.00  0.00    +0.150 HD
ATOM     11  N   UNL     1       8.663  -2.362   1.325  0.00  0.00    -0.181 NA
ENDROOT
BRANCH   1  13
ATOM     12  C   UNL     1       7.746  -4.756  -2.069  0.00  0.00    +0.024 C 
ATOM     13  C   UNL     1       8.257  -3.841  -0.968  0.00  0.00    +0.101 C 
ENDBRANCH   1  13
BRANCH   9  14
ATOM     14  C   UNL     1       9.452   0.491   3.484  0.00  0.00    +0.118 C 
ATOM     15  C   UNL     1       8.089   0.648   4.191  0.00  0.00    +0.048 C 
BRANCH  14  16
ATOM     16  C   UNL     1      10.477   0.001   4.468  0.00  0.00    +0.088 C 
ATOM     17  N   UNL     1      11.304  -0.320   5.219  0.00  0.00    -0.194 NA
ENDBRANCH  14  16
BRANCH  14  18
ATOM     18  C   UNL     1       9.951   1.890   3.003  0.00  0.00    +0.037 C 
ATOM     19  C   UNL     1       9.145   2.570   1.904  0.00  0.00    +0.007 C 
ENDBRANCH  14  18
ENDBRANCH   9  14
TORSDOF 4
