REMARK  Name = 
REMARK  10 active torsions:
REMARK  status: ('A' for Active; 'I' for Inactive)
REMARK    1  A    between atoms: CA_2  and  N_3
REMARK    2  A    between atoms: CA_2  and  C_4
REMARK    3  A    between atoms: CA_2  and  C_23
REMARK    4  A    between atoms: C_4  and  C_5
REMARK    5  A    between atoms: C_5  and  C_6
REMARK    6  A    between atoms: N_8  and  C_9
REMARK    7  A    between atoms: C_12  and  O_13
REMARK    8  A    between atoms: O_13  and  C_14
REMARK    9  A    between atoms: C_14  and  C_15
REMARK   10  A    between atoms: C_23  and  O_24
REMARK                            x       y       z     vdW  Elec       q    Type
REMARK                         _______ _______ _______ _____ _____    ______ ____
ROOT
ATOM      1  C   UNL     1       0.956   4.304  -2.187  0.00  0.00    +0.217 C 
ATOM      2  N   UNL     1       2.155   4.723  -1.626  0.00  0.00    -0.285 N 
ATOM      3  H   UNL     1       2.831   4.011  -1.381  0.00  0.00    +0.155 HD
ATOM      4  O   UNL     1       0.191   4.992  -2.857  0.00  0.00    -0.275 OA
ENDROOT
BRANCH   2   5
ATOM      5  C   UNL     1       2.575   6.065  -1.532  0.00  0.00    +0.034 A 
ATOM      6  C   UNL     1       3.916   6.342  -1.249  0.00  0.00    +0.027 A 
ATOM      7  C   UNL     1       4.356   7.669  -1.151  0.00  0.00    +0.047 A 
ATOM      8  C   UNL     1       3.455   8.723  -1.303  0.00  0.00    +0.121 A 
ATOM      9  C   UNL     1       2.122   8.445  -1.593  0.00  0.00    +0.047 A 
ATOM     10  C   UNL     1       1.684   7.128  -1.684  0.00  0.00    +0.027 A 
BRANCH   8  11
ATOM     11  O   UNL     1       3.962   9.984  -1.143  0.00  0.00    -0.487 OA
BRANCH  11  12
ATOM     12  C   UNL     1       2.984  10.983  -0.839  0.00  0.00    +0.264 C 
BRANCH  12  13
ATOM     13  C   UNL     1       3.668  12.173  -0.224  0.00  0.00    -0.010 A 
ATOM     14  C   UNL     1       3.441  12.500   1.120  0.00  0.00    +0.007 A 
ATOM     15  C   UNL     1       4.071  13.601   1.694  0.00  0.00    +0.000 A 
ATOM     16  C   UNL     1       4.936  14.382   0.931  0.00  0.00    +0.000 A 
ATOM     17  C   UNL     1       5.167  14.067  -0.408  0.00  0.00    +0.000 A 
ATOM     18  C   UNL     1       4.536  12.965  -0.984  0.00  0.00    +0.007 A 
ENDBRANCH  12  13
ENDBRANCH  11  12
ENDBRANCH   8  11
ENDBRANCH   2   5
BRANCH   1  19
ATOM     19  C   UNL     1       0.642   2.846  -1.938  0.00  0.00    +0.098 C 
BRANCH  19  20
ATOM     20  C   UNL     1       0.547   2.461  -0.461  0.00  0.00    +0.039 C 
BRANCH  20  21
ATOM     21  CA  UNL     1      -0.575   3.156   0.331  0.00  0.00    +0.161 C 
BRANCH  21  22
ATOM     22  N   UNL     1      -0.410   4.608   0.379  0.00  0.00    -0.318 NA
ATOM     23  H1  UNL     1      -1.207   5.165   0.669  0.00  0.00    +0.119 HD
ATOM     24  H2  UNL     1       0.519   4.995   0.509  0.00  0.00    +0.119 HD
ENDBRANCH  21  22
BRANCH  21  25
ATOM     25  C   UNL     1      -0.604   2.570   1.754  0.00  0.00    +0.322 C 
ATOM     26  OXT UNL     1      -0.774   1.389   2.010  0.00  0.00    -0.249 OA
BRANCH  25  27
ATOM     27  O   UNL     1      -0.387   3.502   2.715  0.00  0.00    -0.480 OA
ATOM     28  H   UNL     1      -0.277   4.368   2.274  0.00  0.00    +0.295 HD
ENDBRANCH  25  27
ENDBRANCH  21  25
ENDBRANCH  20  21
ENDBRANCH  19  20
ENDBRANCH   1  19
TORSDOF 10
