REMARK  Name = 
REMARK  2 active torsions:
REMARK  status: ('A' for Active; 'I' for Inactive)
REMARK    1  A    between atoms: C_8  and  C_11
REMARK    2  A    between atoms: C_19  and  C_20
REMARK                            x       y       z     vdW  Elec       q    Type
REMARK                         _______ _______ _______ _____ _____    ______ ____
ROOT
ATOM      1  C   UNL     1       3.891  -4.669   0.061  0.00  0.00    +0.055 A 
ATOM      2  C   UNL     1       2.636  -5.331  -0.166  0.00  0.00    +0.103 A 
ATOM      3  N   UNL     1       2.806  -6.662  -0.242  0.00  0.00    -0.166 NA
ATOM      4  N   UNL     1       4.123  -6.886  -0.069  0.00  0.00    -0.239 N 
ATOM      5  C   UNL     1       4.753  -8.135  -0.050  0.00  0.00    +0.113 A 
ATOM      6  C   UNL     1       6.082  -8.226   0.109  0.00  0.00    +0.020 A 
ATOM      7  C   UNL     1       6.845  -7.006   0.278  0.00  0.00    +0.004 A 
ATOM      8  C   UNL     1       6.243  -5.804   0.303  0.00  0.00    +0.028 A 
ATOM      9  C   UNL     1       4.828  -5.696   0.104  0.00  0.00    +0.077 A 
ENDROOT
BRANCH   1  16
ATOM     10  N   UNL     1       8.138  -1.033   0.380  0.00  0.00    -0.341 N 
ATOM     11  H   UNL     1       8.379  -2.016   0.329  0.00  0.00    +0.144 HD
ATOM     12  H   UNL     1       8.878  -0.487   0.812  0.00  0.00    +0.144 HD
ATOM     13  C   UNL     1       6.895  -0.689   0.756  0.00  0.00    +0.147 A 
ATOM     14  C   UNL     1       5.758  -1.509   0.581  0.00  0.00    +0.064 A 
ATOM     15  C   UNL     1       5.436  -2.724  -0.019  0.00  0.00    +0.045 A 
ATOM     16  C   UNL     1       4.206  -3.269   0.339  0.00  0.00    +0.098 A 
ATOM     17  N   UNL     1       3.292  -2.581   1.076  0.00  0.00    -0.147 NA
ATOM     18  N   UNL     1       3.528  -1.339   1.516  0.00  0.00    -0.129 NA
ATOM     19  C   UNL     1       4.766  -0.869   1.295  0.00  0.00    +0.180 A 
ATOM     20  N   UNL     1       5.306   0.301   1.722  0.00  0.00    -0.257 N 
ATOM     21  H   UNL     1       4.847   1.034   2.251  0.00  0.00    +0.191 HD
ATOM     22  N   UNL     1       6.619   0.429   1.429  0.00  0.00    -0.157 NA
ENDBRANCH   1  16
BRANCH   2  23
ATOM     23  C   UNL     1       1.279  -4.777  -0.312  0.00  0.00    +0.003 A 
ATOM     24  C   UNL     1       1.052  -3.510  -0.866  0.00  0.00    +0.010 A 
ATOM     25  C   UNL     1      -0.243  -2.989  -0.960  0.00  0.00    +0.001 A 
ATOM     26  C   UNL     1      -1.334  -3.741  -0.530  0.00  0.00    +0.000 A 
ATOM     27  C   UNL     1      -1.134  -5.021  -0.021  0.00  0.00    +0.001 A 
ATOM     28  C   UNL     1       0.163  -5.534   0.086  0.00  0.00    +0.010 A 
ENDBRANCH   2  23
TORSDOF 2
