REMARK  Name = 
REMARK  11 active torsions:
REMARK  status: ('A' for Active; 'I' for Inactive)
REMARK    1  A    between atoms: O_1  and  C_2
REMARK    2  A    between atoms: C_2  and  C_3
REMARK    3  A    between atoms: C_3  and  C_4
REMARK    4  A    between atoms: C_4  and  C_5
REMARK    5  A    between atoms: C_5  and  C_6
REMARK    6  A    between atoms: C_6  and  C_7
REMARK    7  A    between atoms: C_7  and  C_8
REMARK    8  A    between atoms: C_8  and  C_9
REMARK    9  A    between atoms: C_9  and  N_10
REMARK   10  A    between atoms: N_10  and  C_11
REMARK   11  A    between atoms: C_11  and  O_12
REMARK                            x       y       z     vdW  Elec       q    Type
REMARK                         _______ _______ _______ _____ _____    ______ ____
ROOT
ATOM      1  C   UNL     1       6.954  -2.774   3.378  0.00  0.00    +0.001 C 
ENDROOT
BRANCH   1   2
ATOM      2  C   UNL     1       6.427  -1.852   2.278  0.00  0.00    +0.000 C 
BRANCH   2   3
ATOM      3  C   UNL     1       4.897  -1.836   2.258  0.00  0.00    +0.000 C 
BRANCH   3   4
ATOM      4  C   UNL     1       4.363  -0.916   1.160  0.00  0.00    +0.002 C 
BRANCH   4   5
ATOM      5  C   UNL     1       2.837  -0.898   1.142  0.00  0.00    +0.028 C 
BRANCH   5   6
ATOM      6  C   UNL     1       2.299   0.018   0.051  0.00  0.00    +0.156 C 
BRANCH   6   7
ATOM      7  O   UNL     1       0.879  -0.009   0.088  0.00  0.00    -0.395 OA
ATOM      8  H   UNL     1       0.565   0.582  -0.618  0.00  0.00    +0.209 HD
ENDBRANCH   6   7
ENDBRANCH   5   6
ENDBRANCH   4   5
ENDBRANCH   3   4
ENDBRANCH   2   3
ENDBRANCH   1   2
BRANCH   1   9
ATOM      9  C   UNL     1       8.484  -2.799   3.408  0.00  0.00    +0.015 C 
BRANCH   9  10
ATOM     10  C   UNL     1       8.990  -3.731   4.511  0.00  0.00    +0.083 C 
BRANCH  10  11
ATOM     11  N   UNL     1      10.453  -3.750   4.520  0.00  0.00    -0.294 NA
ATOM     12  H   UNL     1      10.800  -2.810   4.710  0.00  0.00    +0.124 HD
BRANCH  11  13
ATOM     13  C   UNL     1      10.942  -4.612   5.570  0.00  0.00    +0.240 C 
BRANCH  13  14
ATOM     14  O   UNL     1      12.345  -4.574   5.510  0.00  0.00    -0.380 OA
ATOM     15  H   UNL     1      12.529  -4.613   4.556  0.00  0.00    +0.211 HD
ENDBRANCH  13  14
ENDBRANCH  11  13
ENDBRANCH  10  11
ENDBRANCH   9  10
ENDBRANCH   1   9
TORSDOF 11
