REMARK  Name = 
REMARK  6 active torsions:
REMARK  status: ('A' for Active; 'I' for Inactive)
REMARK    1  A    between atoms: C_1  and  C_2
REMARK    2  A    between atoms: C_2  and  C_3
REMARK    3  A    between atoms: C_5  and  C_6
REMARK    4  A    between atoms: C_6  and  C_7
REMARK    5  A    between atoms: C_7  and  N_8
REMARK    6  A    between atoms: C_11  and  O_12
REMARK                            x       y       z     vdW  Elec       q    Type
REMARK                         _______ _______ _______ _____ _____    ______ ____
ROOT
ATOM      1  C   UNL     1       2.971  -1.378  -0.044  0.00  0.00    -0.006 A 
ATOM      2  C   UNL     1       2.327  -2.497   0.495  0.00  0.00    +0.120 A 
ATOM      3  C   UNL     1       2.801  -3.786   0.257  0.00  0.00    +0.046 A 
ATOM      4  C   UNL     1       3.932  -3.972  -0.538  0.00  0.00    +0.007 A 
ATOM      5  C   UNL     1       4.596  -2.873  -1.095  0.00  0.00    -0.046 A 
ATOM      6  C   UNL     1       4.122  -1.579  -0.823  0.00  0.00    +0.011 A 
ENDROOT
BRANCH   1   8
ATOM      7  C   UNL     1       3.037   0.678   1.417  0.00  0.00    +0.009 C 
ATOM      8  C   UNL     1       2.446   0.020   0.182  0.00  0.00    +0.035 C 
ENDBRANCH   1   8
BRANCH   2   9
ATOM      9  O   UNL     1       1.208  -2.313   1.258  0.00  0.00    -0.506 OA
ATOM     10  H   UNL     1       0.846  -3.182   1.496  0.00  0.00    +0.292 HD
ENDBRANCH   2   9
BRANCH   5  11
ATOM     11  C   UNL     1       5.790  -3.080  -1.997  0.00  0.00    +0.050 C 
BRANCH  11  12
ATOM     12  C   UNL     1       7.114  -3.141  -1.229  0.00  0.00    +0.082 C 
BRANCH  12  13
ATOM     13  N   UNL     1       8.230  -3.384  -2.143  0.00  0.00    -0.330 NA
ATOM     14  H   UNL     1       9.098  -3.440  -1.610  0.00  0.00    +0.118 HD
ATOM     15  H   UNL     1       8.116  -4.293  -2.591  0.00  0.00    +0.118 HD
ENDBRANCH  12  13
ENDBRANCH  11  12
ENDBRANCH   5  11
TORSDOF 5
