REMARK  Name = 
REMARK  4 active torsions:
REMARK  status: ('A' for Active; 'I' for Inactive)
REMARK    1  A    between atoms: C_6  and  N_7
REMARK    2  A    between atoms: C_10  and  O_11
REMARK    3  A    between atoms: O_11  and  C_12
REMARK    4  A    between atoms: C_12  and  C_13
REMARK                            x       y       z     vdW  Elec       q    Type
REMARK                         _______ _______ _______ _____ _____    ______ ____
ROOT
ATOM      1  N   UNL     1       5.207  -2.605  -0.398  0.00  0.00    -0.283 N 
ATOM      2  H   UNL     1       4.522  -1.878  -0.261  0.00  0.00    +0.155 HD
ATOM      3  C   UNL     1       4.579  -3.854  -0.387  0.00  0.00    +0.225 A 
ATOM      4  N   UNL     1       5.311  -4.968  -0.465  0.00  0.00    -0.193 NA
ATOM      5  C   UNL     1       4.622  -6.111  -0.410  0.00  0.00    +0.186 A 
ATOM      6  C   UNL     1       3.254  -6.155  -0.290  0.00  0.00    +0.147 A 
ATOM      7  N   UNL     1       2.946  -7.485  -0.263  0.00  0.00    -0.339 N 
ATOM      8  H   UNL     1       2.018  -7.881  -0.185  0.00  0.00    +0.167 HD
ATOM      9  C   UNL     1       4.122  -8.177  -0.371  0.00  0.00    +0.199 A 
ATOM     10  C   UNL     1       2.545  -4.987  -0.242  0.00  0.00    +0.246 A 
ATOM     11  N   UNL     1       5.155  -7.369  -0.462  0.00  0.00    -0.216 NA
ATOM     12  N   UNL     1       3.229  -3.823  -0.285  0.00  0.00    -0.177 NA
ENDROOT
BRANCH   1  16
ATOM     13 CL   UNL     1      10.222  -3.864  -0.589  0.00  0.00    -0.083 Cl
ATOM     14  C   UNL     1       8.950  -2.707  -0.503  0.00  0.00    +0.043 A 
ATOM     15  C   UNL     1       7.622  -3.138  -0.494  0.00  0.00    +0.043 A 
ATOM     16  C   UNL     1       6.560  -2.226  -0.408  0.00  0.00    +0.035 A 
ATOM     17  C   UNL     1       6.887  -0.860  -0.359  0.00  0.00    +0.023 A 
ATOM     18  C   UNL     1       8.219  -0.426  -0.374  0.00  0.00    +0.003 A 
ATOM     19  C   UNL     1       9.254  -1.353  -0.441  0.00  0.00    +0.020 A 
ENDBRANCH   1  16
BRANCH  10  20
ATOM     20  O   UNL     1       1.175  -5.011  -0.099  0.00  0.00    -0.475 OA
BRANCH  20  21
ATOM     21  C   UNL     1       0.556  -3.900  -0.752  0.00  0.00    +0.234 C 
BRANCH  21  22
ATOM     22  C   UNL     1      -0.976  -4.061  -0.679  0.00  0.00    +0.027 C 
ATOM     23  C   UNL     1      -1.478  -5.367  -1.320  0.00  0.00    +0.007 C 
ATOM     24  C   UNL     1      -1.331  -5.373  -2.841  0.00  0.00    +0.000 C 
ATOM     25  C   UNL     1      -1.968  -4.144  -3.487  0.00  0.00    +0.000 C 
ATOM     26  C   UNL     1      -1.517  -2.835  -2.842  0.00  0.00    +0.000 C 
ATOM     27  C   UNL     1      -1.688  -2.863  -1.324  0.00  0.00    +0.007 C 
ENDBRANCH  21  22
ENDBRANCH  20  21
ENDBRANCH  10  20
TORSDOF 4
