REMARK  Name = 
REMARK  7 active torsions:
REMARK  status: ('A' for Active; 'I' for Inactive)
REMARK    1  A    between atoms: C_1  and  C_2
REMARK    2  A    between atoms: C_5  and  C_7
REMARK    3  A    between atoms: C_10  and  C_11
REMARK    4  A    between atoms: C_12  and  C_14
REMARK    5  A    between atoms: C_17  and  C_20
REMARK    6  A    between atoms: N_22  and  C_23
REMARK    7  A    between atoms: C_23  and  C_24
REMARK                            x       y       z     vdW  Elec       q    Type
REMARK                         _______ _______ _______ _____ _____    ______ ____
ROOT
ATOM      1  C   UNL     1       5.686  -5.733  -0.249  0.00  0.00    -0.018 A 
ATOM      2  C   UNL     1       4.542  -6.043  -1.016  0.00  0.00    +0.009 A 
ATOM      3  C   UNL     1       4.094  -7.360  -1.197  0.00  0.00    +0.013 A 
ATOM      4  C   UNL     1       4.807  -8.420  -0.641  0.00  0.00    +0.037 A 
ATOM      5  C   UNL     1       5.898  -8.142   0.183  0.00  0.00    +0.013 A 
ATOM      6  C   UNL     1       6.304  -6.816   0.398  0.00  0.00    +0.009 A 
ENDROOT
BRANCH   1   9
ATOM      7  C   UNL     1       5.673  -1.905  -0.344  0.00  0.00    +0.039 A 
ATOM      8  C   UNL     1       5.280  -3.252  -0.245  0.00  0.00    +0.022 A 
ATOM      9  C   UNL     1       6.205  -4.327  -0.181  0.00  0.00    -0.014 A 
ATOM     10  C   UNL     1       7.583  -3.982  -0.164  0.00  0.00    -0.043 A 
ATOM     11  C   UNL     1       8.709  -4.986  -0.169  0.00  0.00    +0.044 C 
ATOM     12  C   UNL     1       7.969  -2.626  -0.169  0.00  0.00    +0.005 A 
ATOM     13  C   UNL     1       7.032  -1.604  -0.276  0.00  0.00    +0.013 A 
BRANCH   7  17
ATOM     14  C   UNL     1       1.400   0.038  -1.402  0.00  0.00    +0.111 C 
ATOM     15  C   UNL     1       2.839   0.028  -1.097  0.00  0.00    +0.215 A 
ATOM     16  O   UNL     1       3.405  -1.180  -0.795  0.00  0.00    -0.421 OA
ATOM     17  C   UNL     1       4.718  -0.830  -0.593  0.00  0.00    +0.248 A 
ATOM     18  N   UNL     1       4.921   0.464  -0.752  0.00  0.00    -0.107 NA
ATOM     19  N   UNL     1       3.702   1.020  -1.079  0.00  0.00    -0.112 NA
ENDBRANCH   7  17
ENDBRANCH   1   9
BRANCH   4  20
ATOM     20  C   UNL     1       4.454  -9.838  -0.910  0.00  0.00    +0.244 C 
ATOM     21  N   UNL     1       3.811 -10.092  -2.107  0.00  0.00    -0.311 N 
ATOM     22  H   UNL     1       3.805  -9.369  -2.813  0.00  0.00    +0.149 HD
ATOM     23  O   UNL     1       4.776 -10.722  -0.121  0.00  0.00    -0.270 OA
BRANCH  21  24
ATOM     24  C   UNL     1       3.610 -11.450  -2.552  0.00  0.00    +0.108 C 
BRANCH  24  25
ATOM     25  C   UNL     1       2.924 -11.444  -3.880  0.00  0.00    +0.006 C 
ATOM     26  C   UNL     1       3.386 -12.366  -4.981  0.00  0.00    +0.005 C 
ATOM     27  C   UNL     1       3.609 -10.886  -5.105  0.00  0.00    +0.005 C 
ENDBRANCH  24  25
ENDBRANCH  21  24
ENDBRANCH   4  20
TORSDOF 5
