REMARK  Name = 
REMARK  5 active torsions:
REMARK  status: ('A' for Active; 'I' for Inactive)
REMARK    1  A    between atoms: C_2  and  C_3
REMARK    2  A    between atoms: C_3  and  O_4
REMARK    3  A    between atoms: B_7  and  C_9
REMARK    4  A    between atoms: C_12  and  C_13
REMARK    5  A    between atoms: C_13  and  N_14
REMARK                            x       y       z     vdW  Elec       q    Type
REMARK                         _______ _______ _______ _____ _____    ______ ____
ROOT
ATOM      1  C   UNL     1       4.768  -1.676   2.285  0.00  0.00    +0.000 A 
ATOM      2  C   UNL     1       4.476  -3.050   2.289  0.00  0.00    +0.000 A 
ATOM      3  C   UNL     1       5.313  -3.950   2.958  0.00  0.00    +0.000 A 
ATOM      4  C   UNL     1       6.449  -3.494   3.643  0.00  0.00    +0.000 A 
ATOM      5  C   UNL     1       6.731  -2.117   3.655  0.00  0.00    +0.000 A 
ATOM      6  C   UNL     1       5.899  -1.214   2.977  0.00  0.00    +0.000 A 
ENDROOT
BRANCH   1   9
ATOM      7  C   UNL     1       2.190   0.055   0.199  0.00  0.00    +0.000 C 
ATOM      8  O   UNL     1       2.621  -1.137   0.800  0.00  0.00    +0.000 OA
ATOM      9  B   UNL     1       3.832  -0.682   1.493  0.00  0.00    +0.000 B 
ATOM     10  O   UNL     1       4.078   0.758   1.415  0.00  0.00    +0.000 OA
ATOM     11  C   UNL     1       2.804   1.192   1.027  0.00  0.00    +0.000 C 
BRANCH   7  12
ATOM     12  C   UNL     1       2.627   0.082  -1.280  0.00  0.00    +0.000 C 
BRANCH  12  13
ATOM     13  O   UNL     1       2.192   1.259  -1.908  0.00  0.00    +0.000 OA
ATOM     14  H   UNL     1       1.228   1.135  -2.109  0.00  0.00    +0.000 HD
ENDBRANCH  12  13
ENDBRANCH   7  12
ENDBRANCH   1   9
BRANCH   4  15
ATOM     15  C   UNL     1       7.384  -4.476   4.311  0.00  0.00    +0.000 C 
BRANCH  15  16
ATOM     16  N   UNL     1       7.079  -4.662   5.716  0.00  0.00    +0.330 N 
ATOM     17  H   UNL     1       6.278  -4.160   6.131  0.00  0.00    +0.000 HD
ATOM     18  C   UNL     1       7.842  -5.546   6.546  0.00  0.00    +0.000 C 
ATOM     19  N   UNL     1       7.514  -5.711   7.777  0.00  0.00    +0.330 NA
ATOM     20  H   UNL     1       6.707  -5.228   8.198  0.00  0.00    +0.000 HD
ATOM     21  N   UNL     1       8.966  -6.252   6.038  0.00  0.00    +0.330 N 
ATOM     22  H   UNL     1       9.506  -6.879   6.655  0.00  0.00    +0.000 HD
ATOM     23  H   UNL     1       9.272  -6.158   5.060  0.00  0.00    +0.000 HD
ENDBRANCH  15  16
ENDBRANCH   4  15
TORSDOF 5
