REMARK  Name = 
REMARK  7 active torsions:
REMARK  status: ('A' for Active; 'I' for Inactive)
REMARK    1  A    between atoms: C_7  and  N_8
REMARK    2  A    between atoms: N_8  and  C_9
REMARK    3  A    between atoms: C_9  and  C_10
REMARK    4  A    between atoms: C_11  and  O_12
REMARK    5  A    between atoms: O_12  and  C_13
REMARK    6  A    between atoms: C_13  and  C_14
REMARK    7  A    between atoms: C_22  and  C_24
REMARK                            x       y       z     vdW  Elec       q    Type
REMARK                         _______ _______ _______ _____ _____    ______ ____
ROOT
ATOM      1  C   UNL     1       0.520  -3.844  -0.898  0.00  0.00    +0.012 A 
ATOM      2  C   UNL     1      -0.365  -4.027  -1.989  0.00  0.00    +0.017 A 
ATOM      3  C   UNL     1      -0.690  -5.301  -2.486  0.00  0.00    -0.017 A 
ATOM      4  C   UNL     1      -0.158  -6.399  -1.788  0.00  0.00    +0.012 A 
ATOM      5  C   UNL     1       0.644  -6.240  -0.650  0.00  0.00    +0.046 A 
ATOM      6  C   UNL     1       0.991  -4.968  -0.203  0.00  0.00    +0.126 A 
ENDROOT
BRANCH   3   7
ATOM      7  C   UNL     1      -1.491  -5.487  -3.728  0.00  0.00    -0.016 A 
ATOM      8  C   UNL     1      -1.404  -4.580  -4.802  0.00  0.00    +0.009 A 
ATOM      9  C   UNL     1      -2.100  -4.772  -6.010  0.00  0.00    +0.010 A 
ATOM     10  C   UNL     1      -2.895  -5.918  -6.171  0.00  0.00    -0.000 A 
ATOM     11  C   UNL     1      -3.677  -6.444  -7.237  0.00  0.00    +0.027 A 
ATOM     12  C   UNL     1      -4.217  -7.637  -6.811  0.00  0.00    +0.083 A 
ATOM     13  N   UNL     1      -3.811  -7.840  -5.518  0.00  0.00    -0.361 N 
ATOM     14  H   UNL     1      -4.053  -8.641  -4.951  0.00  0.00    +0.165 HD
ATOM     15  C   UNL     1      -2.993  -6.811  -5.109  0.00  0.00    +0.047 A 
ATOM     16  C   UNL     1      -2.327  -6.613  -3.888  0.00  0.00    +0.034 A 
ENDBRANCH   3   7
BRANCH   1  17
ATOM     17  C   UNL     1       1.053  -2.449  -0.608  0.00  0.00    +0.140 C 
BRANCH  17  18
ATOM     18  N   UNL     1       2.510  -2.360  -0.712  0.00  0.00    -0.337 N 
ATOM     19  H   UNL     1       2.913  -1.479  -0.397  0.00  0.00    +0.146 HD
BRANCH  18  24
ATOM     20  N   UNL     1       5.281  -2.904  -0.392  0.00  0.00    -0.342 N 
ATOM     21  H   UNL     1       4.774  -3.347   0.374  0.00  0.00    +0.144 HD
ATOM     22  H   UNL     1       6.210  -3.308  -0.480  0.00  0.00    +0.144 HD
ATOM     23  C   UNL     1       4.626  -3.193  -1.601  0.00  0.00    +0.137 A 
ATOM     24  C   UNL     1       3.256  -2.889  -1.767  0.00  0.00    +0.067 A 
ATOM     25  C   UNL     1       2.708  -3.187  -3.016  0.00  0.00    +0.028 A 
ATOM     26  C   UNL     1       3.465  -3.829  -3.987  0.00  0.00    +0.022 A 
ATOM     27  C   UNL     1       4.788  -4.101  -3.707  0.00  0.00    +0.113 A 
ATOM     28  N   UNL     1       5.393  -3.776  -2.546  0.00  0.00    -0.239 NA
ENDBRANCH  18  24
ENDBRANCH  17  18
ENDBRANCH   1  17
BRANCH   6  29
ATOM     29  O   UNL     1       1.736  -4.742   0.923  0.00  0.00    -0.486 OA
BRANCH  29  30
ATOM     30  C   UNL     1       2.833  -5.638   1.137  0.00  0.00    +0.284 C 
BRANCH  30  31
ATOM     31  C   UNL     1       3.646  -5.150   2.320  0.00  0.00    +0.078 A 
ATOM     32  C   UNL     1       3.020  -4.928   3.550  0.00  0.00    +0.027 A 
ATOM     33  C   UNL     1       3.789  -4.526   4.639  0.00  0.00    +0.003 A 
ATOM     34  C   UNL     1       5.157  -4.360   4.479  0.00  0.00    +0.020 A 
ATOM     35  C   UNL     1       5.703  -4.597   3.229  0.00  0.00    +0.111 A 
ATOM     36  N   UNL     1       4.984  -4.984   2.150  0.00  0.00    -0.256 NA
ENDBRANCH  30  31
ENDBRANCH  29  30
ENDBRANCH   6  29
TORSDOF 7
