REMARK  Name = 
REMARK  5 active torsions:
REMARK  status: ('A' for Active; 'I' for Inactive)
REMARK    1  A    between atoms: C_1  and  N_2
REMARK    2  A    between atoms: C_3  and  C_5
REMARK    3  A    between atoms: C_6  and  C_7
REMARK    4  A    between atoms: C_9  and  C_10
REMARK    5  A    between atoms: C_22  and  C_23
REMARK                            x       y       z     vdW  Elec       q    Type
REMARK                         _______ _______ _______ _____ _____    ______ ____
ROOT
ATOM      1  C   UNL     1       4.587   0.259   1.254  0.00  0.00    +0.060 A 
ATOM      2  C   UNL     1       5.418  -0.889   1.504  0.00  0.00    -0.013 A 
ATOM      3  C   UNL     1       4.914  -2.253   1.844  0.00  0.00    +0.047 C 
ATOM      4  C   UNL     1       6.745  -0.487   1.394  0.00  0.00    +0.044 A 
ATOM      5  N   UNL     1       6.737   0.843   1.065  0.00  0.00    -0.358 N 
ATOM      6  H   UNL     1       7.566   1.409   0.900  0.00  0.00    +0.166 HD
ATOM      7  C   UNL     1       5.447   1.315   0.968  0.00  0.00    +0.026 A 
ATOM      8  C   UNL     1       5.215   2.730   0.569  0.00  0.00    +0.064 C 
ENDROOT
BRANCH   4   9
ATOM      9  C   UNL     1       7.942  -1.230   1.566  0.00  0.00    +0.039 C 
ATOM     10  C   UNL     1       9.226  -0.853   1.480  0.00  0.00    +0.048 C 
ATOM     11  C   UNL     1      10.328  -1.803   1.714  0.00  0.00    +0.010 A 
ATOM     12  C   UNL     1      11.514  -1.087   1.546  0.00  0.00    +0.042 A 
ATOM     13  C   UNL     1      12.756  -1.672   1.696  0.00  0.00    +0.025 A 
ATOM     14  C   UNL     1      12.793  -3.031   2.029  0.00  0.00    +0.022 A 
ATOM     15  C   UNL     1      11.602  -3.757   2.203  0.00  0.00    +0.042 A 
ATOM     16 CL   UNL     1      11.677  -5.426   2.616  0.00  0.00    -0.084 Cl
ATOM     17  N   UNL     1      11.237   0.238   1.225  0.00  0.00    -0.281 N 
ATOM     18  H   UNL     1      11.922   0.959   1.052  0.00  0.00    +0.155 HD
ATOM     19  C   UNL     1      10.356  -3.147   2.048  0.00  0.00    +0.030 A 
ATOM     20  C   UNL     1       9.868   0.472   1.163  0.00  0.00    +0.249 C 
ATOM     21  O   UNL     1       9.322   1.529   0.906  0.00  0.00    -0.270 OA
ENDBRANCH   4   9
BRANCH   1  25
ATOM     22  C   UNL     1       1.147   1.639   1.787  0.00  0.00    +0.128 C 
ATOM     23  N   UNL     1       2.568   1.449   1.722  0.00  0.00    -0.314 N 
ATOM     24  H   UNL     1       3.183   2.118   2.162  0.00  0.00    +0.149 HD
ATOM     25  C   UNL     1       3.120   0.272   1.270  0.00  0.00    +0.246 C 
ATOM     26  O   UNL     1       2.442  -0.700   0.953  0.00  0.00    -0.270 OA
ENDBRANCH   1  25
TORSDOF 2
