REMARK  Name = 
REMARK  10 active torsions:
REMARK  status: ('A' for Active; 'I' for Inactive)
REMARK    1  A    between atoms: C_1  and  C_2
REMARK    2  A    between atoms: C_2  and  C_3
REMARK    3  A    between atoms: C_2  and  C_4
REMARK    4  A    between atoms: C_4  and  C_5
REMARK    5  A    between atoms: C_5  and  N_6
REMARK    6  A    between atoms: C_12  and  O_13
REMARK    7  A    between atoms: C_14  and  C_17
REMARK    8  A    between atoms: C_22  and  N_23
REMARK    9  A    between atoms: N_23  and  S_24
REMARK   10  A    between atoms: S_24  and  C_25
REMARK                            x       y       z     vdW  Elec       q    Type
REMARK                         _______ _______ _______ _____ _____    ______ ____
ROOT
ATOM      1  C   UNL     1       5.017   4.235  -4.671  0.00  0.00    +0.351 C 
ATOM      2  N   UNL     1       5.737   5.085  -3.818  0.00  0.00    -0.090 N 
ATOM      3  H   UNL     1       5.717   4.811  -2.831  0.00  0.00    +0.326 HD
ATOM      4  S   UNL     1       5.747   6.731  -3.974  0.00  0.00    +0.136 S 
ATOM      5  O   UNL     1       5.203   7.258  -2.740  0.00  0.00    -0.130 OA
ATOM      6  O   UNL     1       7.051   7.124  -4.453  0.00  0.00    -0.130 OA
ATOM      7  C   UNL     1       4.602   7.057  -5.242  0.00  0.00    +0.181 A 
ATOM      8  C   UNL     1       4.413   8.383  -5.655  0.00  0.00    +0.059 A 
ATOM      9  C   UNL     1       3.578   8.638  -6.736  0.00  0.00    +0.050 A 
ATOM     10  C   UNL     1       2.883   7.595  -7.341  0.00  0.00    +0.029 A 
ATOM     11  C   UNL     1       3.090   6.280  -6.911  0.00  0.00    +0.059 A 
ATOM     12  C   UNL     1       3.988   5.986  -5.877  0.00  0.00    +0.205 A 
ATOM     13  N   UNL     1       4.220   4.635  -5.604  0.00  0.00    -0.037 NA
ENDROOT
BRANCH   1  17
ATOM     14  N   UNL     1       4.987   0.943  -2.747  0.00  0.00    -0.244 N 
ATOM     15  C   UNL     1       4.968   2.311  -2.979  0.00  0.00    +0.285 A 
ATOM     16  O   UNL     1       4.727   3.139  -2.098  0.00  0.00    -0.265 OA
ATOM     17  C   UNL     1       5.219   2.798  -4.354  0.00  0.00    +0.176 A 
ATOM     18  C   UNL     1       5.652   1.949  -5.295  0.00  0.00    +0.162 A 
ATOM     19  C   UNL     1       5.816   0.576  -4.999  0.00  0.00    +0.106 A 
ATOM     20  C   UNL     1       6.273  -0.523  -5.708  0.00  0.00    +0.033 A 
ATOM     21  C   UNL     1       6.210  -1.649  -4.852  0.00  0.00    +0.022 A 
ATOM     22  C   UNL     1       5.729  -1.212  -3.637  0.00  0.00    +0.111 A 
ATOM     23  N   UNL     1       5.466   0.125  -3.746  0.00  0.00    -0.253 N 
BRANCH  18  24
ATOM     24  O   UNL     1       5.993   2.362  -6.564  0.00  0.00    -0.504 OA
ATOM     25  H   UNL     1       6.339   1.609  -7.070  0.00  0.00    +0.292 HD
ENDBRANCH  18  24
BRANCH  14  26
ATOM     26  C   UNL     1       4.527   0.474  -1.440  0.00  0.00    +0.146 C 
BRANCH  26  27
ATOM     27  C   UNL     1       3.034   0.747  -1.183  0.00  0.00    +0.026 C 
BRANCH  27  29
ATOM     28  C   UNL     1       2.116  -1.363  -2.259  0.00  0.00    +0.007 C 
ATOM     29  C   UNL     1       2.083   0.164  -2.244  0.00  0.00    -0.015 C 
ATOM     30  C   UNL     1       0.654   0.650  -1.991  0.00  0.00    +0.007 C 
ENDBRANCH  27  29
ENDBRANCH  26  27
ENDBRANCH  14  26
ENDBRANCH   1  17
BRANCH   9  31
ATOM     31  N   UNL     1       3.505   9.936  -7.312  0.00  0.00    -0.221 N 
ATOM     32  H   UNL     1       4.407  10.349  -7.559  0.00  0.00    +0.173 HD
BRANCH  31  33
ATOM     33  S   UNL     1       2.533  11.105  -6.585  0.00  0.00    +0.040 S 
ATOM     34  O   UNL     1       3.180  12.368  -6.869  0.00  0.00    -0.155 OA
ATOM     35  O   UNL     1       2.199  10.711  -5.236  0.00  0.00    -0.155 OA
ATOM     36  C   UNL     1       1.078  11.011  -7.604  0.00  0.00    +0.218 C 
ENDBRANCH  31  33
ENDBRANCH   9  31
TORSDOF 7
