REMARK  Name = 
REMARK  4 active torsions:
REMARK  status: ('A' for Active; 'I' for Inactive)
REMARK    1  A    between atoms: O_1  and  C_2
REMARK    2  A    between atoms: C_2  and  C_4
REMARK    3  A    between atoms: C_4  and  C_5
REMARK    4  A    between atoms: C_8  and  N_11
REMARK                            x       y       z     vdW  Elec       q    Type
REMARK                         _______ _______ _______ _____ _____    ______ ____
ROOT
ATOM      1  C   UNL     1       4.741   0.928  -0.408  0.00  0.00    -0.036 A 
ATOM      2  C   UNL     1       5.300  -0.358  -0.472  0.00  0.00    +0.011 A 
ATOM      3  C   UNL     1       6.685  -0.524  -0.553  0.00  0.00    +0.084 A 
ATOM      4  C   UNL     1       7.517   0.602  -0.570  0.00  0.00    +0.273 A 
ATOM      5  C   UNL     1       6.971   1.890  -0.502  0.00  0.00    +0.084 A 
ATOM      6  C   UNL     1       5.586   2.048  -0.422  0.00  0.00    +0.011 A 
ENDROOT
BRANCH   4   7
ATOM      7  N   UNL     1       8.972   0.432  -0.672  0.00  0.00    +0.080 N 
ATOM      8  O   UNL     1       9.414  -0.724  -0.729  0.00  0.00    +0.041 OA
ATOM      9  O   UNL     1       9.670   1.455  -0.705  0.00  0.00    -0.576 OA
ENDBRANCH   4   7
BRANCH   1  10
ATOM     10  C   UNL     1       3.239   1.106  -0.379  0.00  0.00    +0.155 C 
BRANCH  10  11
ATOM     11  C   UNL     1       2.543   1.209  -1.721  0.00  0.00    +0.309 C 
ATOM     12  O   UNL     1       1.334   1.385  -1.812  0.00  0.00    -0.251 OA
BRANCH  11  13
ATOM     13  O   UNL     1       3.313   1.093  -2.823  0.00  0.00    -0.480 OA
ATOM     14  H   UNL     1       4.265   0.958  -2.660  0.00  0.00    +0.295 HD
ENDBRANCH  11  13
ENDBRANCH  10  11
ENDBRANCH   1  10
TORSDOF 4
