REMARK  Name = 
REMARK  8 active torsions:
REMARK  status: ('A' for Active; 'I' for Inactive)
REMARK    1  A    between atoms: O_1  and  C_2
REMARK    2  A    between atoms: C_2  and  C_4
REMARK    3  A    between atoms: C_4  and  O_5
REMARK    4  A    between atoms: O_5  and  C_6
REMARK    5  A    between atoms: C_6  and  C_8
REMARK    6  A    between atoms: N_13  and  C_14
REMARK    7  A    between atoms: C_14  and  C_15
REMARK    8  A    between atoms: C_15  and  O_16
REMARK                            x       y       z     vdW  Elec       q    Type
REMARK                         _______ _______ _______ _____ _____    ______ ____
ROOT
ATOM      1  C   UNL     1       6.872   1.326  -0.888  0.00  0.00    +0.087 A 
ATOM      2  C   UNL     1       7.739   2.429  -0.898  0.00  0.00    +0.025 A 
ATOM      3  C   UNL     1       9.140   2.283  -0.833  0.00  0.00    -0.016 A 
ATOM      4  C   UNL     1       9.718   0.990  -0.783  0.00  0.00    -0.004 A 
ATOM      5  C   UNL     1      11.127   0.888  -0.768  0.00  0.00    +0.009 A 
ATOM      6  C   UNL     1      11.937   2.023  -0.787  0.00  0.00    +0.001 A 
ATOM      7  C   UNL     1      11.358   3.285  -0.813  0.00  0.00    +0.001 A 
ATOM      8  C   UNL     1       8.836  -0.106  -0.760  0.00  0.00    +0.073 A 
ATOM      9  C   UNL     1       9.214  -1.542  -0.781  0.00  0.00    +0.269 C 
ATOM     10  N   UNL     1       8.052  -2.341  -0.811  0.00  0.00    -0.157 N 
ATOM     11  S   UNL     1       6.643  -1.462  -0.749  0.00  0.00    +0.079 S 
ATOM     12  O   UNL     1       5.874  -1.617  -1.959  0.00  0.00    -0.150 OA
ATOM     13  O   UNL     1       6.093  -1.697   0.565  0.00  0.00    -0.150 OA
ATOM     14  O   UNL     1      10.342  -1.992  -0.802  0.00  0.00    -0.268 OA
ATOM     15  C   UNL     1       9.970   3.414  -0.837  0.00  0.00    +0.008 A 
ATOM     16  C   UNL     1       7.450   0.072  -0.776  0.00  0.00    +0.135 A 
ENDROOT
BRANCH   1  17
ATOM     17  C   UNL     1       5.430   1.607  -1.084  0.00  0.00    +0.342 C 
ATOM     18  O   UNL     1       5.038   2.635  -1.607  0.00  0.00    -0.245 OA
BRANCH  17  19
ATOM     19  O   UNL     1       4.649   0.624  -0.584  0.00  0.00    -0.450 OA
BRANCH  19  20
ATOM     20  C   UNL     1       3.244   0.881  -0.716  0.00  0.00    +0.352 C 
BRANCH  20  21
ATOM     21  C   UNL     1       2.691   0.503  -2.082  0.00  0.00    +0.343 C 
ATOM     22  O   UNL     1       1.695   1.015  -2.575  0.00  0.00    -0.247 OA
BRANCH  21  23
ATOM     23  O   UNL     1       3.350  -0.512  -2.687  0.00  0.00    -0.478 OA
ATOM     24  H   UNL     1       4.128  -0.865  -2.201  0.00  0.00    +0.295 HD
ENDBRANCH  21  23
ENDBRANCH  20  21
ENDBRANCH  19  20
ENDBRANCH  17  19
ENDBRANCH   1  17
BRANCH  10  25
ATOM     25  C   UNL     1       8.065  -3.800  -0.969  0.00  0.00    +0.255 C 
BRANCH  25  26
ATOM     26  C   UNL     1       7.465  -4.726   0.059  0.00  0.00    +0.324 C 
ATOM     27  O   UNL     1       7.660  -5.937   0.014  0.00  0.00    -0.249 OA
BRANCH  26  28
ATOM     28  O   UNL     1       6.695  -4.199   1.026  0.00  0.00    -0.479 OA
ATOM     29  H   UNL     1       6.528  -3.232   1.032  0.00  0.00    +0.295 HD
ENDBRANCH  26  28
ENDBRANCH  25  26
ENDBRANCH  10  25
TORSDOF 8
