REMARK  Name = 
REMARK  9 active torsions:
REMARK  status: ('A' for Active; 'I' for Inactive)
REMARK    1  A    between atoms: C_1  and  O_2
REMARK    2  A    between atoms: O_2  and  C_3
REMARK    3  A    between atoms: C_5  and  N_6
REMARK    4  A    between atoms: C_9  and  N_10
REMARK    5  A    between atoms: N_10  and  C_11
REMARK    6  A    between atoms: C_25  and  O_26
REMARK    7  A    between atoms: O_26  and  C_27
REMARK    8  A    between atoms: C_28  and  O_29
REMARK    9  A    between atoms: O_29  and  C_30
REMARK                            x       y       z     vdW  Elec       q    Type
REMARK                         _______ _______ _______ _____ _____    ______ ____
ROOT
ATOM      1  N   UNL     1       2.921   4.747  -1.449  0.00  0.00    -0.283 N 
ATOM      2  H   UNL     1       2.374   5.052  -0.659  0.00  0.00    +0.155 HD
ATOM      3  C   UNL     1       3.165   5.843  -2.267  0.00  0.00    +0.221 A 
ATOM      4  N   UNL     1       4.000   5.773  -3.312  0.00  0.00    -0.223 NA
ATOM      5  C   UNL     1       4.245   6.918  -3.968  0.00  0.00    +0.118 A 
ATOM      6  C   UNL     1       3.684   8.121  -3.620  0.00  0.00    +0.063 A 
ATOM      7  C   UNL     1       2.814   8.102  -2.551  0.00  0.00    +0.128 A 
ATOM      8  N   UNL     1       2.571   6.975  -1.862  0.00  0.00    -0.199 NA
ENDROOT
BRANCH   1  13
ATOM      9  C   UNL     1       3.586   1.278  -0.333  0.00  0.00    +0.167 A 
ATOM     10  C   UNL     1       3.922   0.620  -1.537  0.00  0.00    +0.204 A 
ATOM     11  C   UNL     1       3.913   1.370  -2.735  0.00  0.00    +0.167 A 
ATOM     12  C   UNL     1       3.588   2.740  -2.710  0.00  0.00    +0.073 A 
ATOM     13  C   UNL     1       3.233   3.392  -1.535  0.00  0.00    +0.041 A 
ATOM     14  C   UNL     1       3.263   2.646  -0.353  0.00  0.00    +0.073 A 
BRANCH   9  16
ATOM     15  C   UNL     1       2.846   1.090   1.930  0.00  0.00    +0.277 C 
ATOM     16  O   UNL     1       3.627   0.583   0.852  0.00  0.00    -0.491 OA
ENDBRANCH   9  16
BRANCH  10  17
ATOM     17  O   UNL     1       4.260  -0.702  -1.660  0.00  0.00    -0.488 OA
ATOM     18  C   UNL     1       4.268  -1.561  -0.532  0.00  0.00    +0.277 C 
ENDBRANCH  10  17
BRANCH  11  19
ATOM     19  O   UNL     1       4.184   0.953  -4.017  0.00  0.00    -0.491 OA
ATOM     20  C   UNL     1       4.509  -0.403  -4.267  0.00  0.00    +0.277 C 
ENDBRANCH  11  19
ENDBRANCH   1  13
BRANCH   7  21
ATOM     21  N   UNL     1       2.229   9.325  -2.151  0.00  0.00    -0.295 N 
ATOM     22  H   UNL     1       2.965   9.956  -1.840  0.00  0.00    +0.154 HD
BRANCH  21  23
ATOM     23  C   UNL     1       1.066   9.479  -1.357  0.00  0.00    +0.097 A 
ATOM     24  C   UNL     1      -0.088   8.723  -1.541  0.00  0.00    +0.189 A 
ATOM     25  O   UNL     1      -0.276   7.736  -2.466  0.00  0.00    -0.451 OA
ATOM     26  C   UNL     1      -1.595   7.275  -2.128  0.00  0.00    +0.466 C 
ATOM     27  O   UNL     1      -2.249   8.101  -1.145  0.00  0.00    -0.453 OA
ATOM     28  C   UNL     1      -1.235   8.941  -0.803  0.00  0.00    +0.168 A 
ATOM     29  C   UNL     1      -1.320   9.930   0.152  0.00  0.00    +0.051 A 
ATOM     30  C   UNL     1      -0.191  10.719   0.365  0.00  0.00    +0.025 A 
ATOM     31  C   UNL     1       0.982  10.498  -0.383  0.00  0.00    +0.066 A 
ATOM     32 CL   UNL     1       2.348  11.517  -0.066  0.00  0.00    -0.081 Cl
ENDBRANCH  21  23
ENDBRANCH   7  21
TORSDOF 6
