REMARK  Name = 
REMARK  6 active torsions:
REMARK  status: ('A' for Active; 'I' for Inactive)
REMARK    1  A    between atoms: O_1  and  C_2
REMARK    2  A    between atoms: C_2  and  C_4
REMARK    3  A    between atoms: C_6  and  O_7
REMARK    4  A    between atoms: O_7  and  C_8
REMARK    5  A    between atoms: C_11  and  C_15
REMARK    6  A    between atoms: C_21  and  N_22
REMARK                            x       y       z     vdW  Elec       q    Type
REMARK                         _______ _______ _______ _____ _____    ______ ____
ROOT
ATOM      1  C   UNL     1       3.187  -1.028  -0.842  0.00  0.00    +0.139 A 
ATOM      2  C   UNL     1       2.935  -2.397  -0.928  0.00  0.00    +0.287 A 
ATOM      3  C   UNL     1       3.408  -3.164  -2.005  0.00  0.00    +0.089 A 
ATOM      4  C   UNL     1       4.118  -2.531  -3.024  0.00  0.00    +0.053 A 
ATOM      5  C   UNL     1       4.391  -1.161  -2.956  0.00  0.00    +0.130 A 
ATOM      6  C   UNL     1       3.997  -0.438  -1.826  0.00  0.00    +0.068 A 
ENDROOT
BRANCH   2   7
ATOM      7  N   UNL     1       2.162  -3.076   0.079  0.00  0.00    +0.080 N 
ATOM      8  O   UNL     1       2.721  -3.963   0.729  0.00  0.00    +0.041 OA
ATOM      9  O   UNL     1       0.976  -2.727   0.179  0.00  0.00    -0.576 OA
ENDBRANCH   2   7
BRANCH   1  10
ATOM     10  C   UNL     1       2.665  -0.105   0.193  0.00  0.00    +0.344 C 
ATOM     11  O   UNL     1       3.362   0.792   0.642  0.00  0.00    -0.245 OA
BRANCH  10  12
ATOM     12  O   UNL     1       1.350  -0.197   0.457  0.00  0.00    -0.477 OA
ATOM     13  H   UNL     1       0.842  -0.969   0.122  0.00  0.00    +0.295 HD
ENDBRANCH  10  12
ENDBRANCH   1  10
BRANCH   5  14
ATOM     14  O   UNL     1       5.073  -0.638  -4.031  0.00  0.00    -0.455 OA
BRANCH  14  15
ATOM     15  C   UNL     1       4.957   0.691  -4.381  0.00  0.00    +0.147 A 
ATOM     16  C   UNL     1       6.038   1.277  -5.053  0.00  0.00    +0.084 A 
ATOM     17 CL   UNL     1       7.438   0.357  -5.477  0.00  0.00    -0.080 Cl
ATOM     18  C   UNL     1       6.008   2.630  -5.409  0.00  0.00    +0.036 A 
ATOM     19  C   UNL     1       4.892   3.424  -5.099  0.00  0.00    +0.056 A 
ATOM     20  C   UNL     1       3.789   2.821  -4.483  0.00  0.00    +0.016 A 
ATOM     21  C   UNL     1       3.808   1.461  -4.162  0.00  0.00    +0.048 A 
BRANCH  19  22
ATOM     22  C   UNL     1       4.889   4.895  -5.440  0.00  0.00    +0.417 C 
ATOM     23  F   UNL     1       5.029   5.117  -6.774  0.00  0.00    -0.166 F 
ATOM     24  F   UNL     1       5.905   5.568  -4.836  0.00  0.00    -0.166 F 
ATOM     25  F   UNL     1       3.744   5.534  -5.071  0.00  0.00    -0.166 F 
ENDBRANCH  19  22
ENDBRANCH  14  15
ENDBRANCH   5  14
TORSDOF 6
