REMARK  Name = 
REMARK  8 active torsions:
REMARK  status: ('A' for Active; 'I' for Inactive)
REMARK    1  A    between atoms: CA_2  and  CB_3
REMARK    2  A    between atoms: CA_2  and  N_7
REMARK    3  A    between atoms: CA_2  and  C_20
REMARK    4  A    between atoms: CB_3  and  CG_4
REMARK    5  A    between atoms: CG_4  and  OD1_5
REMARK    6  A    between atoms: C_8  and  C_10
REMARK    7  A    between atoms: C_10  and  C_11
REMARK    8  A    between atoms: C_20  and  O_21
REMARK                            x       y       z     vdW  Elec       q    Type
REMARK                         _______ _______ _______ _____ _____    ______ ____
ROOT
ATOM      1  N   ASP A   1       2.226   2.386  -0.778  0.00  0.00    -0.302 N 
ATOM      2  H   ASP A   1       2.609   3.189  -1.275  0.00  0.00    +0.150 HD
ATOM      3  C   UNK A   0       2.020   2.487   0.581  0.00  0.00    +0.218 C 
ATOM      4  O   UNK A   0       1.474   1.585   1.216  0.00  0.00    -0.275 OA
ENDROOT
BRANCH   1   5
ATOM      5  CA  ASP A   1       1.757   1.229  -1.528  0.00  0.00    +0.192 C 
BRANCH   5   6
ATOM      6  C   ASP A   1       2.364   1.210  -2.923  0.00  0.00    +0.326 C 
ATOM      7  OXT ASP A   1       2.436   2.224  -3.610  0.00  0.00    -0.249 OA
BRANCH   6   8
ATOM      8  O   ASP A   1       2.707  -0.004  -3.394  0.00  0.00    -0.479 OA
ATOM      9  H   ASP A   1       2.582  -0.753  -2.777  0.00  0.00    +0.295 HD
ENDBRANCH   6   8
ENDBRANCH   5   6
BRANCH   5  10
ATOM     10  CB  ASP A   1       0.241   1.129  -1.656  0.00  0.00    +0.154 C 
BRANCH  10  11
ATOM     11  CG  ASP A   1      -0.521   2.353  -2.109  0.00  0.00    +0.307 C 
ATOM     12  OD2 ASP A   1      -1.652   2.583  -1.692  0.00  0.00    -0.251 OA
BRANCH  11  13
ATOM     13  OD1 ASP A   1       0.018   3.115  -3.076  0.00  0.00    -0.481 OA
ATOM     14  HD1 ASP A   1       0.910   2.914  -3.437  0.00  0.00    +0.295 HD
ENDBRANCH  11  13
ENDBRANCH  10  11
ENDBRANCH   5  10
ENDBRANCH   1   5
BRANCH   3  15
ATOM     15  C   UNK A   0       2.612   3.709   1.260  0.00  0.00    +0.133 C 
BRANCH  15  16
ATOM     16  C   UNK A   0       2.211   5.014   0.650  0.00  0.00    -0.014 A 
ATOM     17  C   UNK A   0       0.885   5.550   0.544  0.00  0.00    +0.003 A 
ATOM     18  C   UNK A   0       0.990   6.826  -0.012  0.00  0.00    +0.047 A 
ATOM     19  C   UNK A   0      -0.115   7.653  -0.239  0.00  0.00    +0.026 A 
ATOM     20  C   UNK A   0      -1.374   7.158   0.107  0.00  0.00    +0.002 A 
ATOM     21  C   UNK A   0      -1.518   5.888   0.656  0.00  0.00    +0.001 A 
ATOM     22  N   UNK A   0       2.326   7.052  -0.251  0.00  0.00    -0.360 N 
ATOM     23  H   UNK A   0       2.698   7.909  -0.640  0.00  0.00    +0.165 HD
ATOM     24  C   UNK A   0      -0.398   5.077   0.886  0.00  0.00    +0.010 A 
ATOM     25  C   UNK A   0       3.069   5.970   0.140  0.00  0.00    +0.087 A 
ENDBRANCH  15  16
ENDBRANCH   3  15
TORSDOF 8
