REMARK  Name = 
REMARK  7 active torsions:
REMARK  status: ('A' for Active; 'I' for Inactive)
REMARK    1  A    between atoms: C_1  and  C_2
REMARK    2  A    between atoms: C_2  and  C_3
REMARK    3  A    between atoms: N_5  and  C_22
REMARK    4  A    between atoms: C_11  and  C_12
REMARK    5  A    between atoms: C_12  and  C_13
REMARK    6  A    between atoms: C_15  and  O_16
REMARK    7  A    between atoms: C_17  and  O_18
REMARK                            x       y       z     vdW  Elec       q    Type
REMARK                         _______ _______ _______ _____ _____    ______ ____
ROOT
ATOM      1  C   UNL     1       2.878   1.072   0.979  0.00  0.00    +0.078 A 
ATOM      2  C   UNL     1       3.639   0.819   2.129  0.00  0.00    +0.106 A 
ATOM      3  C   UNL     1       4.235  -0.348   2.702  0.00  0.00    +0.263 A 
ATOM      4  N   UNL     1       4.799  -0.107   3.939  0.00  0.00    -0.310 N 
ATOM      5  H   UNL     1       5.230  -0.907   4.381  0.00  0.00    +0.170 HD
ATOM      6  C   UNL     1       4.835   1.144   4.534  0.00  0.00    +0.116 A 
ATOM      7  N   UNL     1       4.394   2.231   3.967  0.00  0.00    -0.214 NA
ATOM      8  O   UNL     1       4.247  -1.455   2.182  0.00  0.00    -0.267 OA
ATOM      9  C   UNL     1       3.755   2.025   2.784  0.00  0.00    +0.171 A 
ATOM     10  N   UNL     1       3.085   2.964   2.000  0.00  0.00    -0.211 N 
ATOM     11  N   UNL     1       2.530   2.361   0.907  0.00  0.00    -0.169 NA
ENDROOT
BRANCH  10  12
ATOM     12  C   UNL     1       2.930   4.369   2.196  0.00  0.00    +0.104 A 
ATOM     13  C   UNL     1       2.960   5.248   1.087  0.00  0.00    +0.069 A 
ATOM     14 CL   UNL     1       3.254   4.775  -0.558  0.00  0.00    -0.081 Cl
ATOM     15  C   UNL     1       2.839   6.634   1.267  0.00  0.00    +0.042 A 
ATOM     16  C   UNL     1       2.716   7.165   2.541  0.00  0.00    +0.044 A 
ATOM     17 CL   UNL     1       2.590   8.866   2.757  0.00  0.00    -0.083 Cl
ATOM     18  C   UNL     1       2.670   6.323   3.642  0.00  0.00    +0.042 A 
ATOM     19  C   UNL     1       2.738   4.930   3.475  0.00  0.00    +0.069 A 
ATOM     20 CL   UNL     1       2.329   4.038   4.906  0.00  0.00    -0.081 Cl
ENDBRANCH  10  12
BRANCH   1  22
ATOM     21  C   UNL     1       3.441  -0.083  -1.177  0.00  0.00    +0.010 C 
ATOM     22  C   UNL     1       2.418   0.114  -0.069  0.00  0.00    +0.055 C 
ENDBRANCH   1  22
BRANCH   6  23
ATOM     23  C   UNL     1       5.378   1.176   5.950  0.00  0.00    +0.109 C 
BRANCH  23  24
ATOM     24  C   UNL     1       6.825   1.582   6.008  0.00  0.00    -0.036 A 
ATOM     25  C   UNL     1       7.837   0.618   5.858  0.00  0.00    +0.008 A 
ATOM     26  C   UNL     1       9.178   1.001   5.823  0.00  0.00    +0.049 A 
ATOM     27  C   UNL     1       9.502   2.343   5.945  0.00  0.00    +0.158 A 
ATOM     28  C   UNL     1       8.513   3.302   6.139  0.00  0.00    +0.158 A 
ATOM     29  C   UNL     1       7.173   2.934   6.168  0.00  0.00    +0.053 A 
BRANCH  27  30
ATOM     30  O   UNL     1      10.811   2.721   5.858  0.00  0.00    -0.503 OA
ATOM     31  H   UNL     1      10.785   3.698   5.907  0.00  0.00    +0.292 HD
ENDBRANCH  27  30
BRANCH  28  32
ATOM     32  O   UNL     1       8.908   4.603   6.285  0.00  0.00    -0.503 OA
ATOM     33  H   UNL     1       8.123   5.133   6.508  0.00  0.00    +0.292 HD
ENDBRANCH  28  32
ENDBRANCH  23  24
ENDBRANCH   6  23
TORSDOF 6
