REMARK  Name = 
REMARK  10 active torsions:
REMARK  status: ('A' for Active; 'I' for Inactive)
REMARK    1  A    between atoms: N_4  and  O_5
REMARK    2  A    between atoms: O_5  and  C_6
REMARK    3  A    between atoms: C_6  and  C_7
REMARK    4  A    between atoms: C_7  and  N_8
REMARK    5  A    between atoms: C_9  and  C_11
REMARK    6  A    between atoms: C_11  and  C_12
REMARK    7  A    between atoms: C_17  and  N_18
REMARK    8  A    between atoms: N_18  and  C_19
REMARK    9  A    between atoms: C_19  and  C_20
REMARK   10  A    between atoms: C_20  and  C_23
REMARK                            x       y       z     vdW  Elec       q    Type
REMARK                         _______ _______ _______ _____ _____    ______ ____
ROOT
ATOM      1  C   UNL     1      10.513  -4.733   3.164  0.00  0.00    +0.017 A 
ATOM      2  C   UNL     1      11.218  -5.905   3.494  0.00  0.00    +0.149 A 
ATOM      3  F   UNL     1      10.519  -7.043   3.652  0.00  0.00    -0.203 F 
ATOM      4  C   UNL     1      12.627  -5.970   3.626  0.00  0.00    +0.063 A 
ATOM      5  C   UNL     1      13.329  -4.786   3.403  0.00  0.00    +0.027 A 
ATOM      6  C   UNL     1      12.654  -3.589   3.153  0.00  0.00    +0.022 A 
ATOM      7  C   UNL     1      11.260  -3.559   3.040  0.00  0.00    +0.047 A 
ATOM      8 CL   UNL     1      10.525  -2.020   2.784  0.00  0.00    -0.083 Cl
ENDROOT
BRANCH   4   9
ATOM      9  N   UNL     1      13.267  -7.208   3.803  0.00  0.00    -0.336 N 
ATOM     10  H   UNL     1      12.719  -7.879   4.343  0.00  0.00    +0.146 HD
BRANCH   9  11
ATOM     11  C   UNL     1      14.724  -7.245   4.094  0.00  0.00    +0.182 C 
BRANCH  11  12
ATOM     12  C   UNL     1      15.298  -8.647   4.441  0.00  0.00    +0.289 C 
ATOM     13  F   UNL     1      15.054  -9.502   3.405  0.00  0.00    -0.199 F 
ATOM     14  F   UNL     1      14.583  -9.148   5.495  0.00  0.00    -0.199 F 
BRANCH  12  15
ATOM     15  C   UNL     1      16.782  -8.537   4.758  0.00  0.00    +0.022 A 
ATOM     16  C   UNL     1      17.747  -8.662   3.742  0.00  0.00    +0.009 A 
ATOM     17  C   UNL     1      19.108  -8.512   4.030  0.00  0.00    +0.000 A 
ATOM     18  C   UNL     1      19.521  -8.236   5.331  0.00  0.00    +0.000 A 
ATOM     19  C   UNL     1      18.575  -8.112   6.348  0.00  0.00    +0.000 A 
ATOM     20  C   UNL     1      17.217  -8.261   6.064  0.00  0.00    +0.009 A 
ENDBRANCH  12  15
ENDBRANCH  11  12
ENDBRANCH   9  11
ENDBRANCH   4   9
BRANCH   1  21
ATOM     21  C   UNL     1       9.018  -4.795   2.944  0.00  0.00    +0.135 C 
BRANCH  21  24
ATOM     22  N   UNL     1       8.136  -6.014   1.007  0.00  0.00    -0.313 N 
ATOM     23  H   UNL     1       8.392  -6.855   1.509  0.00  0.00    +0.149 HD
ATOM     24  C   UNL     1       8.593  -4.800   1.472  0.00  0.00    +0.218 C 
ATOM     25  O   UNL     1       8.637  -3.798   0.762  0.00  0.00    -0.275 OA
BRANCH  22  26
ATOM     26  C   UNL     1       7.731  -6.219  -0.384  0.00  0.00    +0.136 C 
BRANCH  26  27
ATOM     27  C   UNL     1       8.894  -6.264  -1.387  0.00  0.00    +0.228 C 
BRANCH  27  28
ATOM     28  O   UNL     1       9.673  -7.462  -1.291  0.00  0.00    -0.217 OA
BRANCH  28  33
ATOM     29  N   UNL     1      11.306  -8.645   1.579  0.00  0.00    -0.287 N 
ATOM     30  H   UNL     1      11.148  -7.811   2.131  0.00  0.00    +0.255 HD
ATOM     31  H   UNL     1      11.222  -9.454   2.177  0.00  0.00    +0.255 HD
ATOM     32  C   UNL     1      10.555  -8.680   0.459  0.00  0.00    +0.404 C 
ATOM     33  N   UNL     1      10.364  -7.435  -0.072  0.00  0.00    -0.139 N 
ATOM     34  H   UNL     1      11.218  -6.886  -0.120  0.00  0.00    +0.299 HD
ATOM     35  N   UNL     1      10.064  -9.786   0.035  0.00  0.00    -0.128 NA
ATOM     36  H   UNL     1      10.411 -10.553   0.615  0.00  0.00    +0.306 HD
ENDBRANCH  28  33
ENDBRANCH  27  28
ENDBRANCH  26  27
ENDBRANCH  22  26
ENDBRANCH  21  24
ENDBRANCH   1  21
TORSDOF 10
