REMARK  Name = 
REMARK  7 active torsions:
REMARK  status: ('A' for Active; 'I' for Inactive)
REMARK    1  A    between atoms: O_1  and  C_2
REMARK    2  A    between atoms: C_2  and  C_4
REMARK    3  A    between atoms: C_4  and  C_5
REMARK    4  A    between atoms: C_5  and  N_6
REMARK    5  A    between atoms: C_7  and  C_9
REMARK    6  A    between atoms: C_10  and  O_11
REMARK    7  A    between atoms: C_15  and  C_17
REMARK                            x       y       z     vdW  Elec       q    Type
REMARK                         _______ _______ _______ _____ _____    ______ ____
ROOT
ATOM      1  C   UNL     1       7.667   0.420   3.495  0.00  0.00    +0.080 A 
ATOM      2  C   UNL     1       8.186  -0.681   4.198  0.00  0.00    +0.025 A 
ATOM      3  C   UNL     1       8.813  -0.541   5.449  0.00  0.00    -0.013 A 
ATOM      4  C   UNL     1       8.946   0.767   5.949  0.00  0.00    +0.026 A 
ATOM      5  C   UNL     1       8.485   1.882   5.230  0.00  0.00    +0.056 A 
ATOM      6  I   UNL     1       8.800   3.779   6.066  0.00  0.00    -0.040 I 
ATOM      7  C   UNL     1       7.845   1.714   4.001  0.00  0.00    +0.142 A 
ENDROOT
BRANCH   3   8
ATOM      8  C   UNL     1       9.308  -1.723   6.200  0.00  0.00    +0.018 A 
ATOM      9  C   UNL     1      10.454  -1.644   7.018  0.00  0.00    +0.014 A 
ATOM     10  C   UNL     1      10.915  -2.754   7.735  0.00  0.00    +0.039 A 
ATOM     11  C   UNL     1      10.246  -3.966   7.635  0.00  0.00    +0.126 A 
ATOM     12  F   UNL     1      10.695  -5.027   8.318  0.00  0.00    -0.205 F 
ATOM     13  C   UNL     1       9.123  -4.090   6.838  0.00  0.00    +0.077 A 
ATOM     14  C   UNL     1       8.662  -2.977   6.139  0.00  0.00    +0.134 A 
ATOM     15  F   UNL     1       7.555  -3.138   5.398  0.00  0.00    -0.205 F 
ENDBRANCH   3   8
BRANCH   1  18
ATOM     16  N   UNL     1       6.308  -1.003   2.050  0.00  0.00    -0.311 N 
ATOM     17  H   UNL     1       6.134  -1.566   2.882  0.00  0.00    +0.149 HD
ATOM     18  C   UNL     1       6.943   0.210   2.212  0.00  0.00    +0.248 C 
ATOM     19  O   UNL     1       6.888   1.121   1.391  0.00  0.00    -0.270 OA
BRANCH  16  20
ATOM     20  C   UNL     1       5.484  -1.252   0.883  0.00  0.00    +0.115 C 
BRANCH  20  21
ATOM     21  C   UNL     1       4.818  -2.616   0.911  0.00  0.00    +0.139 C 
BRANCH  21  22
ATOM     22  C   UNL     1       3.829  -2.680   2.040  0.00  0.00    +0.306 C 
ATOM     23  O   UNL     1       4.136  -2.996   3.181  0.00  0.00    -0.251 OA
BRANCH  22  24
ATOM     24  O   UNL     1       2.578  -2.298   1.705  0.00  0.00    -0.481 OA
ATOM     25  H   UNL     1       2.465  -2.025   0.775  0.00  0.00    +0.295 HD
ENDBRANCH  22  24
ENDBRANCH  21  22
ENDBRANCH  20  21
ENDBRANCH  16  20
ENDBRANCH   1  18
BRANCH   7  26
ATOM     26  O   UNL     1       7.398   2.819   3.322  0.00  0.00    -0.505 OA
ATOM     27  H   UNL     1       7.114   2.542   2.422  0.00  0.00    +0.292 HD
ENDBRANCH   7  26
TORSDOF 7
