REMARK  Name = 
REMARK  4 active torsions:
REMARK  status: ('A' for Active; 'I' for Inactive)
REMARK    1  A    between atoms: C_1  and  C_2
REMARK    2  A    between atoms: C_2  and  C_3
REMARK    3  A    between atoms: C_8  and  N_9
REMARK    4  A    between atoms: C_10  and  C_11
REMARK                            x       y       z     vdW  Elec       q    Type
REMARK                         _______ _______ _______ _____ _____    ______ ____
ROOT
ATOM      1  C   UNL     1       3.009  -1.292  -0.504  0.00  0.00    +0.056 A 
ATOM      2  C   UNL     1       2.492  -2.445   0.109  0.00  0.00    +0.043 A 
ATOM      3  C   UNL     1       2.961  -3.621  -0.511  0.00  0.00    +0.129 A 
ATOM      4  N   UNL     1       3.870  -3.667  -1.501  0.00  0.00    -0.199 NA
ATOM      5  C   UNL     1       4.333  -2.514  -1.945  0.00  0.00    +0.214 A 
ATOM      6  N   UNL     1       5.257  -2.537  -2.970  0.00  0.00    -0.327 N 
ATOM      7  H   UNL     1       5.176  -3.402  -3.483  0.00  0.00    +0.145 HD
ATOM      8  H   UNL     1       5.204  -1.675  -3.494  0.00  0.00    +0.145 HD
ATOM      9  N   UNL     1       3.914  -1.327  -1.522  0.00  0.00    -0.219 NA
ENDROOT
BRANCH   2  10
ATOM     10  C   UNL     1       1.532  -2.490   1.272  0.00  0.00    -0.013 A 
ATOM     11  C   UNL     1       0.490  -1.566   1.472  0.00  0.00    +0.008 A 
ATOM     12  C   UNL     1      -0.448  -1.689   2.508  0.00  0.00    +0.001 A 
ATOM     13  C   UNL     1      -0.395  -2.769   3.375  0.00  0.00    +0.000 A 
ATOM     14  C   UNL     1       0.635  -3.687   3.241  0.00  0.00    +0.001 A 
ATOM     15  C   UNL     1       1.596  -3.526   2.232  0.00  0.00    +0.008 A 
ENDBRANCH   2  10
BRANCH   3  16
ATOM     16  N   UNL     1       2.507  -4.897  -0.163  0.00  0.00    -0.343 N 
ATOM     17  H   UNL     1       1.495  -4.950  -0.216  0.00  0.00    +0.144 HD
ATOM     18  H   UNL     1       2.961  -5.551  -0.796  0.00  0.00    +0.144 HD
ENDBRANCH   3  16
BRANCH   1  20
ATOM     19  C   UNL     1       1.446   0.573  -1.085  0.00  0.00    +0.010 C 
ATOM     20  C   UNL     1       2.595   0.121  -0.185  0.00  0.00    +0.053 C 
ENDBRANCH   1  20
TORSDOF 3
