REMARK  Name = 
REMARK  11 active torsions:
REMARK  status: ('A' for Active; 'I' for Inactive)
REMARK    1  A    between atoms: C_2  and  C_3
REMARK    2  A    between atoms: C_3  and  O_4
REMARK    3  A    between atoms: N_7  and  O_8
REMARK    4  A    between atoms: O_8  and  C_9
REMARK    5  A    between atoms: N_11  and  C_12
REMARK    6  A    between atoms: C_18  and  N_20
REMARK    7  A    between atoms: C_21  and  C_23
REMARK    8  A    between atoms: C_23  and  C_24
REMARK    9  A    between atoms: C_24  and  C_25
REMARK   10  A    between atoms: C_26  and  O_28
REMARK   11  A    between atoms: C_29  and  O_31
REMARK                            x       y       z     vdW  Elec       q    Type
REMARK                         _______ _______ _______ _____ _____    ______ ____
ROOT
ATOM      1  C   UNL     1       1.960  -0.026   0.095  0.00  0.00    +0.231 C 
ATOM      2  C   UNL     1       2.477   1.052  -0.870  0.00  0.00    +0.188 C 
ATOM      3  C   UNL     1       2.151   0.683  -2.326  0.00  0.00    +0.176 C 
ATOM      4  C   UNL     1       2.723  -0.709  -2.663  0.00  0.00    +0.193 C 
ATOM      5  C   UNL     1       2.178  -1.689  -1.631  0.00  0.00    +0.251 C 
ATOM      6  N   UNL     1       1.641  -2.798  -2.016  0.00  0.00    -0.037 NA
ATOM      7  O   UNL     1       2.337  -1.366  -0.329  0.00  0.00    -0.468 OA
ENDROOT
BRANCH   4   8
ATOM      8  N   UNL     1       4.197  -0.734  -2.708  0.00  0.00    -0.302 N 
ATOM      9  H   UNL     1       4.667  -1.582  -2.406  0.00  0.00    +0.150 HD
ATOM     10  C   UNL     1       4.852   0.027  -3.664  0.00  0.00    +0.214 C 
ATOM     11  O   UNL     1       4.250   0.687  -4.504  0.00  0.00    -0.276 OA
BRANCH  10  12
ATOM     12  C   UNL     1       6.366  -0.003  -3.570  0.00  0.00    +0.095 C 
BRANCH  12  13
ATOM     13  C   UNL     1       6.954   1.344  -4.004  0.00  0.00    +0.006 C 
ATOM     14  C   UNL     1       8.473   1.363  -3.941  0.00  0.00    +0.004 C 
ENDBRANCH  12  13
ENDBRANCH  10  12
ENDBRANCH   4   8
BRANCH   2  15
ATOM     15  O   UNL     1       3.891   1.209  -0.674  0.00  0.00    -0.385 OA
ATOM     16  H   UNL     1       4.329   0.408  -1.016  0.00  0.00    +0.210 HD
ENDBRANCH   2  15
BRANCH   3  17
ATOM     17  O   UNL     1       0.732   0.739  -2.522  0.00  0.00    -0.387 OA
ATOM     18  H   UNL     1       0.472   0.099  -3.210  0.00  0.00    +0.210 HD
ENDBRANCH   3  17
BRANCH   1  19
ATOM     19  C   UNL     1       0.435   0.037   0.302  0.00  0.00    +0.203 C 
BRANCH  19  20
ATOM     20  O   UNL     1       0.036  -0.814   1.379  0.00  0.00    -0.391 OA
ATOM     21  H   UNL     1       0.400  -0.441   2.198  0.00  0.00    +0.210 HD
ENDBRANCH  19  20
ENDBRANCH   1  19
BRANCH   6  22
ATOM     22  O   UNL     1       1.138  -3.558  -0.932  0.00  0.00    -0.296 OA
BRANCH  22  23
ATOM     23  C   UNL     1       0.575  -4.720  -1.424  0.00  0.00    +0.430 C 
ATOM     24  N   UNL     1       0.161  -5.529  -0.387  0.00  0.00    -0.249 N 
ATOM     25  H   UNL     1       0.174  -5.097   0.527  0.00  0.00    +0.158 HD
ATOM     26  O   UNL     1       0.478  -4.977  -2.620  0.00  0.00    -0.224 OA
BRANCH  24  27
ATOM     27  C   UNL     1      -0.209  -6.889  -0.477  0.00  0.00    +0.037 A 
ATOM     28  C   UNL     1      -0.656  -7.537   0.682  0.00  0.00    +0.023 A 
ATOM     29  C   UNL     1      -0.958  -8.903   0.666  0.00  0.00    +0.002 A 
ATOM     30  C   UNL     1      -0.814  -9.640  -0.510  0.00  0.00    +0.000 A 
ATOM     31  C   UNL     1      -0.383  -9.003  -1.669  0.00  0.00    +0.002 A 
ATOM     32  C   UNL     1      -0.088  -7.639  -1.653  0.00  0.00    +0.023 A 
ENDBRANCH  24  27
ENDBRANCH  22  23
ENDBRANCH   6  22
TORSDOF 10
