REMARK  Name = 
REMARK  7 active torsions:
REMARK  status: ('A' for Active; 'I' for Inactive)
REMARK    1  A    between atoms: O_1  and  C_2
REMARK    2  A    between atoms: C_2  and  C_4
REMARK    3  A    between atoms: N_6  and  C_7
REMARK    4  A    between atoms: N_6  and  C_16
REMARK    5  A    between atoms: C_12  and  C_13
REMARK    6  A    between atoms: C_13  and  O_14
REMARK    7  A    between atoms: C_23  and  O_24
REMARK                            x       y       z     vdW  Elec       q    Type
REMARK                         _______ _______ _______ _____ _____    ______ ____
ROOT
ATOM      1  C   UNL     1       3.123  -0.930   0.729  0.00  0.00    +0.332 C 
ATOM      2  N   UNL     1       4.489  -0.797   1.006  0.00  0.00    -0.230 N 
ATOM      3  O   UNL     1       2.550  -0.595  -0.302  0.00  0.00    -0.262 OA
ENDROOT
BRANCH   2   4
ATOM      4  C   UNL     1       5.165  -1.672   1.917  0.00  0.00    +0.050 A 
ATOM      5  C   UNL     1       5.986  -1.157   2.965  0.00  0.00    +0.007 A 
ATOM      6  C   UNL     1       6.623  -2.069   3.841  0.00  0.00    -0.016 A 
ATOM      7  C   UNL     1       7.416  -1.593   4.902  0.00  0.00    +0.012 A 
ATOM      8  C   UNL     1       7.587  -0.226   5.124  0.00  0.00    +0.046 A 
ATOM      9  C   UNL     1       6.954   0.670   4.285  0.00  0.00    +0.118 A 
ATOM     10  C   UNL     1       6.443  -3.448   3.660  0.00  0.00    +0.008 A 
ATOM     11  C   UNL     1       5.631  -3.940   2.640  0.00  0.00    +0.002 A 
ATOM     12  C   UNL     1       6.154   0.217   3.244  0.00  0.00    +0.055 A 
ATOM     13  C   UNL     1       4.991  -3.058   1.775  0.00  0.00    +0.024 A 
BRANCH   9  14
ATOM     14  O   UNL     1       7.074   2.019   4.441  0.00  0.00    -0.507 OA
ATOM     15  H   UNL     1       7.581   2.194   5.251  0.00  0.00    +0.292 HD
ENDBRANCH   9  14
ENDBRANCH   2   4
BRANCH   2  16
ATOM     16  C   UNL     1       5.312  -0.075   0.088  0.00  0.00    +0.056 A 
ATOM     17  C   UNL     1       5.257   1.336  -0.015  0.00  0.00    +0.081 A 
ATOM     18  C   UNL     1       6.133   1.996  -0.899  0.00  0.00    +0.017 A 
ATOM     19  C   UNL     1       7.049   1.274  -1.666  0.00  0.00    +0.001 A 
ATOM     20  C   UNL     1       7.081  -0.114  -1.588  0.00  0.00    +0.002 A 
ATOM     21  C   UNL     1       6.221  -0.785  -0.718  0.00  0.00    +0.025 A 
BRANCH  17  22
ATOM     22  C   UNL     1       4.357   2.140   0.877  0.00  0.00    +0.339 C 
ATOM     23  O   UNL     1       3.311   1.742   1.360  0.00  0.00    -0.245 OA
BRANCH  22  24
ATOM     24  O   UNL     1       4.873   3.346   1.218  0.00  0.00    -0.477 OA
ATOM     25  H   UNL     1       5.829   3.459   1.061  0.00  0.00    +0.295 HD
ENDBRANCH  22  24
ENDBRANCH  17  22
ENDBRANCH   2  16
BRANCH   1  26
ATOM     26  C   UNL     1       2.275  -1.371   1.937  0.00  0.00    +0.393 C 
ATOM     27  O   UNL     1       1.929  -2.523   2.123  0.00  0.00    -0.240 OA
BRANCH  26  28
ATOM     28  O   UNL     1       1.994  -0.326   2.741  0.00  0.00    -0.474 OA
ATOM     29  H   UNL     1       2.330   0.526   2.359  0.00  0.00    +0.296 HD
ENDBRANCH  26  28
ENDBRANCH   1  26
TORSDOF 7
