REMARK  Name = 
REMARK  8 active torsions:
REMARK  status: ('A' for Active; 'I' for Inactive)
REMARK    1  A    between atoms: C_1  and  O_2
REMARK    2  A    between atoms: O_2  and  C_3
REMARK    3  A    between atoms: C_4  and  N_5
REMARK    4  A    between atoms: N_14  and  C_15
REMARK    5  A    between atoms: C_21  and  C_22
REMARK    6  A    between atoms: C_28  and  C_29
REMARK    7  A    between atoms: C_29  and  S_30
REMARK    8  A    between atoms: S_30  and  C_31
REMARK                            x       y       z     vdW  Elec       q    Type
REMARK                         _______ _______ _______ _____ _____    ______ ____
ROOT
ATOM      1  N   UNL     1       3.691   2.252  -1.518  0.00  0.00    -0.281 N 
ATOM      2  H   UNL     1       3.691   1.400  -2.061  0.00  0.00    +0.155 HD
ATOM      3  C   UNL     1       3.926   3.373  -2.311  0.00  0.00    +0.223 A 
ATOM      4  N   UNL     1       4.335   3.123  -3.572  0.00  0.00    -0.198 NA
ATOM      5  C   UNL     1       4.516   4.140  -4.469  0.00  0.00    +0.137 A 
ATOM      6  N   UNL     1       5.031   3.874  -5.753  0.00  0.00    -0.298 N 
ATOM      7  H   UNL     1       4.423   4.214  -6.504  0.00  0.00    +0.154 HD
ATOM      8  C   UNL     1       4.210   5.437  -4.039  0.00  0.00    +0.059 A 
ATOM      9  C   UNL     1       4.247   6.754  -4.583  0.00  0.00    +0.032 A 
ATOM     10  C   UNL     1       3.840   7.629  -3.595  0.00  0.00    +0.085 A 
ATOM     11  N   UNL     1       3.576   6.891  -2.470  0.00  0.00    -0.346 N 
ATOM     12  H   UNL     1       3.259   7.244  -1.578  0.00  0.00    +0.167 HD
ATOM     13  C   UNL     1       3.816   5.568  -2.719  0.00  0.00    +0.145 A 
ATOM     14  N   UNL     1       3.683   4.595  -1.812  0.00  0.00    -0.196 NA
ENDROOT
BRANCH   6  15
ATOM     15  C   UNL     1       5.815   2.748  -6.104  0.00  0.00    +0.047 A 
ATOM     16  C   UNL     1       5.654   2.028  -7.309  0.00  0.00    +0.093 A 
ATOM     17  C   UNL     1       6.439   0.879  -7.512  0.00  0.00    +0.137 A 
ATOM     18  F   UNL     1       6.313   0.138  -8.626  0.00  0.00    -0.205 F 
ATOM     19  C   UNL     1       7.376   0.450  -6.574  0.00  0.00    +0.039 A 
ATOM     20  C   UNL     1       7.570   1.179  -5.413  0.00  0.00    +0.005 A 
ATOM     21  C   UNL     1       6.799   2.317  -5.188  0.00  0.00    +0.024 A 
BRANCH  16  22
ATOM     22  C   UNL     1       4.676   2.473  -8.341  0.00  0.00    +0.246 C 
ATOM     23  O   UNL     1       4.032   3.511  -8.211  0.00  0.00    -0.270 OA
ATOM     24  N   UNL     1       4.512   1.703  -9.460  0.00  0.00    -0.325 N 
ATOM     25  H   UNL     1       3.858   2.006 -10.168  0.00  0.00    +0.145 HD
ATOM     26  H   UNL     1       5.033   0.848  -9.623  0.00  0.00    +0.145 HD
ENDBRANCH  16  22
ENDBRANCH   6  15
BRANCH   1  32
ATOM     27  C   UNL     1       2.916   1.122   0.509  0.00  0.00    +0.142 A 
ATOM     28  C   UNL     1       2.991   0.931   1.898  0.00  0.00    +0.052 A 
ATOM     29  C   UNL     1       3.870   1.682   2.691  0.00  0.00    -0.023 A 
ATOM     30  C   UNL     1       4.643   2.668   2.065  0.00  0.00    +0.007 A 
ATOM     31  C   UNL     1       4.567   2.867   0.683  0.00  0.00    +0.027 A 
ATOM     32  C   UNL     1       3.740   2.075  -0.124  0.00  0.00    +0.076 A 
BRANCH  27  34
ATOM     33  C   UNL     1       0.848  -0.006   0.321  0.00  0.00    +0.277 C 
ATOM     34  O   UNL     1       2.066   0.398  -0.298  0.00  0.00    -0.493 OA
ENDBRANCH  27  34
BRANCH  29  35
ATOM     35  C   UNL     1       3.925   1.514   4.187  0.00  0.00    +0.200 C 
BRANCH  35  36
ATOM     36  S   UNL     1       4.446  -0.122   4.690  0.00  0.00    -0.030 S 
ATOM     37  O   UNL     1       3.506  -1.111   4.195  0.00  0.00    -0.174 OA
ATOM     38  O   UNL     1       4.731  -0.057   6.113  0.00  0.00    -0.174 OA
ATOM     39  C   UNL     1       6.004  -0.388   3.873  0.00  0.00    +0.194 C 
ENDBRANCH  35  36
ENDBRANCH  29  35
ENDBRANCH   1  32
TORSDOF 6
