REMARK  Name = 
REMARK  11 active torsions:
REMARK  status: ('A' for Active; 'I' for Inactive)
REMARK    1  A    between atoms: CA_2  and  C_3
REMARK    2  A    between atoms: CA_2  and  C_5
REMARK    3  A    between atoms: CA_2  and  N_7
REMARK    4  A    between atoms: C_3  and  C_4
REMARK    5  A    between atoms: C_5  and  O_6
REMARK    6  A    between atoms: C_8  and  C_10
REMARK    7  A    between atoms: C_10  and  C_11
REMARK    8  A    between atoms: C_12  and  C_13
REMARK    9  A    between atoms: C_15  and  C_17
REMARK   10  A    between atoms: C_27  and  O_28
REMARK   11  A    between atoms: O_28  and  C_29
REMARK                            x       y       z     vdW  Elec       q    Type
REMARK                         _______ _______ _______ _____ _____    ______ ____
ROOT
ATOM      1  C   UNL     1       5.902  -2.978  -0.853  0.00  0.00    -0.010 A 
ATOM      2  C   UNL     1       6.767  -2.749  -1.963  0.00  0.00    +0.008 A 
ATOM      3  C   UNL     1       6.538  -2.393  -3.313  0.00  0.00    +0.056 A 
ATOM      4  C   UNL     1       7.605  -2.234  -4.205  0.00  0.00    +0.121 A 
ATOM      5  C   UNL     1       8.898  -2.482  -3.769  0.00  0.00    +0.048 A 
ATOM      6  C   UNL     1       9.146  -2.883  -2.452  0.00  0.00    +0.030 A 
ATOM      7  C   UNL     1       8.079  -2.959  -1.533  0.00  0.00    +0.057 A 
ATOM      8  N   UNL     1       8.043  -3.240  -0.159  0.00  0.00    -0.280 N 
ATOM      9  C   UNL     1       9.167  -3.390   0.706  0.00  0.00    +0.263 C 
ATOM     10  O   UNL     1       9.020  -4.040   1.740  0.00  0.00    -0.267 OA
ATOM     11  C   UNL     1       6.701  -3.321   0.229  0.00  0.00    +0.028 A 
ATOM     12  C   UNL     1       6.299  -3.643   1.633  0.00  0.00    +0.064 C 
ENDROOT
BRANCH   9  13
ATOM     13  C   UNL     1      10.504  -2.804   0.458  0.00  0.00    +0.040 A 
ATOM     14  C   UNL     1      11.646  -3.557   0.754  0.00  0.00    +0.015 A 
ATOM     15  C   UNL     1      12.908  -3.057   0.426  0.00  0.00    +0.021 A 
ATOM     16  C   UNL     1      13.023  -1.808  -0.186  0.00  0.00    +0.041 A 
ATOM     17 CL   UNL     1      14.568  -1.232  -0.673  0.00  0.00    -0.084 Cl
ATOM     18  C   UNL     1      11.891  -1.028  -0.422  0.00  0.00    +0.021 A 
ATOM     19  C   UNL     1      10.631  -1.513  -0.072  0.00  0.00    +0.015 A 
ENDBRANCH   9  13
BRANCH   4  20
ATOM     20  O   UNL     1       7.247  -1.851  -5.469  0.00  0.00    -0.495 OA
ATOM     21  C   UNL     1       8.302  -1.657  -6.405  0.00  0.00    +0.277 C 
ENDBRANCH   4  20
BRANCH   1  22
ATOM     22  C   UNL     1       4.409  -2.846  -0.880  0.00  0.00    +0.133 C 
BRANCH  22  25
ATOM     23  N   UNL     1       3.416  -4.945  -0.155  0.00  0.00    -0.310 N 
ATOM     24  H   UNL     1       3.670  -4.627   0.769  0.00  0.00    +0.149 HD
ATOM     25  C   UNL     1       3.735  -4.156  -1.240  0.00  0.00    +0.218 C 
ATOM     26  O   UNL     1       3.499  -4.479  -2.400  0.00  0.00    -0.275 OA
BRANCH  23  27
ATOM     27  CA  UNL     1       2.720  -6.226  -0.247  0.00  0.00    +0.098 C 
BRANCH  27  28
ATOM     28  C   UNL     1       1.295  -6.094  -0.799  0.00  0.00    +0.021 C 
ATOM     29  C   UNL     1       0.443  -5.107  -0.010  0.00  0.00    +0.006 C 
ENDBRANCH  27  28
BRANCH  27  30
ATOM     30  C   UNL     1       3.534  -7.275  -1.030  0.00  0.00    +0.178 C 
BRANCH  30  31
ATOM     31  O   UNL     1       4.815  -7.455  -0.423  0.00  0.00    -0.393 OA
ATOM     32  H   UNL     1       5.297  -6.622  -0.576  0.00  0.00    +0.209 HD
ENDBRANCH  30  31
ENDBRANCH  27  30
ENDBRANCH  23  27
ENDBRANCH  22  25
ENDBRANCH   1  22
TORSDOF 8
