REMARK  Name = 
REMARK  5 active torsions:
REMARK  status: ('A' for Active; 'I' for Inactive)
REMARK    1  A    between atoms: C_2  and  O_3
REMARK    2  A    between atoms: C_2  and  C_4
REMARK    3  A    between atoms: C_2  and  C_14
REMARK    4  A    between atoms: C_4  and  C_5
REMARK    5  A    between atoms: C_14  and  O_15
REMARK                            x       y       z     vdW  Elec       q    Type
REMARK                         _______ _______ _______ _____ _____    ______ ____
ROOT
ATOM      1  C   UNL     1       2.103   2.412  -0.664  0.00  0.00    -0.019 A 
ATOM      2  C   UNL     1       2.356   3.825  -0.584  0.00  0.00    +0.003 A 
ATOM      3  C   UNL     1       2.947   4.665   0.385  0.00  0.00    +0.010 A 
ATOM      4  C   UNL     1       3.042   6.041   0.143  0.00  0.00    +0.001 A 
ATOM      5  C   UNL     1       2.559   6.588  -1.042  0.00  0.00    +0.002 A 
ATOM      6  C   UNL     1       1.965   5.782  -2.016  0.00  0.00    +0.026 A 
ATOM      7  C   UNL     1       1.877   4.408  -1.759  0.00  0.00    +0.047 A 
ATOM      8  N   UNL     1       1.349   3.399  -2.523  0.00  0.00    -0.360 N 
ATOM      9  H   UNL     1       0.926   3.532  -3.431  0.00  0.00    +0.165 HD
ATOM     10  C   UNL     1       1.471   2.200  -1.875  0.00  0.00    +0.087 A 
ENDROOT
BRANCH   1  11
ATOM     11  C   UNL     1       2.439   1.399   0.397  0.00  0.00    +0.080 C 
BRANCH  11  12
ATOM     12  C   UNL     1       2.820   0.012  -0.132  0.00  0.00    +0.227 C 
BRANCH  12  13
ATOM     13  O   UNL     1       1.717  -0.667  -0.776  0.00  0.00    -0.380 OA
ATOM     14  H   UNL     1       0.896  -0.256  -0.442  0.00  0.00    +0.211 HD
ENDBRANCH  12  13
BRANCH  12  15
ATOM     15  C   UNL     1       3.255  -0.895   1.021  0.00  0.00    +0.334 C 
ATOM     16  O   UNL     1       3.857  -0.543   2.022  0.00  0.00    -0.248 OA
BRANCH  15  17
ATOM     17  O   UNL     1       2.894  -2.186   0.791  0.00  0.00    -0.479 OA
ATOM     18  H   UNL     1       2.389  -2.207  -0.058  0.00  0.00    +0.295 HD
ENDBRANCH  15  17
ENDBRANCH  12  15
ENDBRANCH  11  12
ENDBRANCH   1  11
TORSDOF 5
