REMARK  Name = 
REMARK  7 active torsions:
REMARK  status: ('A' for Active; 'I' for Inactive)
REMARK    1  A    between atoms: C_1  and  N_2
REMARK    2  A    between atoms: C_3  and  C_4
REMARK    3  A    between atoms: C_4  and  C_5
REMARK    4  A    between atoms: C_8  and  C_11
REMARK    5  A    between atoms: C_19  and  N_20
REMARK    6  A    between atoms: N_20  and  S_21
REMARK    7  A    between atoms: S_21  and  C_24
REMARK                            x       y       z     vdW  Elec       q    Type
REMARK                         _______ _______ _______ _____ _____    ______ ____
ROOT
ATOM      1  C   UNL     1       1.064  -0.162  -0.754  0.00  0.00    +0.150 C 
ATOM      2  N   UNL     1       2.438  -0.087  -0.317  0.00  0.00    -0.330 N 
ATOM      3  C   UNL     1       3.242  -1.191  -0.132  0.00  0.00    +0.069 A 
ATOM      4  C   UNL     1       2.982  -2.567  -0.113  0.00  0.00    +0.030 A 
ATOM      5  C   UNL     1       4.085  -3.419  -0.002  0.00  0.00    +0.026 A 
ATOM      6  C   UNL     1       5.380  -2.910   0.087  0.00  0.00    +0.050 A 
ATOM      7  C   UNL     1       5.615  -1.530   0.135  0.00  0.00    +0.054 A 
ATOM      8  C   UNL     1       4.517  -0.662   0.024  0.00  0.00    +0.091 A 
ATOM      9  N   UNL     1       4.469   0.712   0.051  0.00  0.00    -0.232 NA
ATOM     10  C   UNL     1       3.194   1.041  -0.080  0.00  0.00    +0.115 A 
ENDROOT
BRANCH   6  11
ATOM     11  N   UNL     1       6.478  -3.808   0.144  0.00  0.00    -0.216 N 
ATOM     12  H   UNL     1       6.539  -4.540  -0.561  0.00  0.00    +0.174 HD
BRANCH  11  13
ATOM     13  S   UNL     1       7.131  -4.269   1.629  0.00  0.00    +0.072 S 
ATOM     14  O   UNL     1       7.452  -3.095   2.405  0.00  0.00    -0.150 OA
ATOM     15  O   UNL     1       8.138  -5.266   1.327  0.00  0.00    -0.150 OA
BRANCH  13  16
ATOM     16  C   UNL     1       5.784  -5.113   2.440  0.00  0.00    +0.108 A 
ATOM     17  C   UNL     1       4.889  -4.388   3.232  0.00  0.00    +0.029 A 
ATOM     18  C   UNL     1       3.853  -5.054   3.889  0.00  0.00    +0.002 A 
ATOM     19  C   UNL     1       3.724  -6.439   3.767  0.00  0.00    +0.000 A 
ATOM     20  C   UNL     1       4.635  -7.163   2.997  0.00  0.00    +0.002 A 
ATOM     21  C   UNL     1       5.672  -6.505   2.335  0.00  0.00    +0.029 A 
ENDBRANCH  13  16
ENDBRANCH  11  13
ENDBRANCH   6  11
BRANCH  10  22
ATOM     22  C   UNL     1       2.644   2.435   0.083  0.00  0.00    +0.109 C 
BRANCH  22  23
ATOM     23  C   UNL     1       2.440   3.224  -1.195  0.00  0.00    -0.040 A 
ATOM     24  C   UNL     1       3.299   3.106  -2.297  0.00  0.00    +0.005 A 
ATOM     25  C   UNL     1       2.985   3.725  -3.512  0.00  0.00    +0.016 A 
ATOM     26  C   UNL     1       1.817   4.485  -3.627  0.00  0.00    +0.065 A 
ATOM     27  C   UNL     1       1.048   4.744  -2.490  0.00  0.00    +0.016 A 
ATOM     28  C   UNL     1       1.365   4.125  -1.279  0.00  0.00    +0.005 A 
BRANCH  26  29
ATOM     29  C   UNL     1       1.346   4.933  -4.966  0.00  0.00    +0.308 C 
ATOM     30  N   UNL     1       0.087   5.038  -5.259  0.00  0.00    -0.099 NA
ATOM     31  H   UNL     1      -0.502   4.737  -4.481  0.00  0.00    +0.363 HD
ATOM     32  N   UNL     1       2.225   5.217  -5.966  0.00  0.00    -0.247 N 
ATOM     33  H   UNL     1       1.746   5.651  -6.750  0.00  0.00    +0.288 HD
ATOM     34  H   UNL     1       3.065   5.713  -5.696  0.00  0.00    +0.288 HD
ENDBRANCH  26  29
ENDBRANCH  22  23
ENDBRANCH  10  22
TORSDOF 6
