REMARK  Name = 
REMARK  7 active torsions:
REMARK  status: ('A' for Active; 'I' for Inactive)
REMARK    1  A    between atoms: C_2  and  N_3
REMARK    2  A    between atoms: C_2  and  C_15
REMARK    3  A    between atoms: C_2  and  C_21
REMARK    4  A    between atoms: N_3  and  S_4
REMARK    5  A    between atoms: S_4  and  C_7
REMARK    6  A    between atoms: C_9  and  C_10
REMARK    7  A    between atoms: N_23  and  O_24
REMARK                            x       y       z     vdW  Elec       q    Type
REMARK                         _______ _______ _______ _____ _____    ______ ____
ROOT
ATOM      1  C   UNL     1       2.187   0.099   0.125  0.00  0.00    +0.167 C 
ENDROOT
BRANCH   1   2
ATOM      2  C   UNL     1       2.625   0.086  -1.370  0.00  0.00    +0.021 C 
ATOM      3  C   UNL     1       1.975  -1.039  -2.194  0.00  0.00    +0.033 C 
ATOM      4  C   UNL     1       2.671  -2.379  -1.995  0.00  0.00    +0.160 C 
ATOM      5  O   UNL     1       4.056  -2.283  -2.315  0.00  0.00    -0.380 OA
ATOM      6  C   UNL     1       4.766  -1.333  -1.527  0.00  0.00    +0.160 C 
ATOM      7  C   UNL     1       4.146   0.057  -1.629  0.00  0.00    +0.033 C 
ENDBRANCH   1   2
BRANCH   1   8
ATOM      8  C   UNL     1       2.741   1.357   0.807  0.00  0.00    +0.254 C 
ATOM      9  N   UNL     1       1.932   2.465   0.737  0.00  0.00    -0.196 N 
ATOM     10  H   UNL     1       0.967   2.473   0.426  0.00  0.00    +0.182 HD
ATOM     11  O   UNL     1       3.851   1.382   1.347  0.00  0.00    -0.272 OA
BRANCH   9  12
ATOM     12  O   UNL     1       2.372   3.591   1.467  0.00  0.00    -0.295 OA
ATOM     13  H   UNL     1       3.154   3.242   1.951  0.00  0.00    +0.241 HD
ENDBRANCH   9  12
ENDBRANCH   1   8
BRANCH   1  14
ATOM     14  N   UNL     1       2.625  -1.111   0.853  0.00  0.00    -0.178 NA
ATOM     15  H   UNL     1       3.635  -1.252   0.883  0.00  0.00    +0.149 HD
BRANCH  14  16
ATOM     16  S   UNL     1       2.095  -1.358   2.437  0.00  0.00    +0.059 S 
ATOM     17  O   UNL     1       1.880  -0.066   3.054  0.00  0.00    -0.153 OA
ATOM     18  O   UNL     1       2.978  -2.354   3.001  0.00  0.00    -0.153 OA
BRANCH  16  19
ATOM     19  C   UNL     1       0.517  -2.125   2.216  0.00  0.00    +0.106 A 
ATOM     20  C   UNL     1       0.421  -3.354   1.559  0.00  0.00    +0.031 A 
ATOM     21  C   UNL     1      -0.832  -3.950   1.423  0.00  0.00    +0.040 A 
ATOM     22  C   UNL     1      -1.962  -3.319   1.946  0.00  0.00    +0.126 A 
ATOM     23  F   UNL     1      -3.156  -3.912   1.809  0.00  0.00    -0.205 F 
ATOM     24  C   UNL     1      -1.871  -2.095   2.616  0.00  0.00    -0.013 A 
ATOM     25  C   UNL     1      -3.088  -1.453   3.206  0.00  0.00    +0.047 C 
ATOM     26  C   UNL     1      -0.615  -1.498   2.750  0.00  0.00    +0.034 A 
ENDBRANCH  16  19
ENDBRANCH  14  16
ENDBRANCH   1  14
TORSDOF 6
