REMARK  Name = 
REMARK  16 active torsions:
REMARK  status: ('A' for Active; 'I' for Inactive)
REMARK    1  A    between atoms: C_2  and  N_3
REMARK    2  A    between atoms: C_2  and  C_4
REMARK    3  A    between atoms: C_2  and  C_11
REMARK    4  A    between atoms: C_4  and  C_5
REMARK    5  A    between atoms: N_13  and  C_14
REMARK    6  A    between atoms: C_14  and  C_15
REMARK    7  A    between atoms: C_15  and  O_16
REMARK    8  A    between atoms: O_16  and  C_17
REMARK    9  A    between atoms: C_17  and  C_18
REMARK   10  A    between atoms: C_18  and  O_19
REMARK   11  A    between atoms: O_19  and  C_20
REMARK   12  A    between atoms: C_20  and  C_21
REMARK   13  A    between atoms: C_21  and  N_22
REMARK   14  A    between atoms: C_23  and  C_25
REMARK   15  A    between atoms: C_28  and  S_31
REMARK   16  A    between atoms: S_31  and  N_32
REMARK                            x       y       z     vdW  Elec       q    Type
REMARK                         _______ _______ _______ _____ _____    ______ ____
ROOT
ATOM      1  C   UNL     1       8.533   2.626  -5.239  0.00  0.00    +0.188 C 
ENDROOT
BRANCH   1   2
ATOM      2  O   UNL     1       8.108   3.991  -5.331  0.00  0.00    -0.376 OA
BRANCH   2   3
ATOM      3  C   UNL     1       8.557   4.818  -4.257  0.00  0.00    +0.178 C 
BRANCH   3   4
ATOM      4  C   UNL     1      10.081   4.885  -4.195  0.00  0.00    +0.132 C 
BRANCH   4   5
ATOM      5  N   UNL     1      10.559   5.652  -3.077  0.00  0.00    -0.309 N 
ATOM      6  H   UNL     1      10.902   6.583  -3.269  0.00  0.00    +0.149 HD
ATOM      7  C   UNL     1      10.790   5.067  -1.849  0.00  0.00    +0.244 C 
ATOM      8  O   UNL     1      10.574   3.886  -1.593  0.00  0.00    -0.270 OA
BRANCH   7   9
ATOM      9  C   UNL     1      11.405   5.978  -0.857  0.00  0.00    +0.037 A 
ATOM     10  C   UNL     1      12.371   5.481   0.021  0.00  0.00    +0.015 A 
ATOM     11  C   UNL     1      13.060   6.370   0.857  0.00  0.00    +0.029 A 
ATOM     12  C   UNL     1      12.757   7.737   0.807  0.00  0.00    +0.105 A 
ATOM     13  C   UNL     1      11.758   8.224  -0.040  0.00  0.00    +0.029 A 
ATOM     14  C   UNL     1      11.071   7.340  -0.860  0.00  0.00    +0.015 A 
BRANCH  12  15
ATOM     15  S   UNL     1      13.698   8.897   1.753  0.00  0.00    +0.056 S 
ATOM     16  O   UNL     1      13.691  10.168   1.068  0.00  0.00    -0.153 OA
ATOM     17  O   UNL     1      14.914   8.266   2.209  0.00  0.00    -0.153 OA
BRANCH  15  18
ATOM     18  N   UNL     1      12.731   9.091   3.107  0.00  0.00    -0.204 NA
ATOM     19  H   UNL     1      12.395  10.053   3.156  0.00  0.00    +0.144 HD
ATOM     20  H   UNL     1      13.237   8.783   3.937  0.00  0.00    +0.144 HD
ENDBRANCH  15  18
ENDBRANCH  12  15
ENDBRANCH   7   9
ENDBRANCH   4   5
ENDBRANCH   3   4
ENDBRANCH   2   3
ENDBRANCH   1   2
BRANCH   1  21
ATOM     21  C   UNL     1       8.038   1.924  -3.968  0.00  0.00    +0.188 C 
BRANCH  21  22
ATOM     22  O   UNL     1       6.609   1.836  -3.889  0.00  0.00    -0.376 OA
BRANCH  22  23
ATOM     23  C   UNL     1       6.001   1.120  -4.965  0.00  0.00    +0.178 C 
BRANCH  23  24
ATOM     24  C   UNL     1       6.446  -0.342  -5.001  0.00  0.00    +0.132 C 
BRANCH  24  26
ATOM     25  C   UNL     1       6.732  -1.059  -7.328  0.00  0.00    +0.230 C 
ATOM     26  N   UNL     1       5.982  -1.050  -6.168  0.00  0.00    -0.312 N 
ATOM     27  H   UNL     1       5.109  -1.560  -6.120  0.00  0.00    +0.149 HD
ATOM     28  O   UNL     1       7.725  -0.352  -7.483  0.00  0.00    -0.274 OA
BRANCH  25  29
ATOM     29  C   UNL     1       6.116  -1.934  -8.434  0.00  0.00    +0.142 C 
BRANCH  29  30
ATOM     30  N   UNL     1       5.116  -1.100  -9.144  0.00  0.00    -0.320 NA
ATOM     31  H   UNL     1       4.496  -0.671  -8.456  0.00  0.00    +0.119 HD
ATOM     32  H   UNL     1       5.615  -0.313  -9.568  0.00  0.00    +0.119 HD
ENDBRANCH  29  30
BRANCH  29  33
ATOM     33  C   UNL     1       7.176  -2.461  -9.417  0.00  0.00    +0.063 C 
BRANCH  33  34
ATOM     34  C   UNL     1       8.158  -3.432  -8.793  0.00  0.00    -0.045 A 
ATOM     35  C   UNL     1       9.372  -2.971  -8.262  0.00  0.00    +0.004 A 
ATOM     36  C   UNL     1      10.275  -3.857  -7.675  0.00  0.00    +0.000 A 
ATOM     37  C   UNL     1       9.982  -5.216  -7.619  0.00  0.00    +0.000 A 
ATOM     38  C   UNL     1       8.783  -5.689  -8.150  0.00  0.00    +0.000 A 
ATOM     39  C   UNL     1       7.872  -4.802  -8.730  0.00  0.00    +0.004 A 
ENDBRANCH  33  34
ENDBRANCH  29  33
ENDBRANCH  25  29
ENDBRANCH  24  26
ENDBRANCH  23  24
ENDBRANCH  22  23
ENDBRANCH  21  22
ENDBRANCH   1  21
TORSDOF 16
