REMARK  Name = 
REMARK  5 active torsions:
REMARK  status: ('A' for Active; 'I' for Inactive)
REMARK    1  A    between atoms: O_1  and  C_2
REMARK    2  A    between atoms: C_2  and  C_4
REMARK    3  A    between atoms: C_4  and  C_5
REMARK    4  A    between atoms: C_5  and  O_6
REMARK    5  A    between atoms: O_6  and  N_7
REMARK                            x       y       z     vdW  Elec       q    Type
REMARK                         _______ _______ _______ _____ _____    ______ ____
ROOT
ATOM      1  N   UNL     1       6.782   1.993  -0.927  0.00  0.00    -0.084 NA
ATOM      2  C   UNL     1       7.320   3.028  -1.491  0.00  0.00    +0.118 C 
ATOM      3  C   UNL     1       6.695   4.203  -2.155  0.00  0.00    +0.012 A 
ATOM      4  C   UNL     1       5.365   4.536  -2.364  0.00  0.00    +0.011 A 
ATOM      5  C   UNL     1       5.086   5.712  -3.062  0.00  0.00    +0.001 A 
ATOM      6  C   UNL     1       6.125   6.529  -3.534  0.00  0.00    +0.001 A 
ATOM      7  C   UNL     1       7.462   6.185  -3.318  0.00  0.00    +0.009 A 
ATOM      8  C   UNL     1       7.743   5.016  -2.628  0.00  0.00    -0.008 A 
ATOM      9  C   UNL     1       9.014   4.420  -2.281  0.00  0.00    -0.008 A 
ATOM     10  C   UNL     1      10.309   4.851  -2.516  0.00  0.00    +0.009 A 
ATOM     11  C   UNL     1      11.370   4.062  -2.053  0.00  0.00    +0.001 A 
ATOM     12  C   UNL     1      11.126   2.857  -1.367  0.00  0.00    +0.001 A 
ATOM     13  C   UNL     1       9.819   2.417  -1.132  0.00  0.00    +0.011 A 
ATOM     14  C   UNL     1       8.788   3.216  -1.597  0.00  0.00    +0.012 A 
ENDROOT
BRANCH   1  15
ATOM     15  O   UNL     1       5.388   2.056  -0.894  0.00  0.00    -0.393 OA
BRANCH  15  16
ATOM     16  C   UNL     1       4.867   0.836  -0.360  0.00  0.00    +0.274 C 
BRANCH  16  17
ATOM     17  C   UNL     1       3.991   0.187  -1.412  0.00  0.00    +0.164 C 
BRANCH  17  18
ATOM     18  C   UNL     1       4.789  -0.313  -2.587  0.00  0.00    +0.308 C 
ATOM     19  O   UNL     1       4.783  -1.481  -2.954  0.00  0.00    -0.251 OA
BRANCH  18  20
ATOM     20  O   UNL     1       5.440   0.650  -3.266  0.00  0.00    -0.481 OA
ATOM     21  H   UNL     1       5.492   1.489  -2.759  0.00  0.00    +0.295 HD
ENDBRANCH  18  20
ENDBRANCH  17  18
ENDBRANCH  16  17
ENDBRANCH  15  16
ENDBRANCH   1  15
TORSDOF 5
