REMARK  Name = 
REMARK  11 active torsions:
REMARK  status: ('A' for Active; 'I' for Inactive)
REMARK    1  A    between atoms: C_2  and  O_3
REMARK    2  A    between atoms: C_2  and  C_4
REMARK    3  A    between atoms: C_2  and  C_28
REMARK    4  A    between atoms: C_4  and  O_5
REMARK    5  A    between atoms: O_5  and  C_6
REMARK    6  A    between atoms: C_9  and  N_10
REMARK    7  A    between atoms: C_15  and  N_16
REMARK    8  A    between atoms: N_16  and  C_17
REMARK    9  A    between atoms: C_28  and  N_29
REMARK   10  A    between atoms: N_29  and  C_30
REMARK   11  A    between atoms: N_29  and  C_31
REMARK                            x       y       z     vdW  Elec       q    Type
REMARK                         _______ _______ _______ _____ _____    ______ ____
ROOT
ATOM      1  N   UNL     1       2.472   4.277  -6.605  0.00  0.00    -0.299 N 
ATOM      2  H   UNL     1       1.616   4.801  -6.775  0.00  0.00    +0.154 HD
ATOM      3  C   UNL     1       3.021   3.945  -7.855  0.00  0.00    +0.128 A 
ATOM      4  C   UNL     1       4.137   3.138  -7.931  0.00  0.00    +0.087 A 
ATOM      5  C   UNL     1       4.512   2.696  -9.177  0.00  0.00    +0.128 A 
ATOM      6  N   UNL     1       3.908   3.133 -10.292  0.00  0.00    -0.221 NA
ATOM      7  C   UNL     1       2.906   4.004 -10.119  0.00  0.00    +0.225 A 
ATOM      8  N   UNL     1       2.415   4.430  -8.947  0.00  0.00    -0.221 NA
ENDROOT
BRANCH   1  12
ATOM      9  C   UNL     1       2.030   1.784  -3.215  0.00  0.00    +0.121 A 
ATOM     10  C   UNL     1       2.088   1.211  -4.483  0.00  0.00    +0.047 A 
ATOM     11  C   UNL     1       2.231   2.022  -5.613  0.00  0.00    +0.027 A 
ATOM     12  C   UNL     1       2.350   3.415  -5.494  0.00  0.00    +0.033 A 
ATOM     13  C   UNL     1       2.288   3.978  -4.220  0.00  0.00    +0.027 A 
ATOM     14  C   UNL     1       2.151   3.170  -3.090  0.00  0.00    +0.047 A 
BRANCH   9  15
ATOM     15  O   UNL     1       1.843   0.907  -2.177  0.00  0.00    -0.489 OA
BRANCH  15  16
ATOM     16  C   UNL     1       1.542   1.523  -0.914  0.00  0.00    +0.261 C 
BRANCH  16  17
ATOM     17  C   UNL     1       1.079   0.450   0.072  0.00  0.00    +0.166 C 
BRANCH  17  18
ATOM     18  O   UNL     1       2.114  -0.534   0.229  0.00  0.00    -0.387 OA
ATOM     19  H   UNL     1       2.396  -0.769  -0.675  0.00  0.00    +0.210 HD
ENDBRANCH  17  18
BRANCH  17  20
ATOM     20  C   UNL     1       0.772   1.066   1.453  0.00  0.00    +0.118 C 
BRANCH  20  21
ATOM     21  N   UNL     1      -0.239   2.145   1.477  0.00  0.00    -0.306 NA
ATOM     22  C   UNL     1      -0.359   2.675   2.838  0.00  0.00    +0.104 C 
ATOM     23  C   UNL     1      -1.545   1.682   1.004  0.00  0.00    +0.104 C 
ENDBRANCH  20  21
ENDBRANCH  17  20
ENDBRANCH  16  17
ENDBRANCH  15  16
ENDBRANCH   9  15
ENDBRANCH   1  12
BRANCH   5  24
ATOM     24  N   UNL     1       5.509   1.714  -9.242  0.00  0.00    -0.295 N 
ATOM     25  H   UNL     1       6.390   1.978  -8.819  0.00  0.00    +0.154 HD
BRANCH  24  26
ATOM     26  C   UNL     1       5.541   0.554 -10.033  0.00  0.00    +0.104 A 
ATOM     27  C   UNL     1       4.393  -0.090 -10.519  0.00  0.00    +0.147 A 
ATOM     28  F   UNL     1       3.167   0.366 -10.219  0.00  0.00    -0.203 F 
ATOM     29  C   UNL     1       4.477  -1.272 -11.259  0.00  0.00    +0.040 A 
ATOM     30  C   UNL     1       5.721  -1.834 -11.539  0.00  0.00    +0.006 A 
ATOM     31  C   UNL     1       6.874  -1.206 -11.083  0.00  0.00    +0.040 A 
ATOM     32  C   UNL     1       6.776  -0.030 -10.340  0.00  0.00    +0.147 A 
ATOM     33  F   UNL     1       7.902   0.549  -9.892  0.00  0.00    -0.203 F 
ENDBRANCH  24  26
ENDBRANCH   5  24
TORSDOF 9
