REMARK  Name = 
REMARK  14 active torsions:
REMARK  status: ('A' for Active; 'I' for Inactive)
REMARK    1  A    between atoms: C_2  and  O_3
REMARK    2  A    between atoms: C_4  and  O_6
REMARK    3  A    between atoms: C_7  and  C_9
REMARK    4  A    between atoms: C_9  and  O_10
REMARK    5  A    between atoms: C_12  and  O_14
REMARK    6  A    between atoms: O_14  and  C_15
REMARK    7  A    between atoms: C_15  and  C_16
REMARK    8  A    between atoms: C_16  and  C_17
REMARK    9  A    between atoms: C_17  and  C_18
REMARK   10  A    between atoms: C_18  and  C_19
REMARK   11  A    between atoms: C_19  and  C_20
REMARK   12  A    between atoms: C_20  and  C_21
REMARK   13  A    between atoms: C_21  and  C_22
REMARK   14  A    between atoms: C_23  and  O_25
REMARK                            x       y       z     vdW  Elec       q    Type
REMARK                         _______ _______ _______ _____ _____    ______ ____
ROOT
ATOM      1  C   UNL     1       3.200   2.554  -2.192  0.00  0.00    +0.179 C 
ATOM      2  C   UNL     1       2.859   1.571  -3.322  0.00  0.00    +0.201 C 
ATOM      3  C   UNL     1       2.100   0.331  -2.803  0.00  0.00    +0.282 C 
ATOM      4  O   UNL     1       2.823  -0.282  -1.731  0.00  0.00    -0.341 OA
ATOM      5  C   UNL     1       3.055   0.588  -0.612  0.00  0.00    +0.178 C 
ATOM      6  C   UNL     1       3.886   1.816  -1.034  0.00  0.00    +0.177 C 
ENDROOT
BRANCH   1   7
ATOM      7  O   UNL     1       2.067   3.253  -1.662  0.00  0.00    -0.386 OA
ATOM      8  H   UNL     1       1.341   3.215  -2.312  0.00  0.00    +0.210 HD
ENDBRANCH   1   7
BRANCH   2   9
ATOM      9  O   UNL     1       4.080   1.155  -3.959  0.00  0.00    -0.384 OA
ATOM     10  H   UNL     1       4.432   0.388  -3.469  0.00  0.00    +0.210 HD
ENDBRANCH   2   9
BRANCH   6  11
ATOM     11  O   UNL     1       4.094   2.706   0.070  0.00  0.00    -0.386 OA
ATOM     12  H   UNL     1       3.460   3.443  -0.062  0.00  0.00    +0.210 HD
ENDBRANCH   6  11
BRANCH   3  13
ATOM     13  O   UNL     1       0.751   0.650  -2.468  0.00  0.00    -0.349 OA
BRANCH  13  14
ATOM     14  C   UNL     1      -0.028  -0.535  -2.281  0.00  0.00    +0.163 C 
BRANCH  14  15
ATOM     15  C   UNL     1      -1.514  -0.194  -2.189  0.00  0.00    +0.028 C 
BRANCH  15  16
ATOM     16  C   UNL     1      -2.061   0.415  -3.485  0.00  0.00    +0.002 C 
BRANCH  16  17
ATOM     17  C   UNL     1      -3.575   0.642  -3.390  0.00  0.00    +0.000 C 
BRANCH  17  18
ATOM     18  C   UNL     1      -4.140   1.269  -4.665  0.00  0.00    -0.000 C 
BRANCH  18  19
ATOM     19  C   UNL     1      -5.650   1.496  -4.538  0.00  0.00    -0.000 C 
BRANCH  19  20
ATOM     20  C   UNL     1      -6.238   2.138  -5.794  0.00  0.00    -0.003 C 
ATOM     21  C   UNL     1      -7.737   2.361  -5.654  0.00  0.00    +0.004 C 
ENDBRANCH  19  20
ENDBRANCH  18  19
ENDBRANCH  17  18
ENDBRANCH  16  17
ENDBRANCH  15  16
ENDBRANCH  14  15
ENDBRANCH  13  14
ENDBRANCH   3  13
BRANCH   5  22
ATOM     22  C   UNL     1       3.801  -0.226   0.460  0.00  0.00    +0.190 C 
BRANCH  22  23
ATOM     23  O   UNL     1       3.973   0.491   1.676  0.00  0.00    -0.392 OA
ATOM     24  H   UNL     1       4.241   1.405   1.435  0.00  0.00    +0.210 HD
ENDBRANCH  22  23
ENDBRANCH   5  22
TORSDOF 13
