REMARK  Name = 
REMARK  7 active torsions:
REMARK  status: ('A' for Active; 'I' for Inactive)
REMARK    1  A    between atoms: O_1  and  C_2
REMARK    2  A    between atoms: C_2  and  C_4
REMARK    3  A    between atoms: C_5  and  C_9
REMARK    4  A    between atoms: N_11  and  C_12
REMARK    5  A    between atoms: C_16  and  C_20
REMARK    6  A    between atoms: C_24  and  O_25
REMARK    7  A    between atoms: O_25  and  C_26
REMARK                            x       y       z     vdW  Elec       q    Type
REMARK                         _______ _______ _______ _____ _____    ______ ____
ROOT
ATOM      1  C   UNL     1       5.904  -1.287  -3.819  0.00  0.00    +0.105 A 
ATOM      2  C   UNL     1       5.473  -2.558  -3.442  0.00  0.00    +0.148 A 
ATOM      3  F   UNL     1       4.756  -2.726  -2.320  0.00  0.00    -0.203 F 
ATOM      4  C   UNL     1       5.843  -3.695  -4.166  0.00  0.00    +0.049 A 
ATOM      5  C   UNL     1       6.662  -3.599  -5.304  0.00  0.00    -0.012 A 
ATOM      6  C   UNL     1       7.131  -2.313  -5.643  0.00  0.00    +0.049 A 
ATOM      7  C   UNL     1       6.770  -1.187  -4.900  0.00  0.00    +0.148 A 
ATOM      8  F   UNL     1       7.218   0.019  -5.286  0.00  0.00    -0.203 F 
ENDROOT
BRANCH   5   9
ATOM      9  C   UNL     1       7.052  -4.791  -6.101  0.00  0.00    -0.014 A 
ATOM     10  C   UNL     1       7.296  -4.688  -7.485  0.00  0.00    +0.054 A 
ATOM     11  C   UNL     1       7.821  -5.752  -8.221  0.00  0.00    +0.131 A 
ATOM     12  C   UNL     1       7.969  -6.996  -7.607  0.00  0.00    +0.046 A 
ATOM     13  C   UNL     1       7.659  -7.153  -6.260  0.00  0.00    +0.004 A 
ATOM     14  C   UNL     1       7.227  -6.056  -5.511  0.00  0.00    +0.009 A 
BRANCH  11  15
ATOM     15  O   UNL     1       8.174  -5.706  -9.535  0.00  0.00    -0.406 OA
BRANCH  15  16
ATOM     16  C   UNL     1       8.709  -4.498 -10.067  0.00  0.00    +0.575 C 
ATOM     17  F   UNL     1       7.878  -4.034 -11.026  0.00  0.00    -0.133 F 
ATOM     18  F   UNL     1       9.904  -4.767 -10.639  0.00  0.00    -0.133 F 
ATOM     19  F   UNL     1       8.904  -3.519  -9.157  0.00  0.00    -0.133 F 
ENDBRANCH  15  16
ENDBRANCH  11  15
ENDBRANCH   5   9
BRANCH   1  21
ATOM     20  C   UNL     1       4.116   0.136  -3.008  0.00  0.00    +0.245 C 
ATOM     21  N   UNL     1       5.473  -0.104  -3.166  0.00  0.00    -0.277 N 
ATOM     22  H   UNL     1       6.080   0.698  -3.267  0.00  0.00    +0.155 HD
ATOM     23  O   UNL     1       3.240  -0.592  -3.456  0.00  0.00    -0.270 OA
BRANCH  20  28
ATOM     24  C   UNL     1       2.566   1.825  -1.974  0.00  0.00    +0.044 C 
ATOM     25  C   UNL     1       2.522   3.278  -1.615  0.00  0.00    +0.043 C 
ATOM     26  C   UNL     1       3.784   3.827  -2.274  0.00  0.00    +0.010 C 
ATOM     27  C   UNL     1       4.718   2.635  -2.435  0.00  0.00    +0.041 C 
ATOM     28  C   UNL     1       3.769   1.473  -2.462  0.00  0.00    +0.025 C 
BRANCH  24  29
ATOM     29  C   UNL     1       1.452   0.906  -1.661  0.00  0.00    +0.333 C 
ATOM     30  O   UNL     1       1.602  -0.223  -1.233  0.00  0.00    -0.245 OA
BRANCH  29  31
ATOM     31  O   UNL     1       0.238   1.487  -1.749  0.00  0.00    -0.477 OA
ATOM     32  H   UNL     1       0.215   2.370  -2.152  0.00  0.00    +0.295 HD
ENDBRANCH  29  31
ENDBRANCH  24  29
ENDBRANCH  20  28
ENDBRANCH   1  21
TORSDOF 7
