REMARK  Name = 
REMARK  5 active torsions:
REMARK  status: ('A' for Active; 'I' for Inactive)
REMARK    1  A    between atoms: C_1  and  C_2
REMARK    2  A    between atoms: C_2  and  C_3
REMARK    3  A    between atoms: C_3  and  C_4
REMARK    4  A    between atoms: C_5  and  S_6
REMARK    5  A    between atoms: S_6  and  C_7
REMARK                            x       y       z     vdW  Elec       q    Type
REMARK                         _______ _______ _______ _____ _____    ______ ____
ROOT
ATOM      1  C   UNL     1       4.417  -0.888   1.142  0.00  0.00    +0.031 A 
ATOM      2  C   UNL     1       5.201  -0.478   2.365  0.00  0.00    +0.253 A 
ATOM      3  O   UNL     1       4.654  -0.095   3.400  0.00  0.00    -0.268 OA
ATOM      4  N   UNL     1       6.555  -0.576   2.318  0.00  0.00    -0.322 N 
ATOM      5  H   UNL     1       7.037  -0.324   3.170  0.00  0.00    +0.169 HD
ATOM      6  C   UNL     1       7.264  -1.010   1.204  0.00  0.00    +0.050 A 
ATOM      7  C   UNL     1       6.572  -1.367   0.039  0.00  0.00    +0.014 A 
ATOM      8  C   UNL     1       7.349  -1.837  -1.034  0.00  0.00    +0.031 A 
ATOM      9  C   UNL     1       8.742  -1.875  -0.975  0.00  0.00    +0.042 A 
ATOM     10  C   UNL     1       9.402  -1.515   0.189  0.00  0.00    +0.022 A 
ATOM     11 CL   UNL     1       9.637  -2.373  -2.358  0.00  0.00    -0.084 Cl
ATOM     12  C   UNL     1       8.661  -1.091   1.292  0.00  0.00    +0.028 A 
ATOM     13  C   UNL     1       5.078  -1.262   0.018  0.00  0.00    +0.026 A 
ENDROOT
BRANCH   1  14
ATOM     14  C   UNL     1       2.910  -0.843   1.357  0.00  0.00    +0.041 C 
BRANCH  14  16
ATOM     15  C   UNL     1       0.768  -2.120   1.765  0.00  0.00    +0.004 C 
ATOM     16  C   UNL     1       2.246  -2.222   1.415  0.00  0.00    +0.001 C 
ENDBRANCH  14  16
ENDBRANCH   1  14
BRANCH  13  17
ATOM     17  S   UNL     1       4.276  -1.895  -1.409  0.00  0.00    -0.121 S 
BRANCH  17  18
ATOM     18  C   UNL     1       3.932  -0.472  -2.520  0.00  0.00    +0.051 C 
ATOM     19  C   UNL     1       3.159  -0.995  -3.756  0.00  0.00    +0.014 C 
ATOM     20  C   UNL     1       4.036  -1.704  -4.796  0.00  0.00    +0.001 C 
ATOM     21  C   UNL     1       5.195  -0.823  -5.246  0.00  0.00    +0.000 C 
ATOM     22  C   UNL     1       6.014  -0.348  -4.055  0.00  0.00    +0.001 C 
ATOM     23  C   UNL     1       5.155   0.335  -2.987  0.00  0.00    +0.014 C 
ENDBRANCH  17  18
ENDBRANCH  13  17
TORSDOF 4
