REMARK  Name = 
REMARK  3 active torsions:
REMARK  status: ('A' for Active; 'I' for Inactive)
REMARK    1  A    between atoms: C_2  and  C_3
REMARK    2  A    between atoms: N_7  and  C_8
REMARK    3  A    between atoms: N_23  and  C_24
REMARK                            x       y       z     vdW  Elec       q    Type
REMARK                         _______ _______ _______ _____ _____    ______ ____
ROOT
ATOM      1  C   UNL     1       2.406  -0.108  -0.208  0.00  0.00    +0.147 C 
ATOM      2  C   UNL     1       2.417  -1.692  -0.027  0.00  0.00    +0.057 C 
ATOM      3  C   UNL     1       3.664  -2.400  -0.631  0.00  0.00    +0.043 C 
ATOM      4  C   UNL     1       3.435  -3.870  -0.988  0.00  0.00    +0.086 C 
ATOM      5  N   UNL     1       2.275  -4.106  -1.817  0.00  0.00    -0.305 NA
ATOM      6  C   UNL     1       2.455  -4.206  -3.253  0.00  0.00    +0.104 C 
ATOM      7  C   UNL     1       1.028  -3.525  -1.380  0.00  0.00    +0.086 C 
ATOM      8  C   UNL     1       1.101  -2.153  -0.722  0.00  0.00    +0.043 C 
ATOM      9  N   UNL     1       2.354  -2.070   1.428  0.00  0.00    -0.303 N 
ATOM     10  H   UNL     1       2.206  -3.045   1.665  0.00  0.00    +0.150 HD
ATOM     11  C   UNL     1       2.865  -1.345   2.492  0.00  0.00    +0.261 C 
ATOM     12  O   UNL     1       3.011  -1.890   3.580  0.00  0.00    -0.269 OA
ATOM     13  C   UNL     1       3.100   0.058   2.219  0.00  0.00    +0.110 A 
ATOM     14  N   UNL     1       3.495   1.070   3.079  0.00  0.00    -0.338 N 
ATOM     15  C   UNL     1       3.278   2.320   2.491  0.00  0.00    +0.070 A 
ATOM     16  C   UNL     1       2.860   2.061   1.179  0.00  0.00    +0.007 A 
ATOM     17  C   UNL     1       2.482   3.130   0.339  0.00  0.00    +0.012 A 
ATOM     18  C   UNL     1       2.528   4.441   0.809  0.00  0.00    +0.022 A 
ATOM     19  C   UNL     1       2.977   4.704   2.098  0.00  0.00    +0.061 A 
ATOM     20 CL   UNL     1       3.003   6.369   2.584  0.00  0.00    -0.082 Cl
ATOM     21  C   UNL     1       3.373   3.659   2.962  0.00  0.00    +0.083 A 
ATOM     22 CL   UNL     1       3.925   4.021   4.560  0.00  0.00    -0.080 Cl
ATOM     23  C   UNL     1       3.996   0.872   4.424  0.00  0.00    +0.149 C 
ATOM     24  C   UNL     1       2.859   0.649   0.996  0.00  0.00    +0.009 A 
ENDROOT
BRANCH   1  25
ATOM     25  C   UNL     1       3.131   0.338  -1.420  0.00  0.00    +0.073 C 
ATOM     26  N   UNL     1       3.668   0.696  -2.386  0.00  0.00    -0.196 NA
ENDBRANCH   1  25
TORSDOF 1
