REMARK  Name = 
REMARK  6 active torsions:
REMARK  status: ('A' for Active; 'I' for Inactive)
REMARK    1  A    between atoms: C_1  and  C_2
REMARK    2  A    between atoms: C_4  and  C_9
REMARK    3  A    between atoms: N_13  and  C_14
REMARK    4  A    between atoms: C_17  and  C_18
REMARK    5  A    between atoms: C_18  and  O_19
REMARK    6  A    between atoms: C_21  and  O_22
REMARK                            x       y       z     vdW  Elec       q    Type
REMARK                         _______ _______ _______ _____ _____    ______ ____
ROOT
ATOM      1  C   UNL     1       5.222   2.547  -0.387  0.00  0.00    +0.080 A 
ATOM      2  N   UNL     1       6.546   2.573  -0.788  0.00  0.00    -0.225 NA
ATOM      3  C   UNL     1       7.000   3.803  -0.864  0.00  0.00    +0.163 A 
ATOM      4  N   UNL     1       8.240   4.178  -1.260  0.00  0.00    -0.294 N 
ATOM      5  H   UNL     1       8.468   5.159  -1.146  0.00  0.00    +0.154 HD
ATOM      6  S   UNL     1       5.851   5.005  -0.389  0.00  0.00    -0.060 S 
ATOM      7  C   UNL     1       4.668   3.786  -0.149  0.00  0.00    +0.076 A 
ENDROOT
BRANCH   1  14
ATOM      8  C   UNL     1       1.086  -0.293  -0.738  0.00  0.00    +0.047 C 
ATOM      9  C   UNL     1       2.538  -0.119  -0.411  0.00  0.00    -0.015 A 
ATOM     10  C   UNL     1       3.308  -1.229  -0.049  0.00  0.00    +0.126 A 
ATOM     11  F   UNL     1       2.732  -2.437   0.031  0.00  0.00    -0.205 F 
ATOM     12  C   UNL     1       4.662  -1.111   0.216  0.00  0.00    +0.039 A 
ATOM     13  C   UNL     1       5.276   0.136   0.113  0.00  0.00    +0.013 A 
ATOM     14  C   UNL     1       4.532   1.272  -0.244  0.00  0.00    +0.001 A 
ATOM     15  C   UNL     1       3.159   1.136  -0.501  0.00  0.00    +0.016 A 
ENDBRANCH   1  14
BRANCH   4  16
ATOM     16  C   UNL     1       9.075   3.511  -2.179  0.00  0.00    +0.036 A 
ATOM     17  C   UNL     1       8.712   2.338  -2.853  0.00  0.00    +0.069 A 
ATOM     18  C   UNL     1       9.568   1.751  -3.792  0.00  0.00    +0.133 A 
ATOM     19  C   UNL     1      10.841   2.272  -4.028  0.00  0.00    +0.100 A 
ATOM     20  C   UNL     1      11.233   3.416  -3.325  0.00  0.00    +0.020 A 
ATOM     21  C   UNL     1      10.360   4.025  -2.413  0.00  0.00    +0.024 A 
BRANCH  18  22
ATOM     22  O   UNL     1       9.124   0.667  -4.508  0.00  0.00    -0.506 OA
ATOM     23  H   UNL     1       8.147   0.717  -4.538  0.00  0.00    +0.292 HD
ENDBRANCH  18  22
BRANCH  19  24
ATOM     24  C   UNL     1      11.804   1.695  -5.011  0.00  0.00    +0.340 C 
ATOM     25  O   UNL     1      12.851   2.250  -5.298  0.00  0.00    -0.245 OA
BRANCH  24  26
ATOM     26  O   UNL     1      11.434   0.518  -5.560  0.00  0.00    -0.477 OA
ATOM     27  H   UNL     1      10.556   0.215  -5.236  0.00  0.00    +0.295 HD
ENDBRANCH  24  26
ENDBRANCH  19  24
ENDBRANCH   4  16
TORSDOF 5
