REMARK  Name = 
REMARK  12 active torsions:
REMARK  status: ('A' for Active; 'I' for Inactive)
REMARK    1  A    between atoms: C_1  and  C_2
REMARK    2  A    between atoms: C_2  and  O_3
REMARK    3  A    between atoms: O_3  and  C_4
REMARK    4  A    between atoms: C_6  and  N_7
REMARK    5  A    between atoms: C_8  and  C_10
REMARK    6  A    between atoms: C_10  and  C_11
REMARK    7  A    between atoms: C_13  and  O_14
REMARK    8  A    between atoms: O_14  and  C_15
REMARK    9  A    between atoms: C_19  and  O_20
REMARK   10  A    between atoms: O_20  and  C_21
REMARK   11  A    between atoms: C_23  and  N_24
REMARK   12  A    between atoms: C_25  and  C_26
REMARK                            x       y       z     vdW  Elec       q    Type
REMARK                         _______ _______ _______ _____ _____    ______ ____
ROOT
ATOM      1  N   UNL     1       7.181   1.336  -1.473  0.00  0.00    -0.270 N 
ATOM      2  H   UNL     1       6.775   2.224  -1.737  0.00  0.00    +0.156 HD
ATOM      3  C   UNL     1       8.528   1.383  -1.146  0.00  0.00    +0.223 C 
ATOM      4  O   UNL     1       9.050   0.696  -0.275  0.00  0.00    -0.275 OA
ENDROOT
BRANCH   1   9
ATOM      5  C   UNL     1       4.158   0.354   0.129  0.00  0.00    +0.236 A 
ATOM      6  C   UNL     1       4.117  -1.035   0.080  0.00  0.00    +0.134 A 
ATOM      7  C   UNL     1       5.215  -1.676  -0.527  0.00  0.00    +0.051 A 
ATOM      8  C   UNL     1       6.336  -0.898  -0.893  0.00  0.00    +0.068 A 
ATOM      9  C   UNL     1       6.245   0.490  -0.861  0.00  0.00    +0.131 A 
ATOM     10  N   UNL     1       5.149   1.118  -0.400  0.00  0.00    -0.197 NA
BRANCH   7  11
ATOM     11  N   UNL     1       5.303  -3.080  -0.600  0.00  0.00    -0.357 N 
ATOM     12  H   UNL     1       4.410  -3.573  -0.609  0.00  0.00    +0.142 HD
ATOM     13  H   UNL     1       5.925  -3.430  -1.321  0.00  0.00    +0.142 HD
ENDBRANCH   7  11
BRANCH   6  14
ATOM     14  C   UNL     1       2.965  -1.755   0.561  0.00  0.00    +0.106 C 
ATOM     15  N   UNL     1       2.053  -2.375   0.932  0.00  0.00    -0.191 NA
ENDBRANCH   6  14
BRANCH   5  16
ATOM     16  O   UNL     1       3.095   1.021   0.710  0.00  0.00    -0.476 OA
BRANCH  16  18
ATOM     17  C   UNL     1       2.288   2.875   1.991  0.00  0.00    +0.048 C 
ATOM     18  C   UNL     1       3.500   2.255   1.319  0.00  0.00    +0.227 C 
ENDBRANCH  16  18
ENDBRANCH   5  16
ENDBRANCH   1   9
BRANCH   3  19
ATOM     19  C   UNL     1       9.326   2.387  -1.990  0.00  0.00    +0.135 C 
BRANCH  19  20
ATOM     20  C   UNL     1       9.379   3.851  -1.569  0.00  0.00    +0.007 A 
ATOM     21  C   UNL     1      10.132   4.826  -2.268  0.00  0.00    +0.125 A 
ATOM     22  C   UNL     1      10.216   6.140  -1.780  0.00  0.00    +0.064 A 
ATOM     23  C   UNL     1       9.532   6.533  -0.636  0.00  0.00    +0.063 A 
ATOM     24 BR   UNL     1       9.720   8.334  -0.057  0.00  0.00    -0.046 Br
ATOM     25  C   UNL     1       8.746   5.610   0.054  0.00  0.00    +0.134 A 
ATOM     26  C   UNL     1       8.701   4.280  -0.397  0.00  0.00    +0.054 A 
BRANCH  21  27
ATOM     27  O   UNL     1      10.918   4.690  -3.380  0.00  0.00    -0.495 OA
ATOM     28  C   UNL     1      10.617   3.738  -4.379  0.00  0.00    +0.277 C 
ENDBRANCH  21  27
BRANCH  25  29
ATOM     29  O   UNL     1       8.071   6.090   1.145  0.00  0.00    -0.494 OA
ATOM     30  C   UNL     1       7.158   5.231   1.807  0.00  0.00    +0.277 C 
ENDBRANCH  25  29
ENDBRANCH  19  20
ENDBRANCH   3  19
TORSDOF 9
