REMARK  Name = 
REMARK  8 active torsions:
REMARK  status: ('A' for Active; 'I' for Inactive)
REMARK    1  A    between atoms: C_1  and  C_2
REMARK    2  A    between atoms: C_7  and  S_8
REMARK    3  A    between atoms: S_8  and  N_11
REMARK    4  A    between atoms: N_11  and  C_12
REMARK    5  A    between atoms: C_13  and  C_25
REMARK    6  A    between atoms: C_15  and  C_17
REMARK    7  A    between atoms: C_20  and  C_23
REMARK    8  A    between atoms: C_25  and  O_26
REMARK                            x       y       z     vdW  Elec       q    Type
REMARK                         _______ _______ _______ _____ _____    ______ ____
ROOT
ATOM      1  C   UNL     1      -0.071  -3.805  -0.336  0.00  0.00    +0.070 A 
ATOM      2  C   UNL     1      -1.502  -3.638  -0.408  0.00  0.00    +0.041 A 
ATOM      3  C   UNL     1      -2.198  -4.840  -0.381  0.00  0.00    +0.022 A 
ATOM      4  S   UNL     1      -1.097  -6.141  -0.155  0.00  0.00    -0.080 S 
ATOM      5  C   UNL     1       0.280  -5.141  -0.266  0.00  0.00    +0.119 A 
ENDROOT
BRANCH   3   6
ATOM      6  C   UNL     1      -3.649  -5.139  -0.462  0.00  0.00    -0.011 A 
ATOM      7  C   UNL     1      -4.109  -6.349  -1.022  0.00  0.00    +0.010 A 
ATOM      8  C   UNL     1      -5.467  -6.692  -1.032  0.00  0.00    +0.019 A 
ATOM      9  C   UNL     1      -6.409  -5.816  -0.496  0.00  0.00    +0.052 A 
ATOM     10  C   UNL     1      -5.980  -4.594   0.030  0.00  0.00    +0.019 A 
ATOM     11  C   UNL     1      -4.614  -4.257   0.043  0.00  0.00    +0.010 A 
BRANCH   9  12
ATOM     12  C   UNL     1      -7.799  -6.177  -0.476  0.00  0.00    +0.099 C 
ATOM     13  N   UNL     1      -8.919  -6.473  -0.459  0.00  0.00    -0.191 NA
ENDBRANCH   9  12
ENDBRANCH   3   6
BRANCH   1  14
ATOM     14  N   UNL     1       0.864  -2.736  -0.414  0.00  0.00    -0.215 N 
ATOM     15  H   UNL     1       0.607  -2.018  -1.105  0.00  0.00    +0.174 HD
BRANCH  14  16
ATOM     16  S   UNL     1       1.117  -1.764   0.999  0.00  0.00    +0.073 S 
ATOM     17  O   UNL     1       1.128  -0.408   0.486  0.00  0.00    -0.150 OA
ATOM     18  O   UNL     1       0.176  -2.152   2.021  0.00  0.00    -0.150 OA
BRANCH  16  21
ATOM     19  C   UNL     1       2.033  -3.984   3.168  0.00  0.00    +0.046 C 
ATOM     20  C   UNL     1       3.074  -3.157   2.466  0.00  0.00    -0.024 A 
ATOM     21  C   UNL     1       2.785  -2.180   1.491  0.00  0.00    +0.111 A 
ATOM     22  C   UNL     1       3.828  -1.417   0.933  0.00  0.00    +0.029 A 
ATOM     23  C   UNL     1       5.152  -1.634   1.317  0.00  0.00    +0.002 A 
ATOM     24  C   UNL     1       5.447  -2.605   2.267  0.00  0.00    +0.000 A 
ATOM     25  C   UNL     1       4.419  -3.356   2.836  0.00  0.00    +0.005 A 
ENDBRANCH  16  21
ENDBRANCH  14  16
ENDBRANCH   1  14
BRANCH   5  26
ATOM     26  C   UNL     1       1.577  -5.790  -0.281  0.00  0.00    +0.345 C 
ATOM     27  O   UNL     1       1.829  -6.916   0.127  0.00  0.00    -0.244 OA
BRANCH  26  28
ATOM     28  O   UNL     1       2.539  -5.022  -0.858  0.00  0.00    -0.477 OA
ATOM     29  H   UNL     1       2.204  -4.151  -1.147  0.00  0.00    +0.295 HD
ENDBRANCH  26  28
ENDBRANCH   5  26
TORSDOF 7
