REMARK  Name = 
REMARK  3 active torsions:
REMARK  status: ('A' for Active; 'I' for Inactive)
REMARK    1  A    between atoms: N_1  and  S_2
REMARK    2  A    between atoms: S_2  and  C_5
REMARK    3  A    between atoms: C_8  and  C_10
REMARK                            x       y       z     vdW  Elec       q    Type
REMARK                         _______ _______ _______ _____ _____    ______ ____
ROOT
ATOM      1  C   UNL     1       3.417   0.232  -1.618  0.00  0.00    +0.254 A 
ATOM      2  S   UNL     1       3.553  -1.355  -2.215  0.00  0.00    -0.026 S 
ATOM      3  C   UNL     1       4.234  -0.683  -3.654  0.00  0.00    +0.135 A 
ATOM      4  N   UNL     1       4.250   0.639  -3.647  0.00  0.00    -0.139 NA
ATOM      5  N   UNL     1       3.781   1.179  -2.455  0.00  0.00    -0.120 NA
ENDROOT
BRANCH   3   6
ATOM      6  C   UNL     1       4.567  -1.530  -4.814  0.00  0.00    +0.027 A 
ATOM      7  C   UNL     1       5.181  -2.796  -4.743  0.00  0.00    +0.051 A 
ATOM      8 CL   UNL     1       5.862  -3.454  -3.293  0.00  0.00    -0.083 Cl
ATOM      9  C   UNL     1       5.328  -3.586  -5.893  0.00  0.00    +0.020 A 
ATOM     10  C   UNL     1       4.915  -3.112  -7.135  0.00  0.00    +0.001 A 
ATOM     11  C   UNL     1       4.379  -1.834  -7.239  0.00  0.00    +0.001 A 
ATOM     12  C   UNL     1       4.208  -1.053  -6.091  0.00  0.00    +0.012 A 
ENDBRANCH   3   6
BRANCH   1  13
ATOM     13  S   UNL     1       2.752   0.437  -0.003  0.00  0.00    +0.081 S 
ATOM     14  O   UNL     1       1.430  -0.147  -0.038  0.00  0.00    -0.151 OA
ATOM     15  O   UNL     1       3.760  -0.014   0.926  0.00  0.00    -0.151 OA
BRANCH  13  16
ATOM     16  N   UNL     1       2.491   2.072   0.317  0.00  0.00    -0.202 NA
ATOM     17  H   UNL     1       1.780   2.449  -0.310  0.00  0.00    +0.144 HD
ATOM     18  H   UNL     1       2.220   2.174   1.296  0.00  0.00    +0.144 HD
ENDBRANCH  13  16
ENDBRANCH   1  13
TORSDOF 3
