REMARK  Name = 
REMARK  6 active torsions:
REMARK  status: ('A' for Active; 'I' for Inactive)
REMARK    1  A    between atoms: C_2  and  C_3
REMARK    2  A    between atoms: C_2  and  C_4
REMARK    3  A    between atoms: C_2  and  C_11
REMARK    4  A    between atoms: C_13  and  N_21
REMARK    5  A    between atoms: C_15  and  N_18
REMARK    6  A    between atoms: C_16  and  O_17
REMARK                            x       y       z     vdW  Elec       q    Type
REMARK                         _______ _______ _______ _____ _____    ______ ____
ROOT
ATOM      1  C   UNL     1       2.586  -0.690   1.371  0.00  0.00    +0.014 A 
ATOM      2  C   UNL     1       1.845  -0.487   2.557  0.00  0.00    +0.199 A 
ATOM      3  C   UNL     1       2.273  -1.055   3.776  0.00  0.00    +0.321 A 
ATOM      4  C   UNL     1       3.444  -1.824   3.833  0.00  0.00    +0.172 A 
ATOM      5  C   UNL     1       4.183  -2.019   2.663  0.00  0.00    +0.280 A 
ATOM      6  C   UNL     1       3.766  -1.457   1.447  0.00  0.00    +0.092 A 
ENDROOT
BRANCH   3   7
ATOM      7  N   UNL     1       1.512  -0.858   5.015  0.00  0.00    +0.084 N 
ATOM      8  O   UNL     1       0.488  -0.160   4.952  0.00  0.00    +0.042 OA
ATOM      9  O   UNL     1       1.929  -1.399   6.046  0.00  0.00    -0.576 OA
ENDBRANCH   3   7
BRANCH   5  10
ATOM     10  N   UNL     1       5.417  -2.823   2.704  0.00  0.00    +0.080 N 
ATOM     11  O   UNL     1       5.761  -3.294   3.797  0.00  0.00    +0.041 OA
ATOM     12  O   UNL     1       6.039  -2.975   1.646  0.00  0.00    -0.576 OA
ENDBRANCH   5  10
BRANCH   1  13
ATOM     13  C   UNL     1       2.131  -0.061   0.049  0.00  0.00    +0.050 C 
ATOM     14  C   UNL     1       2.509  -0.856  -1.213  0.00  0.00    +0.017 C 
BRANCH  13  15
ATOM     15  C   UNL     1       2.571   1.393  -0.094  0.00  0.00    -0.040 A 
ATOM     16  C   UNL     1       3.920   1.748  -0.258  0.00  0.00    +0.005 A 
ATOM     17  C   UNL     1       4.287   3.085  -0.432  0.00  0.00    +0.020 A 
ATOM     18  C   UNL     1       3.312   4.079  -0.439  0.00  0.00    +0.041 A 
ATOM     19 CL   UNL     1       3.765   5.722  -0.671  0.00  0.00    -0.084 Cl
ATOM     20  C   UNL     1       1.971   3.749  -0.265  0.00  0.00    +0.020 A 
ATOM     21  C   UNL     1       1.603   2.413  -0.090  0.00  0.00    +0.005 A 
ENDBRANCH  13  15
ENDBRANCH   1  13
BRANCH   2  22
ATOM     22  O   UNL     1       0.706   0.269   2.437  0.00  0.00    -0.501 OA
ATOM     23  H   UNL     1       0.276   0.394   3.310  0.00  0.00    +0.292 HD
ENDBRANCH   2  22
TORSDOF 5
