REMARK  Name = 
REMARK  3 active torsions:
REMARK  status: ('A' for Active; 'I' for Inactive)
REMARK    1  A    between atoms: C_1  and  O_2
REMARK    2  A    between atoms: O_2  and  C_3
REMARK    3  A    between atoms: C_14  and  C_15
REMARK                            x       y       z     vdW  Elec       q    Type
REMARK                         _______ _______ _______ _____ _____    ______ ____
ROOT
ATOM      1  C   UNL     1       2.927   1.071  -0.429  0.00  0.00    +0.122 A 
ATOM      2  C   UNL     1       2.436   2.354  -0.169  0.00  0.00    +0.071 A 
ATOM      3  C   UNL     1       3.150   3.442  -0.692  0.00  0.00    +0.051 A 
ATOM      4  N   UNL     1       2.901   4.790  -0.594  0.00  0.00    -0.353 N 
ATOM      5  H   UNL     1       2.120   5.190  -0.095  0.00  0.00    +0.166 HD
ATOM      6  C   UNL     1       3.850   5.521  -1.269  0.00  0.00    +0.069 A 
ATOM      7  C   UNL     1       3.976   6.904  -1.437  0.00  0.00    +0.062 A 
ATOM      8  C   UNL     1       3.029   7.909  -0.865  0.00  0.00    +0.068 C 
ATOM      9  N   UNL     1       5.029   7.359  -2.168  0.00  0.00    -0.258 NA
ATOM     10  C   UNL     1       5.907   6.480  -2.699  0.00  0.00    +0.112 A 
ATOM     11  C   UNL     1       5.829   5.104  -2.561  0.00  0.00    +0.030 A 
ATOM     12  C   UNL     1       4.752   4.608  -1.814  0.00  0.00    +0.011 A 
ATOM     13  C   UNL     1       4.315   3.296  -1.443  0.00  0.00    +0.008 A 
ATOM     14  C   UNL     1       4.803   1.995  -1.675  0.00  0.00    +0.014 A 
ATOM     15  C   UNL     1       4.105   0.897  -1.154  0.00  0.00    +0.046 A 
ENDROOT
BRANCH   1  17
ATOM     16  C   UNL     1       0.933  -0.037   0.183  0.00  0.00    +0.277 C 
ATOM     17  O   UNL     1       2.348  -0.086   0.024  0.00  0.00    -0.495 OA
ENDBRANCH   1  17
TORSDOF 1
