REMARK  Name = 
REMARK  5 active torsions:
REMARK  status: ('A' for Active; 'I' for Inactive)
REMARK    1  A    between atoms: C_1  and  C_2
REMARK    2  A    between atoms: C_2  and  C_3
REMARK    3  A    between atoms: C_3  and  N_4
REMARK    4  A    between atoms: C_7  and  C_10
REMARK    5  A    between atoms: C_15  and  C_19
REMARK                            x       y       z     vdW  Elec       q    Type
REMARK                         _______ _______ _______ _____ _____    ______ ____
ROOT
ATOM      1  C   UNL     1       6.677  -1.610  -1.838  0.00  0.00    +0.111 A 
ATOM      2  N   UNL     1       7.309  -2.387  -2.780  0.00  0.00    -0.341 N 
ATOM      3  H   UNL     1       6.874  -2.993  -3.467  0.00  0.00    +0.167 HD
ATOM      4  C   UNL     1       8.664  -2.171  -2.686  0.00  0.00    +0.078 A 
ATOM      5  C   UNL     1       9.756  -2.650  -3.424  0.00  0.00    +0.062 A 
ATOM      6  C   UNL     1      11.023  -2.179  -3.037  0.00  0.00    +0.015 A 
ATOM      7  C   UNL     1      11.175  -1.297  -1.961  0.00  0.00    +0.003 A 
ATOM      8  C   UNL     1      10.063  -0.846  -1.241  0.00  0.00    +0.030 A 
ATOM      9  C   UNL     1       8.790  -1.287  -1.624  0.00  0.00    +0.090 A 
ATOM     10  N   UNL     1       7.563  -0.962  -1.108  0.00  0.00    -0.232 NA
ENDROOT
BRANCH   1  14
ATOM     11  N   UNL     1       4.308  -0.807   1.049  0.00  0.00    -0.302 NA
ATOM     12  C   UNL     1       4.863   0.206   0.136  0.00  0.00    +0.085 C 
ATOM     13  C   UNL     1       4.697  -0.122  -1.354  0.00  0.00    +0.026 C 
ATOM     14  C   UNL     1       5.177  -1.535  -1.722  0.00  0.00    +0.057 C 
ATOM     15  C   UNL     1       4.635  -2.562  -0.722  0.00  0.00    +0.026 C 
ATOM     16  C   UNL     1       4.859  -2.130   0.729  0.00  0.00    +0.085 C 
BRANCH  11  17
ATOM     17  C   UNL     1       2.844  -0.749   1.130  0.00  0.00    +0.084 C 
BRANCH  17  19
ATOM     18  C   UNL     1       2.749  -1.234   3.643  0.00  0.00    +0.005 C 
ATOM     19  C   UNL     1       2.232  -1.597   2.257  0.00  0.00    +0.012 C 
ENDBRANCH  17  19
ENDBRANCH  11  17
ENDBRANCH   1  14
BRANCH   5  20
ATOM     20  C   UNL     1       9.516  -3.575  -4.563  0.00  0.00    +0.244 C 
ATOM     21  O   UNL     1       8.375  -3.888  -4.891  0.00  0.00    -0.270 OA
ATOM     22  N   UNL     1      10.594  -4.078  -5.235  0.00  0.00    -0.325 N 
ATOM     23  H   UNL     1      10.405  -4.718  -5.996  0.00  0.00    +0.145 HD
ATOM     24  H   UNL     1      11.556  -3.930  -4.977  0.00  0.00    +0.145 HD
ENDBRANCH   5  20
TORSDOF 4
