REMARK  Name = 
REMARK  9 active torsions:
REMARK  status: ('A' for Active; 'I' for Inactive)
REMARK    1  A    between atoms: C_2  and  C_3
REMARK    2  A    between atoms: C_3  and  S_4
REMARK    3  A    between atoms: S_4  and  C_5
REMARK    4  A    between atoms: C_7  and  O_9
REMARK    5  A    between atoms: O_9  and  C_10
REMARK    6  A    between atoms: C_10  and  C_11
REMARK    7  A    between atoms: C_10  and  C_12
REMARK    8  A    between atoms: C_20  and  O_21
REMARK    9  A    between atoms: O_21  and  C_22
REMARK                            x       y       z     vdW  Elec       q    Type
REMARK                         _______ _______ _______ _____ _____    ______ ____
ROOT
ATOM      1  C   UNL     1       2.053   0.151   0.091  0.00  0.00    +0.146 C 
ATOM      2  C   UNL     1       2.574  -1.040   0.905  0.00  0.00    +0.075 C 
ATOM      3  S   UNL     1       1.611  -2.319   1.395  0.00  0.00    -0.038 S 
ATOM      4  N   UNL     1       3.918  -1.050   1.178  0.00  0.00    -0.309 N 
ATOM      5  H   UNL     1       4.322  -1.888   1.581  0.00  0.00    +0.152 HD
ATOM      6  C   UNL     1       4.660   0.141   1.172  0.00  0.00    +0.054 A 
ATOM      7  C   UNL     1       6.032   0.087   1.418  0.00  0.00    +0.029 A 
ATOM      8  C   UNL     1       6.775   1.268   1.476  0.00  0.00    +0.047 A 
ATOM      9  C   UNL     1       6.141   2.502   1.324  0.00  0.00    +0.122 A 
ATOM     10  C   UNL     1       4.760   2.547   1.100  0.00  0.00    +0.071 A 
ATOM     11  C   UNL     1       4.004   1.375   1.006  0.00  0.00    +0.065 A 
ATOM     12  N   UNL     1       2.596   1.386   0.719  0.00  0.00    -0.225 N 
ATOM     13  C   UNL     1       1.796   2.474   1.049  0.00  0.00    +0.408 C 
ATOM     14  O   UNL     1       2.122   3.370   1.822  0.00  0.00    -0.226 OA
ENDROOT
BRANCH   9  15
ATOM     15  O   UNL     1       6.747   3.728   1.367  0.00  0.00    -0.495 OA
ATOM     16  C   UNL     1       8.164   3.747   1.471  0.00  0.00    +0.277 C 
ENDBRANCH   9  15
BRANCH  13  17
ATOM     17  O   UNL     1       0.580   2.462   0.422  0.00  0.00    -0.447 OA
BRANCH  17  18
ATOM     18  C   UNL     1      -0.280   3.580   0.741  0.00  0.00    +0.172 C 
ATOM     19  C   UNL     1      -1.699   3.217   0.317  0.00  0.00    +0.052 C 
ATOM     20  C   UNL     1       0.172   4.846   0.014  0.00  0.00    +0.052 C 
ENDBRANCH  17  18
ENDBRANCH  13  17
BRANCH   1  21
ATOM     21  C   UNL     1       2.479   0.074  -1.397  0.00  0.00    +0.098 C 
BRANCH  21  22
ATOM     22  S   UNL     1       2.066  -1.461  -2.312  0.00  0.00    -0.162 S 
ATOM     23  C   UNL     1       0.260  -1.369  -2.312  0.00  0.00    +0.084 C 
ENDBRANCH  21  22
ENDBRANCH   1  21
TORSDOF 5
