REMARK  Name = 
REMARK  11 active torsions:
REMARK  status: ('A' for Active; 'I' for Inactive)
REMARK    1  A    between atoms: C_2  and  N_3
REMARK    2  A    between atoms: C_6  and  C_8
REMARK    3  A    between atoms: C_8  and  N_9
REMARK    4  A    between atoms: N_9  and  C_10
REMARK    5  A    between atoms: C_10  and  C_11
REMARK    6  A    between atoms: C_11  and  N_12
REMARK    7  A    between atoms: N_18  and  C_19
REMARK    8  A    between atoms: C_19  and  C_20
REMARK    9  A    between atoms: C_20  and  C_23
REMARK   10  A    between atoms: C_29  and  O_31
REMARK   11  A    between atoms: C_32  and  C_34
REMARK                            x       y       z     vdW  Elec       q    Type
REMARK                         _______ _______ _______ _____ _____    ______ ____
ROOT
ATOM      1  N   UNL     1       8.140   1.096  -4.934  0.00  0.00    -0.282 N 
ATOM      2  C   UNL     1       8.699   2.441  -4.884  0.00  0.00    +0.322 C 
ATOM      3  C   UNL     1      10.267   2.456  -4.679  0.00  0.00    +0.334 C 
ATOM      4  N   UNL     1      10.874   3.700  -4.598  0.00  0.00    -0.227 N 
ATOM      5  H   UNL     1      10.256   4.507  -4.582  0.00  0.00    +0.291 HD
ATOM      6  N   UNL     1      10.997   1.371  -4.626  0.00  0.00    -0.047 NA
ATOM      7  C   UNL     1      10.349   0.176  -4.819  0.00  0.00    +0.289 C 
ATOM      8  C   UNL     1       9.024   0.030  -4.977  0.00  0.00    +0.143 C 
ATOM      9 CL   UNL     1       8.380  -1.529  -5.326  0.00  0.00    -0.063 Cl
ENDROOT
BRANCH   2  10
ATOM     10  O   UNL     1       8.397   3.077  -6.109  0.00  0.00    -0.364 OA
ATOM     11  H   UNL     1       8.638   2.396  -6.762  0.00  0.00    +0.212 HD
ENDBRANCH   2  10
BRANCH   1  12
ATOM     12  C   UNL     1       6.672   1.018  -4.941  0.00  0.00    +0.124 C 
BRANCH  12  13
ATOM     13  C   UNL     1       6.099   0.341  -3.678  0.00  0.00    +0.100 C 
BRANCH  13  14
ATOM     14  N   UNL     1       4.629   0.340  -3.697  0.00  0.00    -0.314 NA
ATOM     15  H   UNL     1       4.281   1.297  -3.652  0.00  0.00    +0.122 HD
BRANCH  14  16
ATOM     16  C   UNL     1       4.093  -0.434  -2.572  0.00  0.00    +0.086 C 
BRANCH  16  22
ATOM     17  C   UNL     1       2.027  -3.444  -2.647  0.00  0.00    +0.119 C 
ATOM     18  N   UNL     1       2.297  -2.718  -1.430  0.00  0.00    -0.299 NA
ATOM     19  H   UNL     1       1.931  -3.203  -0.619  0.00  0.00    +0.124 HD
ATOM     20  C   UNL     1       2.017  -1.282  -1.396  0.00  0.00    +0.056 C 
ATOM     21  C   UNL     1       0.541  -0.970  -1.118  0.00  0.00    +0.024 C 
ATOM     22  C   UNL     1       2.550  -0.537  -2.644  0.00  0.00    +0.020 C 
ATOM     23  C   UNL     1       2.062  -1.234  -3.927  0.00  0.00    +0.009 C 
ATOM     24  C   UNL     1       2.444  -2.713  -3.929  0.00  0.00    +0.035 C 
BRANCH  17  25
ATOM     25  N   UNL     1       0.627  -3.785  -2.644  0.00  0.00    -0.316 NA
ATOM     26  H   UNL     1       0.330  -3.988  -1.697  0.00  0.00    +0.120 HD
ATOM     27  H   UNL     1       0.077  -2.999  -2.971  0.00  0.00    +0.120 HD
ENDBRANCH  17  25
ENDBRANCH  16  22
ENDBRANCH  14  16
ENDBRANCH  13  14
ENDBRANCH  12  13
ENDBRANCH   1  12
BRANCH   4  28
ATOM     28  C   UNL     1      12.156   3.892  -3.903  0.00  0.00    +0.305 C 
BRANCH  28  29
ATOM     29  C   UNL     1      11.971   4.233  -2.408  0.00  0.00    +0.325 C 
ATOM     30  F   UNL     1      11.105   3.326  -1.851  0.00  0.00    -0.194 F 
ATOM     31  F   UNL     1      11.304   5.431  -2.332  0.00  0.00    -0.194 F 
BRANCH  29  32
ATOM     32  C   UNL     1      13.304   4.277  -1.672  0.00  0.00    +0.113 A 
ATOM     33  C   UNL     1      13.349   3.934  -0.321  0.00  0.00    +0.029 A 
ATOM     34  C   UNL     1      14.573   3.954   0.343  0.00  0.00    +0.003 A 
ATOM     35  C   UNL     1      15.718   4.325  -0.351  0.00  0.00    +0.020 A 
ATOM     36  C   UNL     1      15.592   4.677  -1.684  0.00  0.00    +0.111 A 
ATOM     37  N   UNL     1      14.417   4.669  -2.353  0.00  0.00    -0.254 NA
ENDBRANCH  29  32
ENDBRANCH  28  29
ENDBRANCH   4  28
TORSDOF 10
