REMARK  Name = 
REMARK  5 active torsions:
REMARK  status: ('A' for Active; 'I' for Inactive)
REMARK    1  A    between atoms: N_1  and  S_2
REMARK    2  A    between atoms: S_2  and  C_5
REMARK    3  A    between atoms: C_8  and  N_9
REMARK    4  A    between atoms: N_9  and  C_10
REMARK    5  A    between atoms: N_13  and  C_14
REMARK                            x       y       z     vdW  Elec       q    Type
REMARK                         _______ _______ _______ _____ _____    ______ ____
ROOT
ATOM      1  C   UNL     1       4.243   4.808  -4.338  0.00  0.00    +0.131 A 
ATOM      2  N   UNL     1       4.551   5.982  -5.049  0.00  0.00    -0.182 N 
ATOM      3  C   UNL     1       4.974   5.933  -6.384  0.00  0.00    +0.256 A 
ATOM      4  N   UNL     1       5.194   7.161  -6.811  0.00  0.00    -0.197 NA
ATOM      5  C   UNL     1       4.896   7.931  -5.729  0.00  0.00    +0.247 A 
ATOM      6  N   UNL     1       5.123   4.749  -7.048  0.00  0.00    -0.196 NA
ATOM      7  C   UNL     1       4.794   3.654  -6.414  0.00  0.00    +0.126 A 
ATOM      8  N   UNL     1       4.951   2.418  -7.007  0.00  0.00    -0.326 N 
ATOM      9  H   UNL     1       4.648   1.630  -6.449  0.00  0.00    +0.148 HD
ATOM     10  N   UNL     1       4.508   7.282  -4.634  0.00  0.00    -0.151 NA
ATOM     11  C   UNL     1       4.280   3.648  -5.004  0.00  0.00    +0.087 A 
ENDROOT
BRANCH   8  12
ATOM     12  C   UNL     1       6.081   2.105  -7.881  0.00  0.00    +0.072 C 
ATOM     13  C   UNL     1       5.989   0.629  -8.313  0.00  0.00    +0.022 C 
ATOM     14  C   UNL     1       6.291  -0.359  -7.180  0.00  0.00    +0.002 C 
ATOM     15  C   UNL     1       7.601  -0.046  -6.464  0.00  0.00    +0.000 C 
ATOM     16  C   UNL     1       7.666   1.408  -6.007  0.00  0.00    +0.002 C 
ATOM     17  C   UNL     1       7.423   2.362  -7.175  0.00  0.00    +0.022 C 
ENDBRANCH   8  12
BRANCH   1  18
ATOM     18  N   UNL     1       3.890   4.885  -2.990  0.00  0.00    -0.299 N 
ATOM     19  H   UNL     1       3.392   5.767  -2.815  0.00  0.00    +0.154 HD
BRANCH  18  23
ATOM     20  C   UNL     1       6.701   4.741   0.175  0.00  0.00    +0.105 A 
ATOM     21  C   UNL     1       5.354   5.001   0.428  0.00  0.00    +0.030 A 
ATOM     22  C   UNL     1       4.442   5.008  -0.631  0.00  0.00    +0.025 A 
ATOM     23  C   UNL     1       4.864   4.772  -1.950  0.00  0.00    +0.032 A 
ATOM     24  C   UNL     1       6.206   4.410  -2.166  0.00  0.00    +0.025 A 
ATOM     25  C   UNL     1       7.127   4.407  -1.112  0.00  0.00    +0.030 A 
BRANCH  20  26
ATOM     26  S   UNL     1       7.878   4.921   1.485  0.00  0.00    +0.056 S 
ATOM     27  O   UNL     1       7.225   5.481   2.643  0.00  0.00    -0.153 OA
ATOM     28  O   UNL     1       8.696   3.733   1.538  0.00  0.00    -0.153 OA
BRANCH  26  29
ATOM     29  N   UNL     1       8.862   6.153   0.896  0.00  0.00    -0.204 NA
ATOM     30  H   UNL     1       8.661   7.027   1.384  0.00  0.00    +0.144 HD
ATOM     31  H   UNL     1       9.841   5.869   0.949  0.00  0.00    +0.144 HD
ENDBRANCH  26  29
ENDBRANCH  20  26
ENDBRANCH  18  23
ENDBRANCH   1  18
TORSDOF 5
