REMARK  Name = 
REMARK  8 active torsions:
REMARK  status: ('A' for Active; 'I' for Inactive)
REMARK    1  A    between atoms: C_2  and  C_3
REMARK    2  A    between atoms: C_2  and  C_7
REMARK    3  A    between atoms: C_2  and  S_10
REMARK    4  A    between atoms: C_3  and  C_4
REMARK    5  A    between atoms: C_4  and  O_5
REMARK    6  A    between atoms: S_10  and  C_13
REMARK    7  A    between atoms: C_16  and  O_17
REMARK    8  A    between atoms: O_17  and  C_18
REMARK                            x       y       z     vdW  Elec       q    Type
REMARK                         _______ _______ _______ _____ _____    ______ ____
ROOT
ATOM      1  S   UNL     1       2.645   1.720  -0.305  0.00  0.00    +0.006 S 
ATOM      2  O   UNL     1       2.225   2.428   0.887  0.00  0.00    -0.169 OA
ATOM      3  O   UNL     1       2.242   2.229  -1.613  0.00  0.00    -0.169 OA
ENDROOT
BRANCH   1   4
ATOM      4  C   UNL     1       4.423   1.683  -0.318  0.00  0.00    +0.089 A 
ATOM      5  C   UNL     1       5.128   1.895   0.869  0.00  0.00    +0.030 A 
ATOM      6  C   UNL     1       6.524   1.790   0.879  0.00  0.00    +0.047 A 
ATOM      7  C   UNL     1       7.215   1.510  -0.300  0.00  0.00    +0.120 A 
ATOM      8  C   UNL     1       6.501   1.363  -1.495  0.00  0.00    +0.047 A 
ATOM      9  C   UNL     1       5.107   1.459  -1.515  0.00  0.00    +0.030 A 
BRANCH   7  10
ATOM     10  O   UNL     1       8.562   1.304  -0.408  0.00  0.00    -0.495 OA
ATOM     11  C   UNL     1       9.385   1.868   0.606  0.00  0.00    +0.277 C 
ENDBRANCH   7  10
ENDBRANCH   1   4
BRANCH   1  12
ATOM     12  C   UNL     1       2.097   0.027  -0.149  0.00  0.00    +0.212 C 
BRANCH  12  13
ATOM     13  C   UNL     1       2.566  -0.520   1.175  0.00  0.00    +0.366 C 
ATOM     14  F   UNL     1       3.915  -0.631   1.195  0.00  0.00    -0.207 F 
ATOM     15  F   UNL     1       2.105  -1.794   1.316  0.00  0.00    -0.207 F 
ENDBRANCH  12  13
BRANCH  12  16
ATOM     16  C   UNL     1       0.558  -0.081  -0.189  0.00  0.00    +0.152 C 
BRANCH  16  17
ATOM     17  C   UNL     1      -0.055   0.466  -1.452  0.00  0.00    +0.307 C 
ATOM     18  O   UNL     1      -1.145   0.993  -1.535  0.00  0.00    -0.251 OA
BRANCH  17  19
ATOM     19  O   UNL     1       0.791   0.345  -2.493  0.00  0.00    -0.481 OA
ATOM     20  H   UNL     1       0.905   1.258  -2.844  0.00  0.00    +0.295 HD
ENDBRANCH  17  19
ENDBRANCH  16  17
ENDBRANCH  12  16
ENDBRANCH   1  12
TORSDOF 7
