REMARK  Name = 
REMARK  9 active torsions:
REMARK  status: ('A' for Active; 'I' for Inactive)
REMARK    1  A    between atoms: C_1  and  C_2
REMARK    2  A    between atoms: C_2  and  O_3
REMARK    3  A    between atoms: O_3  and  C_4
REMARK    4  A    between atoms: C_7  and  C_8
REMARK    5  A    between atoms: C_8  and  C_9
REMARK    6  A    between atoms: C_9  and  N_10
REMARK    7  A    between atoms: N_10  and  C_11
REMARK    8  A    between atoms: C_11  and  N_13
REMARK    9  A    between atoms: C_17  and  C_20
REMARK                            x       y       z     vdW  Elec       q    Type
REMARK                         _______ _______ _______ _____ _____    ______ ____
ROOT
ATOM      1  N   UNL     1       5.838  -6.757   0.191  0.00  0.00    -0.326 N 
ATOM      2  H   UNL     1       6.771  -7.017  -0.129  0.00  0.00    +0.148 HD
ENDROOT
BRANCH   1   3
ATOM      3  C   UNL     1       4.902  -7.748   0.052  0.00  0.00    +0.136 C 
ATOM      4  S   UNL     1       3.242  -7.549   0.174  0.00  0.00    -0.019 S 
BRANCH   3   5
ATOM      5  N   UNL     1       5.344  -9.023  -0.138  0.00  0.00    -0.282 N 
ATOM      6  H   UNL     1       4.605  -9.712  -0.077  0.00  0.00    +0.155 HD
ATOM      7  C   UNL     1       6.607  -9.485  -0.514  0.00  0.00    +0.124 A 
ATOM      8  C   UNL     1       6.797 -10.866  -0.565  0.00  0.00    +0.045 A 
ATOM      9  C   UNL     1       8.022 -11.367  -1.004  0.00  0.00    +0.024 A 
ATOM     10  C   UNL     1       9.015 -10.476  -1.403  0.00  0.00    +0.070 A 
ATOM     11  C   UNL     1       8.740  -9.120  -1.326  0.00  0.00    +0.131 A 
ATOM     12  N   UNL     1       7.569  -8.607  -0.872  0.00  0.00    -0.239 NA
BRANCH  10  13
ATOM     13  C   UNL     1      10.276 -10.936  -1.888  0.00  0.00    +0.101 C 
ATOM     14  N   UNL     1      11.302 -11.312  -2.281  0.00  0.00    -0.191 NA
ENDBRANCH  10  13
ENDBRANCH   3   5
ENDBRANCH   1   3
BRANCH   1  15
ATOM     15  C   UNL     1       5.506  -5.339   0.320  0.00  0.00    +0.109 C 
BRANCH  15  16
ATOM     16  C   UNL     1       6.681  -4.391   0.559  0.00  0.00    +0.077 C 
BRANCH  16  21
ATOM     17  C   UNL     1       5.128  -1.171   1.874  0.00  0.00    +0.159 A 
ATOM     18  C   UNL     1       4.922  -0.509   0.667  0.00  0.00    +0.068 A 
ATOM     19  C   UNL     1       5.360  -1.119  -0.499  0.00  0.00    +0.115 A 
ATOM     20  N   UNL     1       5.964  -2.329  -0.545  0.00  0.00    -0.257 NA
ATOM     21  C   UNL     1       6.150  -2.976   0.634  0.00  0.00    +0.081 A 
ATOM     22  C   UNL     1       5.754  -2.422   1.850  0.00  0.00    +0.186 A 
ATOM     23  F   UNL     1       5.944  -3.102   2.992  0.00  0.00    -0.200 F 
BRANCH  17  24
ATOM     24  O   UNL     1       4.755  -0.705   3.108  0.00  0.00    -0.489 OA
BRANCH  24  26
ATOM     25  C   UNL     1       3.739   0.840   4.619  0.00  0.00    +0.048 C 
ATOM     26  C   UNL     1       4.051   0.536   3.164  0.00  0.00    +0.226 C 
ENDBRANCH  24  26
ENDBRANCH  17  24
ENDBRANCH  16  21
ENDBRANCH  15  16
ENDBRANCH   1  15
TORSDOF 8
