REMARK  Name = 
REMARK  5 active torsions:
REMARK  status: ('A' for Active; 'I' for Inactive)
REMARK    1  A    between atoms: O_1  and  C_2
REMARK    2  A    between atoms: C_2  and  C_4
REMARK    3  A    between atoms: C_9  and  N_10
REMARK    4  A    between atoms: N_11  and  C_12
REMARK    5  A    between atoms: C_15  and  O_16
REMARK                            x       y       z     vdW  Elec       q    Type
REMARK                         _______ _______ _______ _____ _____    ______ ____
ROOT
ATOM      1  C   UNL     1       3.220   0.801   1.060  0.00  0.00    +0.086 A 
ATOM      2  C   UNL     1       4.150   0.201   1.931  0.00  0.00    +0.100 A 
ATOM      3  C   UNL     1       4.801   1.027   2.868  0.00  0.00    +0.030 A 
ATOM      4  C   UNL     1       4.514   2.389   2.967  0.00  0.00    +0.002 A 
ATOM      5  C   UNL     1       3.579   2.963   2.115  0.00  0.00    +0.001 A 
ATOM      6  C   UNL     1       2.944   2.177   1.157  0.00  0.00    +0.017 A 
ENDROOT
BRANCH   1   7
ATOM      7  C   UNL     1       2.506   0.062  -0.018  0.00  0.00    +0.339 C 
ATOM      8  O   UNL     1       2.127   0.612  -1.039  0.00  0.00    -0.245 OA
BRANCH   7   9
ATOM      9  O   UNL     1       2.232  -1.231   0.251  0.00  0.00    -0.477 OA
ATOM     10  H   UNL     1       2.611  -1.564   1.088  0.00  0.00    +0.295 HD
ENDBRANCH   7   9
ENDBRANCH   1   7
BRANCH   2  11
ATOM     11  N   UNL     1       4.423  -1.186   1.833  0.00  0.00    -0.148 NA
ATOM     12  N   UNL     1       4.883  -1.659   2.894  0.00  0.00    -0.149 NA
BRANCH  12  13
ATOM     13  C   UNL     1       5.093  -3.049   2.818  0.00  0.00    +0.086 A 
ATOM     14  C   UNL     1       4.768  -3.827   3.936  0.00  0.00    +0.033 A 
ATOM     15  C   UNL     1       4.917  -5.214   3.907  0.00  0.00    +0.047 A 
ATOM     16  C   UNL     1       5.400  -5.827   2.757  0.00  0.00    +0.117 A 
ATOM     17  C   UNL     1       5.781  -5.072   1.653  0.00  0.00    +0.047 A 
ATOM     18  C   UNL     1       5.636  -3.683   1.690  0.00  0.00    +0.033 A 
BRANCH  16  19
ATOM     19  O   UNL     1       5.477  -7.186   2.748  0.00  0.00    -0.507 OA
ATOM     20  H   UNL     1       5.669  -7.480   1.841  0.00  0.00    +0.292 HD
ENDBRANCH  16  19
ENDBRANCH  12  13
ENDBRANCH   2  11
TORSDOF 5
