REMARK  Name = 
REMARK  10 active torsions:
REMARK  status: ('A' for Active; 'I' for Inactive)
REMARK    1  A    between atoms: C_2  and  N_15
REMARK    2  A    between atoms: C_8  and  S_11
REMARK    3  A    between atoms: S_11  and  N_12
REMARK    4  A    between atoms: C_16  and  C_18
REMARK    5  A    between atoms: C_18  and  C_19
REMARK    6  A    between atoms: C_18  and  C_22
REMARK    7  A    between atoms: C_19  and  C_20
REMARK    8  A    between atoms: C_20  and  C_21
REMARK    9  A    between atoms: C_22  and  C_23
REMARK   10  A    between atoms: C_23  and  C_24
REMARK                            x       y       z     vdW  Elec       q    Type
REMARK                         _______ _______ _______ _____ _____    ______ ____
ROOT
ATOM      1  C   UNL     1       2.166   0.026   0.008  0.00  0.00    +0.082 C 
ATOM      2  C   UNL     1       0.630   0.119   0.147  0.00  0.00    +0.058 C 
ATOM      3  C   UNL     1       0.261  -1.141   0.857  0.00  0.00    -0.041 A 
ATOM      4  C   UNL     1      -1.016  -1.570   1.178  0.00  0.00    +0.032 A 
ATOM      5  C   UNL     1      -1.146  -2.739   1.934  0.00  0.00    +0.105 A 
ATOM      6  C   UNL     1      -0.022  -3.479   2.335  0.00  0.00    +0.029 A 
ATOM      7  C   UNL     1       1.258  -3.036   1.996  0.00  0.00    +0.006 A 
ATOM      8  C   UNL     1       1.381  -1.869   1.254  0.00  0.00    -0.042 A 
ATOM      9  C   UNL     1       2.652  -1.202   0.824  0.00  0.00    +0.058 C 
ENDROOT
BRANCH   1  10
ATOM     10  N   UNL     1       2.571  -0.024  -1.396  0.00  0.00    -0.312 N 
ATOM     11  H   UNL     1       1.913  -0.374  -2.080  0.00  0.00    +0.149 HD
ATOM     12  C   UNL     1       3.890   0.138  -1.763  0.00  0.00    +0.216 C 
ATOM     13  O   UNL     1       4.783   0.354  -0.950  0.00  0.00    -0.276 OA
BRANCH  12  14
ATOM     14  C   UNL     1       4.131   0.098  -3.274  0.00  0.00    +0.075 C 
BRANCH  14  15
ATOM     15  C   UNL     1       5.457  -0.617  -3.585  0.00  0.00    +0.012 C 
BRANCH  15  16
ATOM     16  C   UNL     1       5.463  -2.085  -3.149  0.00  0.00    -0.003 C 
ATOM     17  C   UNL     1       6.793  -2.742  -3.487  0.00  0.00    +0.004 C 
ENDBRANCH  15  16
ENDBRANCH  14  15
BRANCH  14  18
ATOM     18  C   UNL     1       4.121   1.557  -3.782  0.00  0.00    +0.012 C 
BRANCH  18  19
ATOM     19  C   UNL     1       4.282   1.694  -5.299  0.00  0.00    -0.003 C 
ATOM     20  C   UNL     1       4.290   3.152  -5.736  0.00  0.00    +0.004 C 
ENDBRANCH  18  19
ENDBRANCH  14  18
ENDBRANCH  12  14
ENDBRANCH   1  10
BRANCH   5  21
ATOM     21  S   UNL     1      -2.760  -3.271   2.411  0.00  0.00    +0.056 S 
ATOM     22  O   UNL     1      -2.724  -4.675   2.750  0.00  0.00    -0.153 OA
ATOM     23  O   UNL     1      -3.737  -2.717   1.504  0.00  0.00    -0.153 OA
BRANCH  21  24
ATOM     24  N   UNL     1      -2.954  -2.449   3.862  0.00  0.00    -0.204 NA
ATOM     25  H   UNL     1      -3.043  -3.110   4.634  0.00  0.00    +0.144 HD
ATOM     26  H   UNL     1      -3.718  -1.778   3.789  0.00  0.00    +0.144 HD
ENDBRANCH  21  24
ENDBRANCH   5  21
TORSDOF 8
