REMARK  Name = 
REMARK  6 active torsions:
REMARK  status: ('A' for Active; 'I' for Inactive)
REMARK    1  A    between atoms: C_2  and  N_3
REMARK    2  A    between atoms: C_2  and  C_16
REMARK    3  A    between atoms: C_2  and  C_25
REMARK    4  A    between atoms: N_3  and  S_4
REMARK    5  A    between atoms: S_4  and  C_7
REMARK    6  A    between atoms: N_18  and  C_19
REMARK                            x       y       z     vdW  Elec       q    Type
REMARK                         _______ _______ _______ _____ _____    ______ ____
ROOT
ATOM      1  C   UNL     1       2.151  -0.053  -0.071  0.00  0.00    +0.192 C 
ENDROOT
BRANCH   1   2
ATOM      2  C   UNL     1       2.552   1.401   0.149  0.00  0.00    -0.020 A 
ATOM      3  C   UNL     1       1.777   2.415  -0.442  0.00  0.00    +0.006 A 
ATOM      4  C   UNL     1       2.125   3.757  -0.292  0.00  0.00    +0.000 A 
ATOM      5  C   UNL     1       3.257   4.104   0.441  0.00  0.00    +0.000 A 
ATOM      6  C   UNL     1       4.041   3.111   1.025  0.00  0.00    +0.000 A 
ATOM      7  C   UNL     1       3.694   1.766   0.881  0.00  0.00    +0.006 A 
ENDBRANCH   1   2
BRANCH   1   8
ATOM      8  C   UNL     1       2.649  -0.550  -1.443  0.00  0.00    +0.240 C 
ATOM      9  N   UNL     1       4.031  -0.629  -1.569  0.00  0.00    -0.284 N 
ATOM     10  H   UNL     1       4.579  -0.308  -0.777  0.00  0.00    +0.155 HD
ATOM     11  O   UNL     1       1.841  -0.860  -2.316  0.00  0.00    -0.273 OA
BRANCH   9  12
ATOM     12  C   UNL     1       4.753  -1.077  -2.702  0.00  0.00    +0.036 A 
ATOM     13  C   UNL     1       6.147  -1.069  -2.645  0.00  0.00    +0.043 A 
ATOM     14  C   UNL     1       6.859  -1.533  -3.743  0.00  0.00    +0.112 A 
ATOM     15  N   UNL     1       6.286  -1.997  -4.872  0.00  0.00    -0.263 NA
ATOM     16  C   UNL     1       4.940  -1.988  -4.907  0.00  0.00    +0.112 A 
ATOM     17  C   UNL     1       4.144  -1.545  -3.864  0.00  0.00    +0.043 A 
ENDBRANCH   9  12
ENDBRANCH   1   8
BRANCH   1  18
ATOM     18  N   UNL     1       2.557  -0.928   1.051  0.00  0.00    -0.174 NA
ATOM     19  H   UNL     1       2.379  -0.552   1.984  0.00  0.00    +0.149 HD
BRANCH  18  20
ATOM     20  S   UNL     1       2.059  -2.539   1.000  0.00  0.00    +0.061 S 
ATOM     21  O   UNL     1       0.861  -2.603   0.193  0.00  0.00    -0.153 OA
ATOM     22  O   UNL     1       2.052  -3.012   2.365  0.00  0.00    -0.153 OA
BRANCH  20  23
ATOM     23  C   UNL     1       3.359  -3.352   0.159  0.00  0.00    +0.133 A 
ATOM     24  C   UNL     1       4.691  -3.334   0.631  0.00  0.00    +0.126 A 
ATOM     25  C   UNL     1       5.781  -4.006  -0.173  0.00  0.00    +0.102 A 
ATOM     26  N   UNL     1       6.994  -3.903   0.390  0.00  0.00    -0.191 NA
ATOM     27  S   UNL     1       6.787  -3.086   1.817  0.00  0.00    +0.117 S 
ATOM     28  C   UNL     1       5.495  -4.649  -1.400  0.00  0.00    +0.031 A 
ATOM     29  C   UNL     1       4.151  -4.633  -1.813  0.00  0.00    +0.004 A 
ATOM     30  N   UNL     1       5.166  -2.746   1.742  0.00  0.00    -0.189 NA
ATOM     31  C   UNL     1       3.123  -4.016  -1.065  0.00  0.00    +0.031 A 
ENDBRANCH  20  23
ENDBRANCH  18  20
ENDBRANCH   1  18
TORSDOF 6
