REMARK  Name = 
REMARK  4 active torsions:
REMARK  status: ('A' for Active; 'I' for Inactive)
REMARK    1  A    between atoms: C_2  and  C_3
REMARK    2  A    between atoms: C_2  and  N_5
REMARK    3  A    between atoms: C_2  and  C_8
REMARK    4  A    between atoms: C_3  and  C_4
REMARK                            x       y       z     vdW  Elec       q    Type
REMARK                         _______ _______ _______ _____ _____    ______ ____
ROOT
ATOM      1  C   UNL     1       2.070  -0.034   0.069  0.00  0.00    +0.103 C 
ENDROOT
BRANCH   1   2
ATOM      2  C   UNL     1       2.605  -0.848  -1.108  0.00  0.00    -0.027 A 
ATOM      3  C   UNL     1       3.840  -0.504  -1.683  0.00  0.00    +0.005 A 
ATOM      4  C   UNL     1       4.379  -1.261  -2.728  0.00  0.00    +0.000 A 
ATOM      5  C   UNL     1       3.696  -2.375  -3.211  0.00  0.00    +0.000 A 
ATOM      6  C   UNL     1       2.477  -2.737  -2.647  0.00  0.00    +0.000 A 
ATOM      7  C   UNL     1       1.942  -1.986  -1.599  0.00  0.00    +0.005 A 
ENDBRANCH   1   2
BRANCH   1   8
ATOM      8  N   UNL     1       2.637  -0.590   1.289  0.00  0.00    -0.311 N 
ATOM      9  H   UNL     1       2.838  -1.581   1.310  0.00  0.00    +0.149 HD
ATOM     10  C   UNL     1       2.989   0.176   2.367  0.00  0.00    +0.326 C 
ATOM     11  O   UNL     1       2.856   1.387   2.463  0.00  0.00    -0.280 OA
ENDBRANCH   1   8
BRANCH   1  12
ATOM     12  C   UNL     1       0.525   0.002   0.110  0.00  0.00    +0.024 C 
ATOM     13  C   UNL     1      -0.074   0.907   1.176  0.00  0.00    +0.006 C 
ENDBRANCH   1  12
TORSDOF 3
