REMARK  Name = 
REMARK  5 active torsions:
REMARK  status: ('A' for Active; 'I' for Inactive)
REMARK    1  A    between atoms: O_1  and  C_2
REMARK    2  A    between atoms: C_6  and  C_7
REMARK    3  A    between atoms: N_8  and  N_9
REMARK    4  A    between atoms: C_10  and  C_12
REMARK    5  A    between atoms: C_18  and  O_19
REMARK                            x       y       z     vdW  Elec       q    Type
REMARK                         _______ _______ _______ _____ _____    ______ ____
ROOT
ATOM      1  C   UNL     1       2.510   0.054  -0.033  0.00  0.00    +0.148 A 
ATOM      2  C   UNL     1       3.204  -1.162   0.007  0.00  0.00    +0.102 A 
ATOM      3 BR   UNL     1       2.241  -2.806   0.046  0.00  0.00    -0.043 Br
ATOM      4  C   UNL     1       4.608  -1.164   0.020  0.00  0.00    +0.143 A 
ATOM      5  C   UNL     1       5.311   0.054  -0.009  0.00  0.00    +0.038 A 
ATOM      6  C   UNL     1       4.614   1.267  -0.052  0.00  0.00    +0.032 A 
ATOM      7  C   UNL     1       3.218   1.260  -0.063  0.00  0.00    +0.061 A 
ATOM      8 BR   UNL     1       2.301   2.920  -0.118  0.00  0.00    -0.046 Br
ENDROOT
BRANCH   1   9
ATOM      9  O   UNL     1       1.139   0.050  -0.042  0.00  0.00    -0.504 OA
ATOM     10  H   UNL     1       0.825   0.971  -0.066  0.00  0.00    +0.292 HD
ENDBRANCH   1   9
BRANCH   4  11
ATOM     11  O   UNL     1       5.258  -2.372   0.057  0.00  0.00    -0.505 OA
ATOM     12  H   UNL     1       6.232  -2.231   0.076  0.00  0.00    +0.292 HD
ENDBRANCH   4  11
BRANCH   5  13
ATOM     13  C   UNL     1       6.792   0.113   0.003  0.00  0.00    +0.142 C 
ATOM     14  N   UNL     1       7.478  -0.981   0.075  0.00  0.00    -0.187 NA
BRANCH  14  15
ATOM     15  N   UNL     1       8.836  -0.877   0.068  0.00  0.00    -0.203 N 
ATOM     16  H   UNL     1       9.266   0.029  -0.075  0.00  0.00    +0.178 HD
ATOM     17  C   UNL     1       9.572  -2.057   0.078  0.00  0.00    +0.265 C 
ATOM     18  O   UNL     1       9.072  -3.179   0.104  0.00  0.00    -0.268 OA
BRANCH  17  19
ATOM     19  C   UNL     1      11.045  -1.937   0.013  0.00  0.00    +0.056 A 
ATOM     20  C   UNL     1      11.789  -2.975  -0.555  0.00  0.00    +0.016 A 
ATOM     21  C   UNL     1      13.178  -2.882  -0.611  0.00  0.00    +0.020 A 
ATOM     22  C   UNL     1      13.778  -1.747  -0.089  0.00  0.00    +0.111 A 
ATOM     23  N   UNL     1      13.091  -0.729   0.479  0.00  0.00    -0.263 NA
ATOM     24  C   UNL     1      11.742  -0.854   0.530  0.00  0.00    +0.123 A 
ENDBRANCH  17  19
ENDBRANCH  14  15
ENDBRANCH   5  13
TORSDOF 5
