REMARK  Name = 
REMARK  7 active torsions:
REMARK  status: ('A' for Active; 'I' for Inactive)
REMARK    1  A    between atoms: C_1  and  C_2
REMARK    2  A    between atoms: C_7  and  C_8
REMARK    3  A    between atoms: C_8  and  N_9
REMARK    4  A    between atoms: N_9  and  S_10
REMARK    5  A    between atoms: S_10  and  C_13
REMARK    6  A    between atoms: C_15  and  N_16
REMARK    7  A    between atoms: N_16  and  C_17
REMARK                            x       y       z     vdW  Elec       q    Type
REMARK                         _______ _______ _______ _____ _____    ______ ____
ROOT
ATOM      1  S   UNL     1       5.532  -5.158  -0.047  0.00  0.00    +0.059 S 
ATOM      2  O   UNL     1       6.445  -5.300  -1.156  0.00  0.00    -0.153 OA
ATOM      3  O   UNL     1       4.736  -3.958   0.131  0.00  0.00    -0.153 OA
ENDROOT
BRANCH   1   4
ATOM      4  C   UNL     1       4.431  -6.546  -0.055  0.00  0.00    +0.107 A 
ATOM      5  C   UNL     1       3.058  -6.343  -0.204  0.00  0.00    +0.028 A 
ATOM      6  C   UNL     1       2.215  -7.446  -0.329  0.00  0.00    +0.004 A 
ATOM      7  C   UNL     1       2.746  -8.739  -0.310  0.00  0.00    +0.023 A 
ATOM      8  C   UNL     1       4.123  -8.954  -0.166  0.00  0.00    +0.033 A 
ATOM      9  C   UNL     1       4.954  -7.843  -0.026  0.00  0.00    +0.051 A 
BRANCH   8  10
ATOM     10  N   UNL     1       4.607 -10.269  -0.106  0.00  0.00    -0.320 N 
ATOM     11  H   UNL     1       4.061 -10.947  -0.626  0.00  0.00    +0.152 HD
BRANCH  10  12
ATOM     12  C   UNL     1       5.702 -10.740   0.574  0.00  0.00    +0.082 C 
ATOM     13  C   UNL     1       6.146 -12.002   0.574  0.00  0.00    +0.053 C 
ATOM     14  C   UNL     1       7.250 -12.472   1.440  0.00  0.00    +0.336 C 
ATOM     15  O   UNL     1       8.062 -11.786   2.028  0.00  0.00    -0.245 OA
ATOM     16  O   UNL     1       7.184 -13.836   1.466  0.00  0.00    -0.461 OA
ATOM     17  C   UNL     1       5.973 -14.262   0.835  0.00  0.00    +0.237 C 
ATOM     18  C   UNL     1       5.618 -13.179  -0.150  0.00  0.00    +0.084 C 
ENDBRANCH  10  12
ENDBRANCH   8  10
ENDBRANCH   1   4
BRANCH   1  19
ATOM     19  N   UNL     1       6.402  -5.308   1.388  0.00  0.00    -0.184 NA
ATOM     20  H   UNL     1       6.406  -4.422   1.891  0.00  0.00    +0.148 HD
BRANCH  19  21
ATOM     21  C   UNL     1       7.681  -6.038   1.314  0.00  0.00    +0.161 C 
BRANCH  21  25
ATOM     22  C   UNL     1      10.286  -4.191   5.157  0.00  0.00    +0.066 C 
ATOM     23  C   UNL     1       9.626  -5.322   4.433  0.00  0.00    +0.044 A 
ATOM     24  C   UNL     1       8.917  -5.080   3.276  0.00  0.00    +0.048 A 
ATOM     25  C   UNL     1       8.387  -6.186   2.641  0.00  0.00    +0.062 A 
ATOM     26  N   UNL     1       8.540  -7.438   3.126  0.00  0.00    -0.218 NA
ATOM     27  C   UNL     1       9.260  -7.577   4.242  0.00  0.00    +0.213 A 
ATOM     28  N   UNL     1       9.469  -8.851   4.714  0.00  0.00    -0.327 N 
ATOM     29  H   UNL     1       8.783  -9.499   4.350  0.00  0.00    +0.145 HD
ATOM     30  H   UNL     1       9.655  -8.851   5.705  0.00  0.00    +0.145 HD
ATOM     31  N   UNL     1       9.795  -6.564   4.929  0.00  0.00    -0.220 NA
ENDBRANCH  21  25
ENDBRANCH  19  21
ENDBRANCH   1  19
TORSDOF 6
