REMARK  Name = 
REMARK  7 active torsions:
REMARK  status: ('A' for Active; 'I' for Inactive)
REMARK    1  A    between atoms: C_1  and  C_2
REMARK    2  A    between atoms: C_2  and  C_3
REMARK    3  A    between atoms: C_2  and  C_4
REMARK    4  A    between atoms: C_4  and  C_5
REMARK    5  A    between atoms: C_5  and  N_6
REMARK    6  A    between atoms: C_9  and  C_10
REMARK    7  A    between atoms: C_22  and  O_23
REMARK                            x       y       z     vdW  Elec       q    Type
REMARK                         _______ _______ _______ _____ _____    ______ ____
ROOT
ATOM      1  N   UNL     1       5.042   0.679  -2.720  0.00  0.00    -0.307 N 
ATOM      2  C   UNL     1       5.053   2.023  -3.228  0.00  0.00    +0.056 A 
ATOM      3  C   UNL     1       5.409   2.236  -4.572  0.00  0.00    +0.041 A 
ATOM      4  C   UNL     1       5.406   3.542  -5.102  0.00  0.00    +0.013 A 
ATOM      5  C   UNL     1       5.025   4.633  -4.328  0.00  0.00    +0.001 A 
ATOM      6  C   UNL     1       4.668   4.432  -3.005  0.00  0.00    +0.002 A 
ATOM      7  C   UNL     1       5.731   1.094  -5.440  0.00  0.00    +0.146 A 
ATOM      8  C   UNL     1       5.686  -0.166  -4.972  0.00  0.00    +0.174 A 
ATOM      9  C   UNL     1       4.699   3.145  -2.455  0.00  0.00    +0.026 A 
ATOM     10  C   UNL     1       5.319  -0.410  -3.548  0.00  0.00    +0.270 A 
ATOM     11  O   UNL     1       5.269  -1.582  -3.163  0.00  0.00    -0.267 OA
ENDROOT
BRANCH   8  12
ATOM     12  C   UNL     1       5.995  -1.349  -5.880  0.00  0.00    +0.358 C 
ATOM     13  N   UNL     1       6.478  -2.517  -5.327  0.00  0.00    -0.196 N 
ATOM     14  H   UNL     1       6.391  -2.626  -4.314  0.00  0.00    +0.299 HD
ATOM     15  C   UNL     1       6.858  -3.645  -6.052  0.00  0.00    +0.148 A 
ATOM     16  C   UNL     1       6.712  -3.701  -7.430  0.00  0.00    +0.179 A 
ATOM     17  C   UNL     1       7.142  -4.793  -8.191  0.00  0.00    +0.035 A 
ATOM     18  C   UNL     1       7.760  -5.861  -7.551  0.00  0.00    +0.002 A 
ATOM     19  C   UNL     1       7.943  -5.823  -6.169  0.00  0.00    +0.004 A 
ATOM     20  S   UNL     1       5.945  -2.342  -8.229  0.00  0.00    +0.183 S 
ATOM     21  O   UNL     1       6.888  -1.881  -9.232  0.00  0.00    -0.125 OA
ATOM     22  O   UNL     1       4.627  -2.798  -8.621  0.00  0.00    -0.125 OA
ATOM     23  C   UNL     1       7.499  -4.721  -5.426  0.00  0.00    +0.051 A 
ATOM     24  N   UNL     1       5.772  -1.154  -7.148  0.00  0.00    +0.096 NA
ENDBRANCH   8  12
BRANCH   7  25
ATOM     25  O   UNL     1       6.037   1.431  -6.747  0.00  0.00    -0.505 OA
ATOM     26  H   UNL     1       6.002   0.617  -7.292  0.00  0.00    +0.292 HD
ENDBRANCH   7  25
BRANCH   1  27
ATOM     27  C   UNL     1       4.559   0.370  -1.367  0.00  0.00    +0.126 C 
BRANCH  27  28
ATOM     28  C   UNL     1       5.590  -0.344  -0.478  0.00  0.00    +0.024 C 
BRANCH  28  30
ATOM     29  C   UNL     1       6.080  -1.509   1.692  0.00  0.00    +0.007 C 
ATOM     30  C   UNL     1       5.051  -0.671   0.929  0.00  0.00    -0.016 C 
ATOM     31  C   UNL     1       4.708   0.584   1.732  0.00  0.00    +0.007 C 
ENDBRANCH  28  30
ENDBRANCH  27  28
ENDBRANCH   1  27
TORSDOF 5
