REMARK  Name = 
REMARK  6 active torsions:
REMARK  status: ('A' for Active; 'I' for Inactive)
REMARK    1  A    between atoms: CA_2  and  N_3
REMARK    2  A    between atoms: CA_2  and  C_4
REMARK    3  A    between atoms: CA_2  and  C_14
REMARK    4  A    between atoms: C_4  and  C_5
REMARK    5  A    between atoms: C_9  and  O_10
REMARK    6  A    between atoms: C_14  and  O_15
REMARK                            x       y       z     vdW  Elec       q    Type
REMARK                         _______ _______ _______ _____ _____    ______ ____
ROOT
ATOM      1  C   UNL     1       2.100  -2.315  -0.916  0.00  0.00    -0.043 A 
ATOM      2  C   UNL     1       2.921  -3.347  -1.403  0.00  0.00    +0.022 A 
ATOM      3  C   UNL     1       2.542  -4.689  -1.271  0.00  0.00    +0.061 A 
ATOM      4 BR   UNL     1       3.713  -6.025  -1.936  0.00  0.00    -0.046 Br
ATOM      5  C   UNL     1       1.334  -5.019  -0.657  0.00  0.00    +0.145 A 
ATOM      6  C   UNL     1       0.499  -3.999  -0.198  0.00  0.00    +0.061 A 
ATOM      7 BR   UNL     1      -1.150  -4.400   0.652  0.00  0.00    -0.046 Br
ATOM      8  C   UNL     1       0.867  -2.660  -0.345  0.00  0.00    +0.022 A 
ENDROOT
BRANCH   5   9
ATOM      9  O   UNL     1       0.980  -6.334  -0.513  0.00  0.00    -0.505 OA
ATOM     10  H   UNL     1       0.139  -6.361  -0.021  0.00  0.00    +0.292 HD
ENDBRANCH   5   9
BRANCH   1  11
ATOM     11  C   UNL     1       2.558  -0.876  -1.057  0.00  0.00    +0.065 C 
BRANCH  11  12
ATOM     12  CA  UNL     1       2.116   0.116   0.040  0.00  0.00    +0.165 C 
BRANCH  12  13
ATOM     13  N   UNL     1       2.496   1.493  -0.357  0.00  0.00    -0.318 NA
ATOM     14  H1  UNL     1       2.124   2.210   0.261  0.00  0.00    +0.119 HD
ATOM     15  H2  UNL     1       3.477   1.609  -0.595  0.00  0.00    +0.119 HD
ENDBRANCH  12  13
BRANCH  12  16
ATOM     16  C   UNL     1       2.703  -0.271   1.416  0.00  0.00    +0.322 C 
ATOM     17  OXT UNL     1       2.456  -1.310   2.010  0.00  0.00    -0.249 OA
BRANCH  16  18
ATOM     18  O   UNL     1       3.523   0.665   1.946  0.00  0.00    -0.480 OA
ATOM     19  H   UNL     1       3.587   1.437   1.357  0.00  0.00    +0.295 HD
ENDBRANCH  16  18
ENDBRANCH  12  16
ENDBRANCH  11  12
ENDBRANCH   1  11
TORSDOF 6
