REMARK  Name = 
REMARK  9 active torsions:
REMARK  status: ('A' for Active; 'I' for Inactive)
REMARK    1  A    between atoms: O_1  and  N_2
REMARK    2  A    between atoms: C_6  and  O_7
REMARK    3  A    between atoms: O_7  and  C_8
REMARK    4  A    between atoms: C_8  and  C_9
REMARK    5  A    between atoms: C_9  and  O_10
REMARK    6  A    between atoms: C_18  and  O_19
REMARK    7  A    between atoms: O_19  and  C_20
REMARK    8  A    between atoms: C_20  and  C_21
REMARK    9  A    between atoms: C_21  and  O_22
REMARK                            x       y       z     vdW  Elec       q    Type
REMARK                         _______ _______ _______ _____ _____    ______ ____
ROOT
ATOM      1  N   UNL     1       2.504   0.094  -0.094  0.00  0.00    -0.086 NA
ATOM      2  C   UNL     1       3.026   0.263   1.079  0.00  0.00    +0.118 C 
ATOM      3  C   UNL     1       2.409   0.455   2.422  0.00  0.00    +0.015 A 
ATOM      4  C   UNL     1       1.080   0.519   2.819  0.00  0.00    +0.056 A 
ATOM      5  C   UNL     1       0.803   0.709   4.175  0.00  0.00    +0.122 A 
ATOM      6  C   UNL     1       1.856   0.804   5.103  0.00  0.00    +0.046 A 
ATOM      7  C   UNL     1       3.194   0.744   4.694  0.00  0.00    +0.013 A 
ATOM      8  C   UNL     1       3.466   0.570   3.345  0.00  0.00    -0.008 A 
ATOM      9  C   UNL     1       4.730   0.467   2.650  0.00  0.00    -0.008 A 
ATOM     10  C   UNL     1       6.032   0.525   3.114  0.00  0.00    +0.013 A 
ATOM     11  C   UNL     1       7.083   0.389   2.192  0.00  0.00    +0.046 A 
ATOM     12  C   UNL     1       6.833   0.192   0.819  0.00  0.00    +0.122 A 
ATOM     13  C   UNL     1       5.515   0.155   0.351  0.00  0.00    +0.056 A 
ATOM     14  C   UNL     1       4.495   0.285   1.282  0.00  0.00    +0.015 A 
ENDROOT
BRANCH   1  15
ATOM     15  O   UNL     1       1.110   0.095  -0.071  0.00  0.00    -0.409 OA
ATOM     16  H   UNL     1       0.886  -0.055  -1.008  0.00  0.00    +0.328 HD
ENDBRANCH   1  15
BRANCH   5  17
ATOM     17  O   UNL     1      -0.459   0.770   4.717  0.00  0.00    -0.481 OA
BRANCH  17  18
ATOM     18  C   UNL     1      -1.474   1.279   3.842  0.00  0.00    +0.349 C 
BRANCH  18  19
ATOM     19  C   UNL     1      -2.800   1.362   4.584  0.00  0.00    +0.343 C 
ATOM     20  O   UNL     1      -3.828   1.806   4.093  0.00  0.00    -0.247 OA
BRANCH  19  21
ATOM     21  O   UNL     1      -2.745   0.877   5.847  0.00  0.00    -0.478 OA
ATOM     22  H   UNL     1      -1.833   0.565   6.042  0.00  0.00    +0.295 HD
ENDBRANCH  19  21
ENDBRANCH  18  19
ENDBRANCH  17  18
ENDBRANCH   5  17
BRANCH  12  23
ATOM     23  O   UNL     1       7.808   0.072  -0.141  0.00  0.00    -0.481 OA
BRANCH  23  24
ATOM     24  C   UNL     1       9.049  -0.482   0.313  0.00  0.00    +0.349 C 
BRANCH  24  25
ATOM     25  C   UNL     1      10.026  -0.614  -0.845  0.00  0.00    +0.343 C 
ATOM     26  O   UNL     1      11.147  -1.092  -0.736  0.00  0.00    -0.247 OA
BRANCH  25  27
ATOM     27  O   UNL     1       9.548  -0.132  -2.016  0.00  0.00    -0.478 OA
ATOM     28  H   UNL     1       8.635   0.208  -1.890  0.00  0.00    +0.295 HD
ENDBRANCH  25  27
ENDBRANCH  24  25
ENDBRANCH  23  24
ENDBRANCH  12  23
TORSDOF 9
