REMARK  Name = 
REMARK  6 active torsions:
REMARK  status: ('A' for Active; 'I' for Inactive)
REMARK    1  A    between atoms: C_2  and  C_3
REMARK    2  A    between atoms: C_2  and  N_4
REMARK    3  A    between atoms: C_2  and  C_18
REMARK    4  A    between atoms: N_4  and  C_5
REMARK    5  A    between atoms: C_6  and  N_7
REMARK    6  A    between atoms: N_7  and  C_8
REMARK                            x       y       z     vdW  Elec       q    Type
REMARK                         _______ _______ _______ _____ _____    ______ ____
ROOT
ATOM      1  C   UNL     1       2.294   0.501   2.387  0.00  0.00    +0.104 C 
ATOM      2  C   UNL     1       3.217   1.562   2.863  0.00  0.00    +0.250 C 
ATOM      3  O   UNL     1       4.264   2.075   2.551  0.00  0.00    -0.282 OA
ATOM      4  C   UNL     1       2.242   1.842   3.950  0.00  0.00    +0.250 C 
ATOM      5  O   UNL     1       2.274   2.612   4.882  0.00  0.00    -0.282 OA
ATOM      6  C   UNL     1       1.361   0.808   3.346  0.00  0.00    +0.108 C 
ENDROOT
BRANCH   1   7
ATOM      7  N   UNL     1       2.372  -0.366   1.397  0.00  0.00    -0.333 N 
ATOM      8  H   UNL     1       3.051  -1.126   1.450  0.00  0.00    +0.147 HD
BRANCH   7   9
ATOM      9  C   UNL     1       2.104   0.008   0.002  0.00  0.00    +0.098 C 
ATOM     10  C   UNL     1       1.079  -0.994  -0.538  0.00  0.00    +0.033 C 
BRANCH   9  11
ATOM     11  C   UNL     1       3.378   0.030  -0.829  0.00  0.00    -0.028 A 
ATOM     12  C   UNL     1       3.815   1.232  -1.414  0.00  0.00    +0.005 A 
ATOM     13  C   UNL     1       4.976   1.273  -2.192  0.00  0.00    +0.000 A 
ATOM     14  C   UNL     1       5.723   0.115  -2.396  0.00  0.00    +0.000 A 
ATOM     15  C   UNL     1       5.303  -1.085  -1.830  0.00  0.00    +0.000 A 
ATOM     16  C   UNL     1       4.140  -1.129  -1.055  0.00  0.00    +0.005 A 
ENDBRANCH   9  11
ENDBRANCH   7   9
ENDBRANCH   1   7
BRANCH   6  17
ATOM     17  N   UNL     1       0.158   0.366   3.620  0.00  0.00    -0.310 N 
ATOM     18  H   UNL     1      -0.250  -0.314   2.975  0.00  0.00    +0.152 HD
BRANCH  17  19
ATOM     19  C   UNL     1      -0.729   0.648   4.681  0.00  0.00    +0.034 A 
ATOM     20  C   UNL     1      -0.328   1.096   5.934  0.00  0.00    +0.043 A 
ATOM     21  C   UNL     1      -1.297   1.387   6.886  0.00  0.00    +0.112 A 
ATOM     22  N   UNL     1      -2.623   1.280   6.670  0.00  0.00    -0.263 NA
ATOM     23  C   UNL     1      -3.000   0.866   5.452  0.00  0.00    +0.112 A 
ATOM     24  C   UNL     1      -2.107   0.542   4.435  0.00  0.00    +0.043 A 
ENDBRANCH  17  19
ENDBRANCH   6  17
TORSDOF 5
