REMARK  Name = 
REMARK  13 active torsions:
REMARK  status: ('A' for Active; 'I' for Inactive)
REMARK    1  A    between atoms: C_2  and  C_3
REMARK    2  A    between atoms: C_3  and  O_4
REMARK    3  A    between atoms: O_4  and  P_5
REMARK    4  A    between atoms: P_5  and  O_6
REMARK    5  A    between atoms: P_5  and  O_7
REMARK    6  A    between atoms: C_10  and  N_12
REMARK    7  A    between atoms: N_21  and  C_22
REMARK    8  A    between atoms: C_22  and  C_23
REMARK    9  A    between atoms: C_23  and  C_24
REMARK   10  A    between atoms: C_24  and  C_25
REMARK   11  A    between atoms: C_24  and  C_26
REMARK   12  A    between atoms: C_27  and  O_29
REMARK   13  A    between atoms: C_30  and  O_32
REMARK                            x       y       z     vdW  Elec       q    Type
REMARK                         _______ _______ _______ _____ _____    ______ ____
ROOT
ATOM      1  C   UNL     1       3.643   0.993  -0.894  0.00  0.00    +0.178 C 
ATOM      2  C   UNL     1       2.322   0.682  -0.200  0.00  0.00    +0.178 C 
ATOM      3  C   UNL     1       2.707   0.378   1.249  0.00  0.00    +0.195 C 
ATOM      4  C   UNL     1       4.201   0.707   1.326  0.00  0.00    +0.253 C 
ATOM      5  O   UNL     1       4.527   1.461   0.135  0.00  0.00    -0.346 OA
ENDROOT
BRANCH   4   6
ATOM      6  N   UNL     1       4.584   1.460   2.499  0.00  0.00    -0.286 N 
ATOM      7  C   UNL     1       4.470   1.028   3.789  0.00  0.00    +0.167 A 
ATOM      8  N   UNL     1       3.914  -0.123   4.241  0.00  0.00    -0.216 NA
ATOM      9  C   UNL     1       4.022  -0.192   5.595  0.00  0.00    +0.225 A 
ATOM     10  N   UNL     1       4.575   0.697   6.453  0.00  0.00    -0.219 NA
ATOM     11  C   UNL     1       5.103   1.842   5.953  0.00  0.00    +0.150 A 
ATOM     12  N   UNL     1       5.659   2.821   6.779  0.00  0.00    -0.327 N 
ATOM     13  H   UNL     1       6.210   3.474   6.222  0.00  0.00    +0.148 HD
ATOM     14  C   UNL     1       5.050   2.023   4.554  0.00  0.00    +0.147 A 
ATOM     15  N   UNL     1       5.507   3.049   3.756  0.00  0.00    -0.231 NA
ATOM     16  C   UNL     1       5.215   2.683   2.532  0.00  0.00    +0.203 A 
BRANCH  12  17
ATOM     17  C   UNL     1       6.274   2.376   8.015  0.00  0.00    +0.103 C 
BRANCH  17  18
ATOM     18  C   UNL     1       6.826   3.583   8.787  0.00  0.00    +0.021 C 
BRANCH  18  19
ATOM     19  C   UNL     1       5.779   4.658   9.149  0.00  0.00    -0.016 C 
ATOM     20  C   UNL     1       6.458   5.840   9.846  0.00  0.00    +0.007 C 
ATOM     21  C   UNL     1       4.662   4.106  10.035  0.00  0.00    +0.007 C 
ENDBRANCH  18  19
ENDBRANCH  17  18
ENDBRANCH  12  17
ENDBRANCH   4   6
BRANCH   2  22
ATOM     22  O   UNL     1       1.666  -0.415  -0.835  0.00  0.00    -0.386 OA
ATOM     23  H   UNL     1       1.733  -1.163  -0.201  0.00  0.00    +0.210 HD
ENDBRANCH   2  22
BRANCH   3  24
ATOM     24  O   UNL     1       2.442  -1.003   1.552  0.00  0.00    -0.385 OA
ATOM     25  H   UNL     1       2.616  -1.110   2.511  0.00  0.00    +0.210 HD
ENDBRANCH   3  24
BRANCH   1  26
ATOM     26  C   UNL     1       3.527   2.006  -2.040  0.00  0.00    +0.206 C 
BRANCH  26  27
ATOM     27  O   UNL     1       2.963   3.242  -1.595  0.00  0.00    -0.284 OA
BRANCH  27  28
ATOM     28  P   UNL     1       2.757   4.433  -2.832  0.00  0.00    +0.472 P 
ATOM     29  O   UNL     1       2.572   5.499  -3.940  0.00  0.00    -0.228 OA
BRANCH  28  30
ATOM     30  O   UNL     1       4.372   4.654  -2.720  0.00  0.00    -0.303 OA
ATOM     31  H   UNL     1       4.644   5.229  -3.458  0.00  0.00    +0.222 HD
ENDBRANCH  28  30
BRANCH  28  32
ATOM     32  O   UNL     1       2.306   5.416  -1.606  0.00  0.00    -0.303 OA
ATOM     33  H   UNL     1       1.501   5.079  -1.177  0.00  0.00    +0.222 HD
ENDBRANCH  28  32
ENDBRANCH  27  28
ENDBRANCH  26  27
ENDBRANCH   1  26
TORSDOF 11
