REMARK  Name = 
REMARK  15 active torsions:
REMARK  status: ('A' for Active; 'I' for Inactive)
REMARK    1  A    between atoms: C_2  and  O_3
REMARK    2  A    between atoms: C_7  and  C_9
REMARK    3  A    between atoms: C_9  and  C_10
REMARK    4  A    between atoms: C_11  and  C_12
REMARK    5  A    between atoms: C_12  and  C_13
REMARK    6  A    between atoms: C_13  and  C_14
REMARK    7  A    between atoms: C_14  and  C_15
REMARK    8  A    between atoms: C_15  and  O_16
REMARK    9  A    between atoms: C_18  and  C_20
REMARK   10  A    between atoms: C_21  and  C_22
REMARK   11  A    between atoms: C_22  and  C_24
REMARK   12  A    between atoms: C_24  and  C_25
REMARK   13  A    between atoms: C_25  and  C_26
REMARK   14  A    between atoms: C_26  and  C_27
REMARK   15  A    between atoms: C_27  and  C_28
REMARK                            x       y       z     vdW  Elec       q    Type
REMARK                         _______ _______ _______ _____ _____    ______ ____
ROOT
ATOM      1  C   UNL     1       2.138   0.054  -0.107  0.00  0.00    +0.129 C 
ATOM      2  C   UNL     1       2.695  -1.223   0.567  0.00  0.00    +0.051 C 
ATOM      3  C   UNL     1       3.983  -0.792   1.307  0.00  0.00    +0.068 C 
ATOM      4  C   UNL     1       3.939   0.714   1.206  0.00  0.00    +0.140 C 
ATOM      5  O   UNL     1       4.851   1.449   1.566  0.00  0.00    -0.297 OA
ATOM      6  C   UNL     1       2.603   1.217   0.753  0.00  0.00    +0.106 C 
ENDROOT
BRANCH   2   7
ATOM      7  C   UNL     1       2.961  -2.343  -0.413  0.00  0.00    -0.017 C 
ATOM      8  C   UNL     1       2.388  -3.555  -0.377  0.00  0.00    +0.042 C 
BRANCH   8   9
ATOM      9  C   UNL     1       2.707  -4.565  -1.429  0.00  0.00    +0.156 C 
ATOM     10  O   UNL     1       3.689  -4.439  -2.156  0.00  0.00    -0.293 OA
BRANCH   9  11
ATOM     11  C   UNL     1       1.717  -5.704  -1.586  0.00  0.00    +0.079 C 
BRANCH  11  12
ATOM     12  C   UNL     1       2.381  -6.952  -2.164  0.00  0.00    +0.008 C 
BRANCH  12  13
ATOM     13  C   UNL     1       1.381  -8.098  -2.315  0.00  0.00    +0.000 C 
BRANCH  13  14
ATOM     14  C   UNL     1       2.060  -9.346  -2.879  0.00  0.00    -0.003 C 
ATOM     15  C   UNL     1       1.078 -10.494  -3.037  0.00  0.00    +0.004 C 
ENDBRANCH  13  14
ENDBRANCH  12  13
ENDBRANCH  11  12
ENDBRANCH   9  11
ENDBRANCH   8   9
ENDBRANCH   2   7
BRANCH   1  16
ATOM     16  O   UNL     1       2.647   0.229  -1.425  0.00  0.00    -0.391 OA
ATOM     17  H   UNL     1       2.199   0.997  -1.823  0.00  0.00    +0.210 HD
ENDBRANCH   1  16
BRANCH   3  18
ATOM     18  C   UNL     1       3.970  -1.154   2.798  0.00  0.00    +0.038 C 
BRANCH  18  19
ATOM     19  C   UNL     1       3.929  -2.633   3.039  0.00  0.00    -0.030 C 
ATOM     20  C   UNL     1       5.025  -3.367   3.278  0.00  0.00    -0.031 C 
BRANCH  20  21
ATOM     21  C   UNL     1       4.997  -4.849   3.509  0.00  0.00    +0.027 C 
BRANCH  21  22
ATOM     22  C   UNL     1       5.504  -5.232   4.901  0.00  0.00    +0.015 C 
BRANCH  22  23
ATOM     23  C   UNL     1       4.658  -4.632   6.025  0.00  0.00    +0.121 C 
BRANCH  23  24
ATOM     24  C   UNL     1       5.141  -5.063   7.391  0.00  0.00    +0.305 C 
ATOM     25  O   UNL     1       6.069  -5.827   7.607  0.00  0.00    -0.251 OA
BRANCH  24  26
ATOM     26  O   UNL     1       4.418  -4.501   8.385  0.00  0.00    -0.481 OA
ATOM     27  H   UNL     1       3.714  -3.905   8.068  0.00  0.00    +0.295 HD
ENDBRANCH  24  26
ENDBRANCH  23  24
ENDBRANCH  22  23
ENDBRANCH  21  22
ENDBRANCH  20  21
ENDBRANCH  18  19
ENDBRANCH   3  18
TORSDOF 14
