REMARK  Name = 
REMARK  5 active torsions:
REMARK  status: ('A' for Active; 'I' for Inactive)
REMARK    1  A    between atoms: O_1  and  C_2
REMARK    2  A    between atoms: C_2  and  C_4
REMARK    3  A    between atoms: C_4  and  N_5
REMARK    4  A    between atoms: N_10  and  C_11
REMARK    5  A    between atoms: C_11  and  C_12
REMARK                            x       y       z     vdW  Elec       q    Type
REMARK                         _______ _______ _______ _____ _____    ______ ____
ROOT
ATOM      1  N   UNL     1       4.580  -0.723  -0.531  0.00  0.00    -0.290 N 
ATOM      2  C   UNL     1       5.308  -1.872  -0.227  0.00  0.00    +0.333 A 
ATOM      3  O   UNL     1       4.752  -2.950  -0.026  0.00  0.00    -0.246 OA
ATOM      4  N   UNL     1       6.682  -1.716  -0.213  0.00  0.00    -0.254 N 
ATOM      5  C   UNL     1       7.329  -0.496  -0.237  0.00  0.00    +0.257 A 
ATOM      6  O   UNL     1       8.530  -0.334  -0.050  0.00  0.00    -0.268 OA
ATOM      7  C   UNL     1       6.482   0.680  -0.498  0.00  0.00    +0.088 A 
ATOM      8  C   UNL     1       5.165   0.515  -0.652  0.00  0.00    +0.096 A 
ENDROOT
BRANCH   1   9
ATOM      9  C   UNL     1       3.127  -0.854  -0.711  0.00  0.00    +0.246 C 
BRANCH   9  10
ATOM     10  C   UNL     1       2.737  -1.205  -2.142  0.00  0.00    +0.325 C 
ATOM     11  O   UNL     1       1.572  -1.305  -2.506  0.00  0.00    -0.249 OA
BRANCH  10  12
ATOM     12  O   UNL     1       3.768  -1.368  -3.004  0.00  0.00    -0.479 OA
ATOM     13  H   UNL     1       4.644  -1.298  -2.578  0.00  0.00    +0.295 HD
ENDBRANCH  10  12
ENDBRANCH   9  10
ENDBRANCH   1   9
BRANCH   4  14
ATOM     14  C   UNL     1       7.501  -2.912  -0.109  0.00  0.00    +0.192 C 
BRANCH  14  15
ATOM     15  C   UNL     1       8.096  -3.279  -1.451  0.00  0.00    +0.099 A 
ATOM     16  S   UNL     1       9.353  -4.457  -1.461  0.00  0.00    -0.070 S 
ATOM     17  C   UNL     1       9.665  -4.108  -3.112  0.00  0.00    +0.039 A 
ATOM     18  C   UNL     1       8.695  -3.222  -3.586  0.00  0.00    +0.080 A 
ATOM     19  C   UNL     1       8.749  -2.834  -4.943  0.00  0.00    +0.049 A 
ATOM     20  C   UNL     1       9.800  -3.292  -5.747  0.00  0.00    +0.043 A 
ATOM     21  C   UNL     1      10.779  -4.141  -5.240  0.00  0.00    +0.021 A 
ATOM     22 CL   UNL     1       9.903  -2.780  -7.389  0.00  0.00    -0.083 Cl
ATOM     23  C   UNL     1      10.712  -4.584  -3.918  0.00  0.00    +0.018 A 
ATOM     24  N   UNL     1       7.780  -2.780  -2.630  0.00  0.00    -0.242 NA
ENDBRANCH  14  15
ENDBRANCH   4  14
TORSDOF 5
