REMARK  Name = 
REMARK  7 active torsions:
REMARK  status: ('A' for Active; 'I' for Inactive)
REMARK    1  A    between atoms: C_2  and  C_35
REMARK    2  A    between atoms: C_6  and  C_11
REMARK    3  A    between atoms: C_14  and  O_15
REMARK    4  A    between atoms: O_15  and  C_16
REMARK    5  A    between atoms: C_16  and  C_17
REMARK    6  A    between atoms: C_19  and  C_27
REMARK    7  A    between atoms: C_35  and  O_36
REMARK                            x       y       z     vdW  Elec       q    Type
REMARK                         _______ _______ _______ _____ _____    ______ ____
ROOT
ATOM      1  C   UNL     1       2.073  -3.779  -1.186  0.00  0.00    -0.027 A 
ATOM      2  C   UNL     1       2.269  -5.168  -1.236  0.00  0.00    +0.009 A 
ATOM      3  C   UNL     1       2.139  -5.861  -2.447  0.00  0.00    +0.046 A 
ATOM      4  C   UNL     1       1.818  -5.176  -3.620  0.00  0.00    +0.121 A 
ATOM      5  C   UNL     1       1.601  -3.803  -3.572  0.00  0.00    +0.046 A 
ATOM      6  C   UNL     1       1.747  -3.114  -2.376  0.00  0.00    +0.009 A 
ENDROOT
BRANCH   1  13
ATOM      7  C   UNL     1      -0.015  -0.140  -0.746  0.00  0.00    +0.114 C 
ATOM      8  C   UNL     1       1.055  -0.910   0.025  0.00  0.00    +0.063 C 
ATOM      9  C   UNL     1       2.504  -0.732  -0.287  0.00  0.00    +0.221 C 
ATOM     10  O   UNL     1       2.998   0.282  -0.744  0.00  0.00    -0.275 OA
ATOM     11  N   UNL     1       3.131  -1.920  -0.019  0.00  0.00    -0.308 N 
ATOM     12  H   UNL     1       4.084  -2.053  -0.331  0.00  0.00    +0.149 HD
ATOM     13  C   UNL     1       2.191  -3.014   0.121  0.00  0.00    +0.104 C 
ATOM     14  C   UNL     1       0.859  -2.333   0.522  0.00  0.00    +0.044 C 
ATOM     15  C   UNL     1       0.327   0.245   0.676  0.00  0.00    +0.032 C 
BRANCH   7  16
ATOM     16  C   UNL     1      -1.403  -0.602  -0.996  0.00  0.00    +0.309 C 
ATOM     17  O   UNL     1      -1.878  -1.615  -0.512  0.00  0.00    -0.251 OA
BRANCH  16  18
ATOM     18  O   UNL     1      -2.123   0.254  -1.758  0.00  0.00    -0.480 OA
ATOM     19  H   UNL     1      -1.642   1.066  -2.001  0.00  0.00    +0.295 HD
ENDBRANCH  16  18
ENDBRANCH   7  16
ENDBRANCH   1  13
BRANCH   4  20
ATOM     20  O   UNL     1       1.740  -5.923  -4.764  0.00  0.00    -0.487 OA
BRANCH  20  21
ATOM     21  C   UNL     1       1.836  -5.161  -5.967  0.00  0.00    +0.265 C 
BRANCH  21  22
ATOM     22  C   UNL     1       2.185  -6.079  -7.103  0.00  0.00    +0.001 A 
ATOM     23  C   UNL     1       1.232  -6.651  -7.970  0.00  0.00    +0.007 A 
ATOM     24  C   UNL     1      -0.167  -6.467  -7.842  0.00  0.00    +0.010 A 
ATOM     25  C   UNL     1      -1.056  -7.056  -8.736  0.00  0.00    +0.001 A 
ATOM     26  C   UNL     1      -0.564  -7.834  -9.770  0.00  0.00    +0.002 A 
ATOM     27  C   UNL     1       0.816  -8.025  -9.899  0.00  0.00    +0.028 A 
ATOM     28  C   UNL     1       1.728  -7.459  -9.017  0.00  0.00    +0.072 A 
ATOM     29  N   UNL     1       3.038  -7.719  -9.188  0.00  0.00    -0.247 NA
ATOM     30  C   UNL     1       3.941  -7.208  -8.315  0.00  0.00    +0.072 A 
ATOM     31  C   UNL     1       3.539  -6.388  -7.273  0.00  0.00    +0.036 A 
BRANCH  30  32
ATOM     32  C   UNL     1       5.352  -7.630  -8.483  0.00  0.00    +0.000 A 
ATOM     33  C   UNL     1       6.432  -6.870  -7.989  0.00  0.00    +0.010 A 
ATOM     34  C   UNL     1       7.747  -7.338  -8.061  0.00  0.00    +0.001 A 
ATOM     35  C   UNL     1       8.018  -8.570  -8.646  0.00  0.00    +0.000 A 
ATOM     36  C   UNL     1       6.977  -9.324  -9.177  0.00  0.00    +0.001 A 
ATOM     37  C   UNL     1       5.662  -8.854  -9.100  0.00  0.00    +0.010 A 
ENDBRANCH  30  32
ENDBRANCH  21  22
ENDBRANCH  20  21
ENDBRANCH   4  20
TORSDOF 7
