REMARK  Name = 
REMARK  8 active torsions:
REMARK  status: ('A' for Active; 'I' for Inactive)
REMARK    1  A    between atoms: C_1  and  C_2
REMARK    2  A    between atoms: C_2  and  C_4
REMARK    3  A    between atoms: C_11  and  N_12
REMARK    4  A    between atoms: N_12  and  C_13
REMARK    5  A    between atoms: C_13  and  C_14
REMARK    6  A    between atoms: N_16  and  C_17
REMARK    7  A    between atoms: C_22  and  C_23
REMARK    8  A    between atoms: C_23  and  O_24
REMARK                            x       y       z     vdW  Elec       q    Type
REMARK                         _______ _______ _______ _____ _____    ______ ____
ROOT
ATOM      1  C   UNL     1       1.662  -1.951   1.583  0.00  0.00    +0.198 C 
ENDROOT
BRANCH   1   2
ATOM      2  C   UNL     1       0.806  -2.774   2.548  0.00  0.00    +0.234 C 
ATOM      3  N   UNL     1      -0.360  -3.254   1.973  0.00  0.00    -0.283 N 
ATOM      4  H   UNL     1      -0.450  -3.112   0.961  0.00  0.00    +0.155 HD
ATOM      5  O   UNL     1       1.168  -2.946   3.710  0.00  0.00    -0.274 OA
BRANCH   3   6
ATOM      6  C   UNL     1      -1.371  -4.027   2.601  0.00  0.00    +0.047 A 
ATOM      7  C   UNL     1      -2.354  -4.684   1.826  0.00  0.00    +0.080 A 
ATOM      8  C   UNL     1      -3.341  -5.474   2.453  0.00  0.00    +0.017 A 
ATOM      9  C   UNL     1      -3.344  -5.630   3.837  0.00  0.00    +0.001 A 
ATOM     10  C   UNL     1      -2.393  -4.968   4.606  0.00  0.00    +0.002 A 
ATOM     11  C   UNL     1      -1.427  -4.167   3.994  0.00  0.00    +0.024 A 
BRANCH   7  12
ATOM     12  C   UNL     1      -2.378  -4.520   0.351  0.00  0.00    +0.339 C 
ATOM     13  O   UNL     1      -1.987  -3.506  -0.202  0.00  0.00    -0.245 OA
BRANCH  12  14
ATOM     14  O   UNL     1      -2.829  -5.593  -0.334  0.00  0.00    -0.477 OA
ATOM     15  H   UNL     1      -2.905  -6.416   0.184  0.00  0.00    +0.295 HD
ENDBRANCH  12  14
ENDBRANCH   7  12
ENDBRANCH   3   6
ENDBRANCH   1   2
BRANCH   1  16
ATOM     16  N   UNL     1       1.965  -2.711   0.364  0.00  0.00    -0.335 N 
ATOM     17  H   UNL     1       2.150  -3.709   0.545  0.00  0.00    +0.147 HD
BRANCH  16  19
ATOM     18  C   UNL     1       3.782  -3.003  -1.280  0.00  0.00    +0.041 A 
ATOM     19  C   UNL     1       2.893  -2.175  -0.547  0.00  0.00    +0.040 A 
ATOM     20  C   UNL     1       2.894  -0.797  -0.837  0.00  0.00    +0.046 A 
ATOM     21  C   UNL     1       3.739  -0.262  -1.812  0.00  0.00    +0.078 A 
ATOM     22 CL   UNL     1       3.742   1.436  -2.093  0.00  0.00    -0.081 Cl
ATOM     23  C   UNL     1       4.563  -1.101  -2.549  0.00  0.00    +0.142 A 
ATOM     24  F   UNL     1       5.362  -0.614  -3.509  0.00  0.00    -0.204 F 
ATOM     25  C   UNL     1       4.588  -2.466  -2.296  0.00  0.00    +0.053 A 
BRANCH  18  27
ATOM     26  C   UNL     1       5.313  -5.069  -1.145  0.00  0.00    +0.091 C 
ATOM     27  C   UNL     1       3.953  -4.448  -0.930  0.00  0.00    +0.162 C 
ATOM     28  O   UNL     1       3.029  -5.087  -0.435  0.00  0.00    -0.292 OA
ENDBRANCH  18  27
ENDBRANCH  16  19
ENDBRANCH   1  16
TORSDOF 7
