REMARK  Name = 
REMARK  7 active torsions:
REMARK  status: ('A' for Active; 'I' for Inactive)
REMARK    1  A    between atoms: C_1  and  O_2
REMARK    2  A    between atoms: O_2  and  C_3
REMARK    3  A    between atoms: C_3  and  C_5
REMARK    4  A    between atoms: C_11  and  C_13
REMARK    5  A    between atoms: C_16  and  N_17
REMARK    6  A    between atoms: N_17  and  C_18
REMARK    7  A    between atoms: C_18  and  C_19
REMARK                            x       y       z     vdW  Elec       q    Type
REMARK                         _______ _______ _______ _____ _____    ______ ____
ROOT
ATOM      1  N   UNL     1       7.877  -6.853   6.263  0.00  0.00    -0.338 N 
ATOM      2  H   UNL     1       7.107  -7.514   6.394  0.00  0.00    +0.146 HD
ENDROOT
BRANCH   1   6
ATOM      3  C   UNL     1       6.476  -2.950   5.465  0.00  0.00    +0.037 A 
ATOM      4  C   UNL     1       5.595  -4.026   5.569  0.00  0.00    +0.015 A 
ATOM      5  C   UNL     1       6.081  -5.316   5.800  0.00  0.00    +0.023 A 
ATOM      6  C   UNL     1       7.429  -5.538   6.094  0.00  0.00    +0.027 A 
ATOM      7  C   UNL     1       8.290  -4.436   6.109  0.00  0.00    +0.023 A 
ATOM      8  C   UNL     1       7.821  -3.154   5.798  0.00  0.00    +0.015 A 
BRANCH   3  13
ATOM      9  C   UNL     1       3.831  -0.891   1.366  0.00  0.00    +0.101 C 
ATOM     10  C   UNL     1       4.233  -2.307   1.772  0.00  0.00    +0.033 C 
ATOM     11  C   UNL     1       4.402  -2.466   3.277  0.00  0.00    +0.109 C 
ATOM     12  N   UNL     1       5.219  -1.420   3.894  0.00  0.00    -0.297 N 
ATOM     13  C   UNL     1       6.078  -1.590   4.996  0.00  0.00    +0.247 C 
ATOM     14  O   UNL     1       6.608  -0.635   5.566  0.00  0.00    -0.270 OA
ATOM     15  C   UNL     1       4.873  -0.049   3.517  0.00  0.00    +0.109 C 
ATOM     16  C   UNL     1       4.790   0.116   2.000  0.00  0.00    +0.033 C 
BRANCH   9  17
ATOM     17  C   UNL     1       2.382  -0.606   1.723  0.00  0.00    +0.310 C 
ATOM     18  O   UNL     1       1.645  -1.372   2.324  0.00  0.00    -0.251 OA
BRANCH  17  20
ATOM     19  C   UNL     1       0.653   0.952   1.519  0.00  0.00    +0.280 C 
ATOM     20  O   UNL     1       2.012   0.613   1.242  0.00  0.00    -0.468 OA
ENDBRANCH  17  20
ENDBRANCH   9  17
ENDBRANCH   3  13
ENDBRANCH   1   6
BRANCH   1  21
ATOM     21  C   UNL     1       8.897  -7.074   7.288  0.00  0.00    +0.158 C 
BRANCH  21  22
ATOM     22  C   UNL     1       8.745  -8.453   7.892  0.00  0.00    +0.077 A 
ATOM     23  C   UNL     1       9.822  -9.080   8.489  0.00  0.00    +0.138 A 
ATOM     24  N   UNL     1       9.716 -10.272   9.124  0.00  0.00    -0.232 NA
ATOM     25  C   UNL     1       8.512 -10.854   9.175  0.00  0.00    +0.185 A 
ATOM     26  N   UNL     1       8.419 -12.008   9.830  0.00  0.00    -0.193 NA
ATOM     27  C   UNL     1       7.224 -12.575   9.912  0.00  0.00    +0.216 A 
ATOM     28  N   UNL     1       6.112 -12.100   9.355  0.00  0.00    -0.198 NA
ATOM     29  C   UNL     1       6.228 -10.932   8.700  0.00  0.00    +0.149 A 
ATOM     30  N   UNL     1       5.054 -10.475   8.074  0.00  0.00    -0.341 N 
ATOM     31  H   UNL     1       4.939  -9.473   8.194  0.00  0.00    +0.144 HD
ATOM     32  H   UNL     1       4.265 -11.030   8.390  0.00  0.00    +0.144 HD
ATOM     33  N   UNL     1       7.129 -13.765  10.603  0.00  0.00    -0.327 N 
ATOM     34  H   UNL     1       6.340 -14.305  10.277  0.00  0.00    +0.145 HD
ATOM     35  H   UNL     1       8.029 -14.227  10.633  0.00  0.00    +0.145 HD
ATOM     36  C   UNL     1       7.418 -10.229   8.566  0.00  0.00    +0.148 A 
ATOM     37  N   UNL     1       7.515  -9.021   7.927  0.00  0.00    -0.242 NA
ENDBRANCH  21  22
ENDBRANCH   1  21
TORSDOF 6
