REMARK  Name = 
REMARK  4 active torsions:
REMARK  status: ('A' for Active; 'I' for Inactive)
REMARK    1  A    between atoms: O_1  and  C_2
REMARK    2  A    between atoms: C_2  and  C_4
REMARK    3  A    between atoms: C_7  and  C_9
REMARK    4  A    between atoms: C_10  and  N_15
REMARK                            x       y       z     vdW  Elec       q    Type
REMARK                         _______ _______ _______ _____ _____    ______ ____
ROOT
ATOM      1  C   UNL     1       4.235   0.610  -2.370  0.00  0.00    +0.212 A 
ATOM      2  O   UNL     1       4.380  -0.370  -3.318  0.00  0.00    -0.448 OA
ATOM      3  C   UNL     1       3.877  -1.529  -2.796  0.00  0.00    +0.142 A 
ATOM      4  C   UNL     1       3.406  -1.290  -1.519  0.00  0.00    +0.051 A 
ATOM      5  C   UNL     1       3.651   0.075  -1.240  0.00  0.00    +0.057 A 
ENDROOT
BRANCH   3   6
ATOM      6  C   UNL     1       3.981  -2.729  -3.627  0.00  0.00    +0.094 A 
ATOM      7  C   UNL     1       4.101  -3.977  -2.989  0.00  0.00    +0.018 A 
ATOM      8  C   UNL     1       4.235  -5.165  -3.720  0.00  0.00    +0.001 A 
ATOM      9  C   UNL     1       4.255  -5.135  -5.112  0.00  0.00    +0.007 A 
ATOM     10  C   UNL     1       4.136  -3.918  -5.778  0.00  0.00    +0.085 A 
ATOM     11  C   UNL     1       3.995  -2.734  -5.033  0.00  0.00    +0.284 A 
BRANCH  11  12
ATOM     12  N   UNL     1       3.837  -1.508  -5.788  0.00  0.00    +0.080 N 
ATOM     13  O   UNL     1       4.777  -1.174  -6.522  0.00  0.00    +0.041 OA
ATOM     14  O   UNL     1       2.770  -0.891  -5.664  0.00  0.00    -0.576 OA
ENDBRANCH  11  12
ENDBRANCH   3   6
BRANCH   1  15
ATOM     15  C   UNL     1       4.688   1.949  -2.662  0.00  0.00    +0.372 C 
ATOM     16  O   UNL     1       4.863   2.838  -1.844  0.00  0.00    -0.242 OA
BRANCH  15  17
ATOM     17  O   UNL     1       4.880   2.128  -3.994  0.00  0.00    -0.475 OA
ATOM     18  H   UNL     1       4.636   1.322  -4.496  0.00  0.00    +0.296 HD
ENDBRANCH  15  17
ENDBRANCH   1  15
TORSDOF 4
