REMARK  Name = 
REMARK  14 active torsions:
REMARK  status: ('A' for Active; 'I' for Inactive)
REMARK    1  A    between atoms: C_1  and  C_2
REMARK    2  A    between atoms: C_3  and  C_4
REMARK    3  A    between atoms: C_4  and  N_5
REMARK    4  A    between atoms: N_5  and  C_6
REMARK    5  A    between atoms: C_9  and  S_12
REMARK    6  A    between atoms: S_12  and  C_15
REMARK    7  A    between atoms: C_15  and  C_16
REMARK    8  A    between atoms: C_16  and  C_29
REMARK    9  A    between atoms: C_22  and  O_24
REMARK   10  A    between atoms: O_24  and  C_25
REMARK   11  A    between atoms: C_25  and  C_26
REMARK   12  A    between atoms: C_25  and  C_27
REMARK   13  A    between atoms: C_25  and  C_28
REMARK   14  A    between atoms: N_31  and  O_32
REMARK                            x       y       z     vdW  Elec       q    Type
REMARK                         _______ _______ _______ _____ _____    ______ ____
ROOT
ATOM      1  C   UNL     1      13.846  -3.374   0.910  0.00  0.00    +0.071 C 
ATOM      2  C   UNL     1      14.253  -3.846  -0.513  0.00  0.00    +0.037 C 
ATOM      3  C   UNL     1      13.769  -5.252  -0.874  0.00  0.00    +0.112 C 
ATOM      4  N   UNL     1      14.131  -6.204   0.167  0.00  0.00    -0.267 N 
ATOM      5  C   UNL     1      14.780  -7.412  -0.038  0.00  0.00    +0.403 C 
ATOM      6  O   UNL     1      14.970  -8.209   0.874  0.00  0.00    -0.226 OA
ATOM      7  C   UNL     1      13.713  -5.874   1.518  0.00  0.00    +0.112 C 
ATOM      8  C   UNL     1      14.248  -4.504   1.911  0.00  0.00    +0.037 C 
ENDROOT
BRANCH   1   9
ATOM      9  C   UNL     1      14.676  -2.143   1.328  0.00  0.00    +0.243 C 
ATOM     10  N   UNL     1      14.978  -1.222   0.350  0.00  0.00    -0.197 N 
ATOM     11  H   UNL     1      14.296  -0.982  -0.367  0.00  0.00    +0.182 HD
ATOM     12  O   UNL     1      15.055  -1.968   2.489  0.00  0.00    -0.273 OA
BRANCH  10  13
ATOM     13  O   UNL     1      15.737  -0.114   0.812  0.00  0.00    -0.295 OA
ATOM     14  H   UNL     1      15.872  -0.327   1.761  0.00  0.00    +0.241 HD
ENDBRANCH  10  13
ENDBRANCH   1   9
BRANCH   1  15
ATOM     15  C   UNL     1      12.334  -3.109   1.110  0.00  0.00    +0.188 C 
BRANCH  15  16
ATOM     16  S   UNL     1      11.610  -1.842   0.101  0.00  0.00    -0.002 S 
ATOM     17  O   UNL     1      12.194  -0.569   0.468  0.00  0.00    -0.169 OA
ATOM     18  O   UNL     1      11.652  -2.304  -1.273  0.00  0.00    -0.169 OA
BRANCH  16  22
ATOM     19  C   UNL     1       7.230  -1.558   1.393  0.00  0.00    +0.028 A 
ATOM     20  C   UNL     1       7.557  -1.916   0.078  0.00  0.00    +0.025 A 
ATOM     21  C   UNL     1       8.890  -2.026  -0.325  0.00  0.00    +0.029 A 
ATOM     22  C   UNL     1       9.908  -1.800   0.602  0.00  0.00    +0.088 A 
ATOM     23  C   UNL     1       9.604  -1.515   1.931  0.00  0.00    +0.029 A 
ATOM     24  C   UNL     1       8.270  -1.433   2.324  0.00  0.00    +0.025 A 
BRANCH  19  25
ATOM     25  N   UNL     1       5.882  -1.421   1.757  0.00  0.00    -0.333 N 
ATOM     26  H   UNL     1       5.285  -1.246   0.951  0.00  0.00    +0.147 HD
BRANCH  25  27
ATOM     27  C   UNL     1       5.616  -0.481   2.838  0.00  0.00    +0.191 C 
BRANCH  27  30
ATOM     28  C   UNL     1       1.652   1.225   2.339  0.00  0.00    +0.106 C 
ATOM     29  C   UNL     1       3.039   0.628   2.514  0.00  0.00    -0.104 C 
ATOM     30  C   UNL     1       4.229   0.116   2.664  0.00  0.00    -0.084 C 
ENDBRANCH  27  30
ENDBRANCH  25  27
ENDBRANCH  19  25
ENDBRANCH  16  22
ENDBRANCH  15  16
ENDBRANCH   1  15
BRANCH   5  31
ATOM     31  O   UNL     1      15.201  -7.611  -1.319  0.00  0.00    -0.445 OA
BRANCH  31  32
ATOM     32  C   UNL     1      15.970  -8.812  -1.619  0.00  0.00    +0.107 C 
ATOM     33  C   UNL     1      17.287  -8.842  -0.828  0.00  0.00    +0.055 C 
ATOM     34  C   UNL     1      16.329  -8.739  -3.112  0.00  0.00    +0.055 C 
ATOM     35  C   UNL     1      15.133 -10.082  -1.398  0.00  0.00    +0.055 C 
ENDBRANCH  31  32
ENDBRANCH   5  31
TORSDOF 10
