REMARK  Name = 
REMARK  18 active torsions:
REMARK  status: ('A' for Active; 'I' for Inactive)
REMARK    1  A    between atoms: C_2  and  O_3
REMARK    2  A    between atoms: C_5  and  O_7
REMARK    3  A    between atoms: O_7  and  C_8
REMARK    4  A    between atoms: C_10  and  N_12
REMARK    5  A    between atoms: C_13  and  O_15
REMARK    6  A    between atoms: C_16  and  C_18
REMARK    7  A    between atoms: C_18  and  O_19
REMARK    8  A    between atoms: C_21  and  O_23
REMARK    9  A    between atoms: O_23  and  C_24
REMARK   10  A    between atoms: C_24  and  C_25
REMARK   11  A    between atoms: C_25  and  C_26
REMARK   12  A    between atoms: C_26  and  C_27
REMARK   13  A    between atoms: C_27  and  C_28
REMARK   14  A    between atoms: C_28  and  C_29
REMARK   15  A    between atoms: C_29  and  C_30
REMARK   16  A    between atoms: C_30  and  C_31
REMARK   17  A    between atoms: C_33  and  C_35
REMARK   18  A    between atoms: C_36  and  O_38
REMARK                            x       y       z     vdW  Elec       q    Type
REMARK                         _______ _______ _______ _____ _____    ______ ____
ROOT
ATOM      1  C   UNL     1       2.116  -3.319  -3.443  0.00  0.00    +0.196 C 
ATOM      2  C   UNL     1       2.336  -4.865  -3.580  0.00  0.00    +0.281 C 
ATOM      3  O   UNL     1       3.722  -5.198  -3.564  0.00  0.00    -0.341 OA
ATOM      4  C   UNL     1       4.478  -4.583  -4.615  0.00  0.00    +0.177 C 
ATOM      5  C   UNL     1       4.481  -3.067  -4.379  0.00  0.00    +0.165 C 
ATOM      6  C   UNL     1       3.022  -2.557  -4.443  0.00  0.00    +0.116 C 
ENDROOT
BRANCH   6   7
ATOM      7  N   UNL     1       2.942  -1.101  -4.211  0.00  0.00    -0.323 NA
ATOM      8  H   UNL     1       3.471  -0.593  -4.920  0.00  0.00    +0.119 HD
ATOM      9  H   UNL     1       1.966  -0.811  -4.296  0.00  0.00    +0.119 HD
ENDBRANCH   6   7
BRANCH   5  10
ATOM     10  O   UNL     1       5.086  -2.777  -3.110  0.00  0.00    -0.388 OA
ATOM     11  H   UNL     1       4.704  -3.384  -2.455  0.00  0.00    +0.210 HD
ENDBRANCH   5  10
BRANCH   4  12
ATOM     12  C   UNL     1       5.900  -5.159  -4.583  0.00  0.00    +0.190 C 
BRANCH  12  13
ATOM     13  O   UNL     1       5.893  -6.551  -4.919  0.00  0.00    -0.392 OA
ATOM     14  H   UNL     1       5.462  -6.652  -5.784  0.00  0.00    +0.210 HD
ENDBRANCH  12  13
ENDBRANCH   4  12
BRANCH   2  15
ATOM     15  O   UNL     1       1.717  -5.530  -2.462  0.00  0.00    -0.349 OA
BRANCH  15  16
ATOM     16  C   UNL     1       1.784  -6.965  -2.544  0.00  0.00    +0.163 C 
BRANCH  16  17
ATOM     17  C   UNL     1       1.132  -7.503  -1.276  0.00  0.00    +0.028 C 
BRANCH  17  18
ATOM     18  C   UNL     1       1.071  -9.017  -1.129  0.00  0.00    +0.002 C 
BRANCH  18  19
ATOM     19  C   UNL     1       0.315  -9.354   0.168  0.00  0.00    +0.000 C 
BRANCH  19  20
ATOM     20  C   UNL     1       0.155 -10.856   0.369  0.00  0.00    -0.000 C 
BRANCH  20  21
ATOM     21  C   UNL     1      -0.579 -11.172   1.676  0.00  0.00    -0.000 C 
BRANCH  21  22
ATOM     22  C   UNL     1      -0.708 -12.683   1.868  0.00  0.00    -0.003 C 
ATOM     23  C   UNL     1      -1.419 -13.038   3.162  0.00  0.00    +0.004 C 
ENDBRANCH  21  22
ENDBRANCH  20  21
ENDBRANCH  19  20
ENDBRANCH  18  19
ENDBRANCH  17  18
ENDBRANCH  16  17
ENDBRANCH  15  16
ENDBRANCH   2  15
BRANCH   1  24
ATOM     24  O   UNL     1       0.752  -2.882  -3.680  0.00  0.00    -0.341 OA
BRANCH  24  30
ATOM     25  C   UNL     1      -1.011  -3.678  -0.430  0.00  0.00    +0.150 C 
ATOM     26  C   UNL     1      -2.427  -3.346  -0.887  0.00  0.00    +0.172 C 
ATOM     27  C   UNL     1      -2.606  -3.553  -2.413  0.00  0.00    +0.149 C 
ATOM     28  C   UNL     1      -2.854  -5.011  -2.838  0.00  0.00    +0.041 C 
ATOM     29  O   UNL     1      -1.534  -2.957  -3.168  0.00  0.00    -0.346 OA
ATOM     30  C   UNL     1      -0.228  -3.429  -2.797  0.00  0.00    +0.254 C 
ATOM     31  C   UNL     1       0.034  -3.055  -1.336  0.00  0.00    +0.095 C 
BRANCH  25  32
ATOM     32  O   UNL     1      -0.888  -5.106  -0.411  0.00  0.00    -0.389 OA
ATOM     33  H   UNL     1      -0.082  -5.330  -0.911  0.00  0.00    +0.210 HD
ENDBRANCH  25  32
BRANCH  26  34
ATOM     34  O   UNL     1      -3.360  -4.108  -0.125  0.00  0.00    -0.387 OA
ATOM     35  H   UNL     1      -2.908  -4.950   0.069  0.00  0.00    +0.210 HD
ENDBRANCH  26  34
ENDBRANCH  24  30
ENDBRANCH   1  24
TORSDOF 16
