REMARK  Name = 
REMARK  6 active torsions:
REMARK  status: ('A' for Active; 'I' for Inactive)
REMARK    1  A    between atoms: C_2  and  C_3
REMARK    2  A    between atoms: C_2  and  N_15
REMARK    3  A    between atoms: C_2  and  C_25
REMARK    4  A    between atoms: C_3  and  C_4
REMARK    5  A    between atoms: C_22  and  S_23
REMARK    6  A    between atoms: N_27  and  C_28
REMARK                            x       y       z     vdW  Elec       q    Type
REMARK                         _______ _______ _______ _____ _____    ______ ____
ROOT
ATOM      1  C   UNL     1       2.136   0.152  -0.016  0.00  0.00    +0.165 C 
ENDROOT
BRANCH   1   2
ATOM      2  N   UNL     1       2.647   1.479   0.310  0.00  0.00    -0.287 N 
ATOM      3  H   UNL     1       3.650   1.623   0.207  0.00  0.00    +0.151 HD
ATOM      4  C   UNL     1       1.975   2.375   1.080  0.00  0.00    +0.306 C 
ATOM      5  N   UNL     1       2.509   3.624   1.188  0.00  0.00    -0.247 N 
ATOM      6  H   UNL     1       1.930   4.324   1.631  0.00  0.00    +0.158 HD
ATOM      7  C   UNL     1       3.719   4.001   0.680  0.00  0.00    +0.190 A 
ATOM      8  S   UNL     1       4.049   5.673   0.669  0.00  0.00    -0.024 S 
ATOM      9  C   UNL     1       5.531   5.279  -0.100  0.00  0.00    +0.157 A 
ATOM     10  N   UNL     1       5.735   3.991  -0.270  0.00  0.00    -0.133 NA
ATOM     11  N   UNL     1       4.668   3.243   0.181  0.00  0.00    -0.125 NA
ATOM     12  O   UNL     1       0.889   2.111   1.598  0.00  0.00    -0.252 OA
BRANCH   9  13
ATOM     13  S   UNL     1       6.702   6.456  -0.624  0.00  0.00    -0.114 S 
ATOM     14  H   UNL     1       7.615   5.569  -1.045  0.00  0.00    +0.109 HD
ENDBRANCH   9  13
ENDBRANCH   1   2
BRANCH   1  15
ATOM     15  C   UNL     1       2.580  -0.823   1.092  0.00  0.00    +0.233 C 
ATOM     16  N   UNL     1       1.839  -0.729   2.252  0.00  0.00    -0.317 N 
ATOM     17  H   UNL     1       1.168   0.034   2.331  0.00  0.00    +0.148 HD
ATOM     18  C   UNL     1       2.118  -1.534   3.414  0.00  0.00    +0.128 C 
ATOM     19  O   UNL     1       3.541  -1.578   0.967  0.00  0.00    -0.274 OA
ENDBRANCH   1  15
BRANCH   1  20
ATOM     20  C   UNL     1       2.677  -0.321  -1.375  0.00  0.00    +0.073 C 
BRANCH  20  21
ATOM     21  C   UNL     1       2.245   0.543  -2.536  0.00  0.00    +0.031 A 
ATOM     22  C   UNL     1       1.031   0.319  -3.191  0.00  0.00    +0.167 A 
ATOM     23  F   UNL     1       0.229  -0.671  -2.772  0.00  0.00    -0.202 F 
ATOM     24  C   UNL     1       0.644   1.101  -4.278  0.00  0.00    +0.197 A 
ATOM     25  F   UNL     1      -0.517   0.854  -4.901  0.00  0.00    -0.199 F 
ATOM     26  C   UNL     1       1.462   2.132  -4.719  0.00  0.00    +0.199 A 
ATOM     27  F   UNL     1       1.094   2.881  -5.767  0.00  0.00    -0.199 F 
ATOM     28  C   UNL     1       2.663   2.384  -4.072  0.00  0.00    +0.197 A 
ATOM     29  F   UNL     1       3.453   3.384  -4.488  0.00  0.00    -0.199 F 
ATOM     30  C   UNL     1       3.049   1.594  -2.992  0.00  0.00    +0.167 A 
ATOM     31  F   UNL     1       4.217   1.844  -2.385  0.00  0.00    -0.202 F 
ENDBRANCH  20  21
ENDBRANCH   1  20
TORSDOF 5
