REMARK  Name = 
REMARK  7 active torsions:
REMARK  status: ('A' for Active; 'I' for Inactive)
REMARK    1  A    between atoms: C_1  and  N_2
REMARK    2  A    between atoms: N_2  and  S_3
REMARK    3  A    between atoms: S_3  and  C_6
REMARK    4  A    between atoms: C_9  and  N_10
REMARK    5  A    between atoms: C_13  and  C_17
REMARK    6  A    between atoms: C_20  and  C_21
REMARK    7  A    between atoms: N_22  and  C_23
REMARK                            x       y       z     vdW  Elec       q    Type
REMARK                         _______ _______ _______ _____ _____    ______ ____
ROOT
ATOM      1  N   UNL     1       9.114  -1.698  -0.115  0.00  0.00    -0.284 N 
ATOM      2  H   UNL     1       8.261  -1.953   0.362  0.00  0.00    +0.155 HD
ATOM      3  C   UNL     1       9.786  -2.861  -0.485  0.00  0.00    +0.220 A 
ATOM      4  N   UNL     1       9.149  -4.009  -0.206  0.00  0.00    -0.223 NA
ATOM      5  C   UNL     1       9.783  -5.154  -0.519  0.00  0.00    +0.116 A 
ATOM      6  C   UNL     1      11.035  -5.201  -1.077  0.00  0.00    +0.050 A 
ATOM      7  C   UNL     1      11.634  -3.980  -1.284  0.00  0.00    +0.094 A 
ATOM      8  N   UNL     1      11.008  -2.820  -1.032  0.00  0.00    -0.213 NA
ENDROOT
BRANCH   1  12
ATOM      9  C   UNL     1      10.166   2.384   0.053  0.00  0.00    +0.105 A 
ATOM     10  C   UNL     1       9.036   1.912   0.718  0.00  0.00    +0.030 A 
ATOM     11  C   UNL     1       8.690   0.560   0.621  0.00  0.00    +0.025 A 
ATOM     12  C   UNL     1       9.471  -0.344  -0.119  0.00  0.00    +0.034 A 
ATOM     13  C   UNL     1      10.590   0.163  -0.793  0.00  0.00    +0.025 A 
ATOM     14  C   UNL     1      10.949   1.513  -0.704  0.00  0.00    +0.030 A 
BRANCH   9  15
ATOM     15  S   UNL     1      10.669   4.069   0.262  0.00  0.00    +0.058 S 
ATOM     16  O   UNL     1      10.159   4.548   1.527  0.00  0.00    -0.153 OA
ATOM     17  O   UNL     1      12.076   4.166  -0.071  0.00  0.00    -0.153 OA
BRANCH  15  19
ATOM     18  C   UNL     1       8.470   5.273  -0.727  0.00  0.00    +0.127 C 
ATOM     19  N   UNL     1       9.847   4.859  -0.969  0.00  0.00    -0.193 NA
ATOM     20  H   UNL     1      10.454   5.495  -1.484  0.00  0.00    +0.148 HD
ENDBRANCH  15  19
ENDBRANCH   9  15
ENDBRANCH   1  12
BRANCH   7  21
ATOM     21  C   UNL     1      13.008  -3.869  -1.771  0.00  0.00    +0.088 A 
ATOM     22  N   UNL     1      13.993  -2.984  -1.337  0.00  0.00    -0.323 N 
ATOM     23  C   UNL     1      15.167  -3.300  -2.003  0.00  0.00    +0.107 A 
ATOM     24  C   UNL     1      16.467  -2.597  -1.882  0.00  0.00    +0.086 C 
ATOM     25  N   UNL     1      14.984  -4.331  -2.806  0.00  0.00    -0.240 NA
ATOM     26  C   UNL     1      13.675  -4.685  -2.667  0.00  0.00    +0.140 A 
BRANCH  22  27
ATOM     27  C   UNL     1      13.797  -2.003  -0.275  0.00  0.00    +0.089 C 
ATOM     28  C   UNL     1      14.652  -0.798   0.048  0.00  0.00    +0.027 C 
ATOM     29  C   UNL     1      14.691  -1.987   0.948  0.00  0.00    +0.027 C 
ENDBRANCH  22  27
ENDBRANCH   7  21
TORSDOF 5
