REMARK  Name = 
REMARK  6 active torsions:
REMARK  status: ('A' for Active; 'I' for Inactive)
REMARK    1  A    between atoms: C_1  and  C_2
REMARK    2  A    between atoms: C_2  and  C_3
REMARK    3  A    between atoms: C_2  and  C_4
REMARK    4  A    between atoms: C_2  and  C_5
REMARK    5  A    between atoms: C_7  and  O_8
REMARK    6  A    between atoms: C_11  and  O_12
REMARK                            x       y       z     vdW  Elec       q    Type
REMARK                         _______ _______ _______ _____ _____    ______ ____
ROOT
ATOM      1  C   UNL     1       2.971   1.166  -0.927  0.00  0.00    +0.003 A 
ATOM      2  C   UNL     1       3.063   0.974  -2.321  0.00  0.00    +0.121 A 
ATOM      3  C   UNL     1       3.364   2.025  -3.198  0.00  0.00    +0.049 A 
ATOM      4  C   UNL     1       3.564   3.310  -2.707  0.00  0.00    +0.049 A 
ATOM      5  C   UNL     1       3.462   3.532  -1.345  0.00  0.00    +0.117 A 
ATOM      6  C   UNL     1       3.173   2.487  -0.466  0.00  0.00    +0.053 A 
ENDROOT
BRANCH   1   8
ATOM      7  C   UNL     1       1.030   0.016   0.127  0.00  0.00    +0.015 C 
ATOM      8  C   UNL     1       2.570   0.053   0.070  0.00  0.00    -0.009 C 
ATOM      9  C   UNL     1       3.086  -1.358  -0.298  0.00  0.00    +0.015 C 
ATOM     10  C   UNL     1       3.099   0.317   1.505  0.00  0.00    +0.015 C 
ENDBRANCH   1   8
BRANCH   2  11
ATOM     11  O   UNL     1       2.822  -0.256  -2.865  0.00  0.00    -0.506 OA
ATOM     12  H   UNL     1       2.954  -0.214  -3.825  0.00  0.00    +0.292 HD
ENDBRANCH   2  11
BRANCH   5  13
ATOM     13  O   UNL     1       3.638   4.808  -0.898  0.00  0.00    -0.507 OA
ATOM     14  H   UNL     1       3.510   4.820   0.065  0.00  0.00    +0.292 HD
ENDBRANCH   5  13
TORSDOF 3
