REMARK  Name = 
REMARK  6 active torsions:
REMARK  status: ('A' for Active; 'I' for Inactive)
REMARK    1  A    between atoms: C_2  and  N_3
REMARK    2  A    between atoms: C_2  and  C_12
REMARK    3  A    between atoms: C_7  and  C_9
REMARK    4  A    between atoms: C_12  and  C_13
REMARK    5  A    between atoms: C_12  and  C_15
REMARK    6  A    between atoms: C_18  and  N_21
REMARK                            x       y       z     vdW  Elec       q    Type
REMARK                         _______ _______ _______ _____ _____    ______ ____
ROOT
ATOM      1  C   UNL     1       3.102  -1.092   0.607  0.00  0.00    +0.131 C 
ATOM      2  C   UNL     1       2.215   0.037   0.075  0.00  0.00    +0.025 C 
ENDROOT
BRANCH   1   3
ATOM      3  C   UNL     1       4.576  -0.770   0.415  0.00  0.00    -0.033 A 
ATOM      4  C   UNL     1       5.383  -1.602  -0.369  0.00  0.00    +0.006 A 
ATOM      5  C   UNL     1       6.725  -1.280  -0.613  0.00  0.00    +0.024 A 
ATOM      6  C   UNL     1       7.303  -0.120  -0.078  0.00  0.00    +0.038 A 
ATOM      7  C   UNL     1       6.499   0.685   0.737  0.00  0.00    +0.024 A 
ATOM      8  C   UNL     1       5.158   0.366   0.985  0.00  0.00    +0.006 A 
BRANCH   6   9
ATOM      9  N   UNL     1       8.656   0.211  -0.344  0.00  0.00    -0.254 N 
ATOM     10  C   UNL     1       9.324   1.402   0.014  0.00  0.00    +0.307 C 
ATOM     11  O   UNL     1       8.918   2.392   0.598  0.00  0.00    -0.252 OA
ATOM     12  N   UNL     1      10.649   1.283  -0.408  0.00  0.00    -0.297 N 
ATOM     13  H   UNL     1      11.321   1.948  -0.048  0.00  0.00    +0.150 HD
ATOM     14  C   UNL     1      10.924  -0.073  -0.773  0.00  0.00    +0.125 C 
ATOM     15  C   UNL     1       9.549  -0.612  -1.133  0.00  0.00    +0.134 C 
ENDBRANCH   6   9
ENDBRANCH   1   3
BRANCH   1  17
ATOM     16  O   UNL     1       1.944  -0.823   2.718  0.00  0.00    -0.243 OA
ATOM     17  C   UNL     1       2.762  -1.455   2.058  0.00  0.00    +0.351 C 
BRANCH  17  18
ATOM     18  N   UNL     1       3.377  -2.616   2.465  0.00  0.00    +0.033 NA
ATOM     19  C   UNL     1       3.661  -2.764   3.714  0.00  0.00    +0.389 C 
ATOM     20  C   UNL     1       4.331  -3.945   4.234  0.00  0.00    +0.133 C 
ATOM     21  C   UNL     1       4.426  -3.627   5.520  0.00  0.00    +0.099 C 
ATOM     22  N   UNL     1       3.870  -2.410   5.811  0.00  0.00    -0.039 NA
ATOM     23  N   UNL     1       3.430  -1.889   4.753  0.00  0.00    +0.084 NA
BRANCH  21  24
ATOM     24  C   UNL     1       5.023  -4.410   6.599  0.00  0.00    +0.042 C 
ATOM     25  C   UNL     1       6.063  -3.776   7.487  0.00  0.00    +0.010 C 
ATOM     26  C   UNL     1       6.470  -4.831   6.501  0.00  0.00    +0.010 C 
ENDBRANCH  21  24
ENDBRANCH  17  18
ENDBRANCH   1  17
TORSDOF 5
