REMARK  Name = 
REMARK  2 active torsions:
REMARK  status: ('A' for Active; 'I' for Inactive)
REMARK    1  A    between atoms: C_2  and  C_4
REMARK    2  A    between atoms: C_5  and  N_6
REMARK                            x       y       z     vdW  Elec       q    Type
REMARK                         _______ _______ _______ _____ _____    ______ ____
ROOT
ATOM      1  C   UNL     1       3.171  -0.964  -0.849  0.00  0.00    +0.077 A 
ATOM      2  C   UNL     1       2.847  -2.303  -0.637  0.00  0.00    +0.033 A 
ATOM      3  C   UNL     1       3.456  -3.271  -1.425  0.00  0.00    +0.085 A 
ATOM      4  C   UNL     1       4.382  -2.892  -2.380  0.00  0.00    +0.233 A 
ATOM      5  O   UNL     1       5.006  -3.793  -3.217  0.00  0.00    -0.437 OA
ATOM      6  C   UNL     1       4.670  -5.122  -3.117  0.00  0.00    +0.141 A 
ATOM      7  C   UNL     1       5.283  -6.002  -4.012  0.00  0.00    +0.050 A 
ATOM      8  C   UNL     1       4.986  -7.367  -3.959  0.00  0.00    +0.042 A 
ATOM      9  C   UNL     1       4.081  -7.844  -3.014  0.00  0.00    +0.124 A 
ATOM     10  F   UNL     1       3.802  -9.153  -2.969  0.00  0.00    -0.205 F 
ATOM     11  C   UNL     1       3.464  -6.985  -2.120  0.00  0.00    +0.053 A 
ATOM     12  C   UNL     1       3.765  -5.623  -2.181  0.00  0.00    +0.067 A 
ATOM     13  N   UNL     1       4.737  -1.598  -2.574  0.00  0.00    -0.197 NA
ATOM     14  C   UNL     1       3.118  -4.683  -1.267  0.00  0.00    +0.202 A 
ATOM     15  O   UNL     1       2.313  -5.050  -0.422  0.00  0.00    -0.286 OA
ATOM     16  C   UNL     1       4.141  -0.650  -1.811  0.00  0.00    +0.132 A 
ENDROOT
BRANCH   1  20
ATOM     17  N   UNL     1       1.240  -0.140   0.371  0.00  0.00    -0.325 N 
ATOM     18  H   UNL     1       0.664  -0.884   0.001  0.00  0.00    +0.145 HD
ATOM     19  H   UNL     1       0.776   0.601   0.881  0.00  0.00    +0.145 HD
ATOM     20  C   UNL     1       2.532   0.087  -0.025  0.00  0.00    +0.245 C 
ATOM     21  O   UNL     1       3.129   1.106   0.296  0.00  0.00    -0.270 OA
ENDBRANCH   1  20
BRANCH  16  22
ATOM     22  N   UNL     1       4.467   0.663  -2.138  0.00  0.00    -0.342 N 
ATOM     23  H   UNL     1       5.273   0.682  -2.752  0.00  0.00    +0.144 HD
ATOM     24  H   UNL     1       4.554   1.255  -1.311  0.00  0.00    +0.144 HD
ENDBRANCH  16  22
TORSDOF 2
