REMARK  Name = 
REMARK  8 active torsions:
REMARK  status: ('A' for Active; 'I' for Inactive)
REMARK    1  A    between atoms: C_1  and  C_2
REMARK    2  A    between atoms: C_1  and  C_23
REMARK    3  A    between atoms: C_2  and  N_3
REMARK    4  A    between atoms: C_6  and  O_9
REMARK    5  A    between atoms: O_9  and  C_10
REMARK    6  A    between atoms: C_10  and  C_11
REMARK    7  A    between atoms: C_10  and  C_17
REMARK    8  A    between atoms: C_23  and  C_24
REMARK                            x       y       z     vdW  Elec       q    Type
REMARK                         _______ _______ _______ _____ _____    ______ ____
ROOT
ATOM      1  N   UNL     1      -0.800  -0.107  -1.593  0.00  0.00    -0.302 NA
ATOM      2  C   UNL     1      -1.102  -0.991  -2.738  0.00  0.00    +0.087 C 
ATOM      3  C   UNL     1      -0.806  -0.337  -4.100  0.00  0.00    +0.047 C 
ATOM      4  C   UNL     1      -1.711   0.886  -4.288  0.00  0.00    +0.122 C 
ATOM      5  C   UNL     1      -1.448   1.833  -3.108  0.00  0.00    +0.047 C 
ATOM      6  C   UNL     1      -1.525   1.163  -1.730  0.00  0.00    +0.087 C 
ENDROOT
BRANCH   1   7
ATOM      7  C   UNL     1       0.651  -0.022  -1.394  0.00  0.00    +0.085 C 
BRANCH   7   8
ATOM      8  C   UNL     1       1.129   0.744  -0.158  0.00  0.00    +0.023 C 
BRANCH   8   9
ATOM      9  C   UNL     1       2.657   0.642  -0.071  0.00  0.00    +0.079 C 
BRANCH   9  10
ATOM     10  C   UNL     1       3.199   1.428   1.058  0.00  0.00    +0.149 A 
ATOM     11  N   UNL     1       3.391   0.929   2.314  0.00  0.00    -0.243 N 
ATOM     12  H   UNL     1       3.211   0.006   2.687  0.00  0.00    +0.192 HD
ATOM     13  N   UNL     1       3.898   1.879   3.108  0.00  0.00    -0.047 NA
ATOM     14  N   UNL     1       4.013   2.951   2.335  0.00  0.00    -0.023 NA
ATOM     15  N   UNL     1       3.586   2.685   1.057  0.00  0.00    -0.114 NA
ENDBRANCH   9  10
ENDBRANCH   8   9
ENDBRANCH   7   8
ENDBRANCH   1   7
BRANCH   4  16
ATOM     16  O   UNL     1      -3.000   0.319  -4.482  0.00  0.00    -0.364 OA
BRANCH  16  17
ATOM     17  C   UNL     1      -4.207   1.039  -4.268  0.00  0.00    +0.179 C 
BRANCH  17  18
ATOM     18  C   UNL     1      -5.214  -0.064  -3.911  0.00  0.00    -0.014 A 
ATOM     19  C   UNL     1      -5.313  -1.242  -4.682  0.00  0.00    +0.006 A 
ATOM     20  C   UNL     1      -6.129  -2.304  -4.292  0.00  0.00    +0.000 A 
ATOM     21  C   UNL     1      -6.853  -2.217  -3.104  0.00  0.00    +0.000 A 
ATOM     22  C   UNL     1      -6.783  -1.056  -2.336  0.00  0.00    +0.000 A 
ATOM     23  C   UNL     1      -5.979   0.015  -2.737  0.00  0.00    +0.006 A 
ENDBRANCH  17  18
BRANCH  17  24
ATOM     24  C   UNL     1      -4.588   1.957  -5.429  0.00  0.00    -0.014 A 
ATOM     25  C   UNL     1      -4.137   3.292  -5.416  0.00  0.00    +0.006 A 
ATOM     26  C   UNL     1      -4.533   4.209  -6.395  0.00  0.00    +0.000 A 
ATOM     27  C   UNL     1      -5.382   3.809  -7.421  0.00  0.00    +0.000 A 
ATOM     28  C   UNL     1      -5.797   2.483  -7.489  0.00  0.00    +0.000 A 
ATOM     29  C   UNL     1      -5.397   1.564  -6.511  0.00  0.00    +0.006 A 
ENDBRANCH  17  24
ENDBRANCH  16  17
ENDBRANCH   4  16
TORSDOF 8
