REMARK  Name = 
REMARK  10 active torsions:
REMARK  status: ('A' for Active; 'I' for Inactive)
REMARK    1  A    between atoms: C_2  and  C_3
REMARK    2  A    between atoms: N_5  and  C_6
REMARK    3  A    between atoms: C_6  and  C_7
REMARK    4  A    between atoms: C_7  and  C_10
REMARK    5  A    between atoms: N_15  and  S_16
REMARK    6  A    between atoms: S_16  and  C_19
REMARK    7  A    between atoms: C_22  and  C_25
REMARK    8  A    between atoms: C_25  and  C_26
REMARK    9  A    between atoms: C_25  and  O_27
REMARK   10  A    between atoms: C_25  and  C_28
REMARK                            x       y       z     vdW  Elec       q    Type
REMARK                         _______ _______ _______ _____ _____    ______ ____
ROOT
ATOM      1  S   UNL     1      11.347   5.717   2.811  0.00  0.00    +0.061 S 
ATOM      2  O   UNL     1      11.130   7.096   2.428  0.00  0.00    -0.153 OA
ATOM      3  O   UNL     1      10.236   4.869   3.175  0.00  0.00    -0.153 OA
ENDROOT
BRANCH   1   5
ATOM      4  C   UNL     1      12.137   6.258   5.394  0.00  0.00    +0.091 C 
ATOM      5  N   UNL     1      12.525   5.654   4.062  0.00  0.00    -0.171 NA
ATOM      6  C   UNL     1      13.878   6.211   3.716  0.00  0.00    +0.125 C 
ATOM      7  C   UNL     1      13.860   7.749   3.627  0.00  0.00    +0.101 C 
ATOM      8  N   UNL     1      13.321   8.393   4.841  0.00  0.00    -0.299 NA
ATOM      9  C   UNL     1      12.032   7.793   5.271  0.00  0.00    +0.104 C 
ATOM     10  C   UNL     1      10.907   5.631   6.030  0.00  0.00    +0.027 C 
BRANCH   8  11
ATOM     11  C   UNL     1      13.196   9.838   4.654  0.00  0.00    +0.100 C 
BRANCH  11  12
ATOM     12  C   UNL     1      12.929  10.563   5.965  0.00  0.00    +0.059 C 
ATOM     13  C   UNL     1      11.568  11.240   6.115  0.00  0.00    +0.018 C 
ATOM     14  C   UNL     1      12.785  12.077   5.877  0.00  0.00    +0.018 C 
BRANCH  12  15
ATOM     15  C   UNL     1      13.553  10.019   7.223  0.00  0.00    +0.218 C 
ATOM     16  O   UNL     1      12.885   9.504   8.109  0.00  0.00    -0.275 OA
ATOM     17  N   UNL     1      14.904  10.150   7.312  0.00  0.00    -0.329 N 
ATOM     18  H   UNL     1      15.351   9.683   8.088  0.00  0.00    +0.145 HD
ATOM     19  H   UNL     1      15.462  10.435   6.522  0.00  0.00    +0.145 HD
ENDBRANCH  12  15
ENDBRANCH  11  12
ENDBRANCH   8  11
ENDBRANCH   1   5
BRANCH   1  20
ATOM     20  C   UNL     1      12.187   4.927   1.460  0.00  0.00    +0.106 A 
ATOM     21  C   UNL     1      12.525   5.649   0.312  0.00  0.00    +0.029 A 
ATOM     22  C   UNL     1      13.264   5.025  -0.694  0.00  0.00    +0.008 A 
ATOM     23  C   UNL     1      13.681   3.686  -0.566  0.00  0.00    -0.008 A 
ATOM     24  C   UNL     1      13.311   2.986   0.600  0.00  0.00    +0.008 A 
ATOM     25  C   UNL     1      12.566   3.597   1.606  0.00  0.00    +0.029 A 
BRANCH  23  26
ATOM     26  C   UNL     1      14.490   3.002  -1.674  0.00  0.00    +0.183 C 
ATOM     27  C   UNL     1      13.599   2.841  -2.916  0.00  0.00    +0.056 C 
BRANCH  26  28
ATOM     28  C   UNL     1      15.815   3.755  -2.038  0.00  0.00    +0.422 C 
ATOM     29  F   UNL     1      15.828   4.169  -3.328  0.00  0.00    -0.167 F 
ATOM     30  F   UNL     1      16.878   2.917  -1.895  0.00  0.00    -0.167 F 
ATOM     31  F   UNL     1      16.066   4.838  -1.269  0.00  0.00    -0.167 F 
ENDBRANCH  26  28
BRANCH  26  32
ATOM     32  O   UNL     1      14.780   1.639  -1.259  0.00  0.00    -0.376 OA
ATOM     33  H   UNL     1      15.546   1.331  -1.779  0.00  0.00    +0.211 HD
ENDBRANCH  26  32
ENDBRANCH  23  26
ENDBRANCH   1  20
TORSDOF 8
