REMARK  Name = 
REMARK  10 active torsions:
REMARK  status: ('A' for Active; 'I' for Inactive)
REMARK    1  A    between atoms: C_1  and  C_2
REMARK    2  A    between atoms: C_2  and  C_3
REMARK    3  A    between atoms: C_8  and  N_9
REMARK    4  A    between atoms: C_10  and  C_11
REMARK    5  A    between atoms: C_16  and  C_17
REMARK    6  A    between atoms: C_16  and  C_18
REMARK    7  A    between atoms: N_21  and  C_22
REMARK    8  A    between atoms: C_22  and  C_23
REMARK    9  A    between atoms: C_23  and  N_24
REMARK   10  A    between atoms: C_25  and  C_26
REMARK                            x       y       z     vdW  Elec       q    Type
REMARK                         _______ _______ _______ _____ _____    ______ ____
ROOT
ATOM      1  C   UNL     1       1.899  -2.750  -0.960  0.00  0.00    -0.011 A 
ATOM      2  C   UNL     1       1.259  -1.753  -1.713  0.00  0.00    +0.012 A 
ATOM      3  C   UNL     1       0.606  -2.019  -2.918  0.00  0.00    +0.048 A 
ATOM      4  C   UNL     1       0.536  -3.314  -3.402  0.00  0.00    +0.143 A 
ATOM      5  O   UNL     1      -0.156  -3.454  -4.576  0.00  0.00    -0.475 OA
ATOM      6  C   UNL     1       0.064  -4.701  -5.229  0.00  0.00    +0.181 C 
ATOM      7  C   UNL     1       0.073  -5.890  -4.257  0.00  0.00    +0.263 C 
ATOM      8  N   UNL     1       0.963  -5.704  -3.194  0.00  0.00    -0.263 N 
ATOM      9  O   UNL     1      -0.535  -6.934  -4.475  0.00  0.00    -0.271 OA
ATOM     10  C   UNL     1      -1.049  -4.866  -6.268  0.00  0.00    +0.065 C 
ATOM     11  C   UNL     1       1.419  -4.668  -5.963  0.00  0.00    +0.065 C 
ATOM     12  C   UNL     1       1.142  -4.367  -2.706  0.00  0.00    +0.079 A 
ATOM     13  C   UNL     1       1.849  -4.055  -1.523  0.00  0.00    +0.036 A 
ENDROOT
BRANCH   1  15
ATOM     14  C   UNL     1       3.226  -1.311   0.761  0.00  0.00    +0.056 A 
ATOM     15  C   UNL     1       2.558  -2.487   0.377  0.00  0.00    +0.043 A 
ATOM     16  C   UNL     1       2.543  -3.435   1.422  0.00  0.00    +0.129 A 
ATOM     17  N   UNL     1       3.155  -3.296   2.612  0.00  0.00    -0.199 NA
ATOM     18  C   UNL     1       3.773  -2.149   2.841  0.00  0.00    +0.214 A 
ATOM     19  N   UNL     1       4.402  -1.979   4.057  0.00  0.00    -0.327 N 
ATOM     20  H   UNL     1       4.659  -2.876   4.441  0.00  0.00    +0.145 HD
ATOM     21  H   UNL     1       5.131  -1.285   3.967  0.00  0.00    +0.145 HD
ATOM     22  N   UNL     1       3.833  -1.153   1.971  0.00  0.00    -0.219 NA
BRANCH  16  23
ATOM     23  N   UNL     1       1.843  -4.645   1.341  0.00  0.00    -0.343 N 
ATOM     24  H   UNL     1       0.862  -4.475   1.141  0.00  0.00    +0.144 HD
ATOM     25  H   UNL     1       1.963  -5.101   2.244  0.00  0.00    +0.144 HD
ENDBRANCH  16  23
BRANCH  14  27
ATOM     26  C   UNL     1       2.134   0.890   0.326  0.00  0.00    +0.010 C 
ATOM     27  C   UNL     1       3.293  -0.039  -0.043  0.00  0.00    +0.053 C 
ENDBRANCH  14  27
ENDBRANCH   1  15
BRANCH   8  28
ATOM     28  C   UNL     1       1.512  -6.875  -2.506  0.00  0.00    +0.132 C 
BRANCH  28  29
ATOM     29  C   UNL     1       1.890  -8.029  -3.464  0.00  0.00    +0.123 C 
BRANCH  29  30
ATOM     30  N   UNL     1       2.599  -9.119  -2.828  0.00  0.00    -0.314 N 
ATOM     31  H   UNL     1       2.199 -10.046  -2.913  0.00  0.00    +0.149 HD
ATOM     32  C   UNL     1       3.907  -8.991  -2.443  0.00  0.00    +0.210 C 
ATOM     33  O   UNL     1       4.541  -7.944  -2.505  0.00  0.00    -0.276 OA
ATOM     34  C   UNL     1       4.518 -10.261  -1.910  0.00  0.00    +0.109 C 
ENDBRANCH  29  30
ENDBRANCH  28  29
ENDBRANCH   8  28
TORSDOF 6
