REMARK  Name = 
REMARK  3 active torsions:
REMARK  status: ('A' for Active; 'I' for Inactive)
REMARK    1  A    between atoms: C_2  and  C_3
REMARK    2  A    between atoms: C_3  and  C_4
REMARK    3  A    between atoms: C_13  and  C_15
REMARK                            x       y       z     vdW  Elec       q    Type
REMARK                         _______ _______ _______ _____ _____    ______ ____
ROOT
ATOM      1  C   UNL     1       2.024   0.094  -0.142  0.00  0.00    +0.056 C 
ATOM      2  C   UNL     1       2.419   1.291   0.673  0.00  0.00    +0.033 A 
ATOM      3  N   UNL     1       2.148   2.605   0.388  0.00  0.00    -0.356 N 
ATOM      4  H   UNL     1       1.632   2.960  -0.409  0.00  0.00    +0.166 HD
ATOM      5  C   UNL     1       2.757   3.422   1.324  0.00  0.00    +0.066 A 
ATOM      6  C   UNL     1       3.369   2.581   2.243  0.00  0.00    +0.042 A 
ATOM      7  C   UNL     1       3.171   1.244   1.828  0.00  0.00    +0.058 A 
ATOM      8  C   UNL     1       3.658   0.004   2.403  0.00  0.00    +0.246 C 
ATOM      9  O   UNL     1       4.344  -0.053   3.416  0.00  0.00    -0.270 OA
ATOM     10  N   UNL     1       3.311  -1.132   1.701  0.00  0.00    -0.311 N 
ATOM     11  H   UNL     1       3.564  -1.979   2.194  0.00  0.00    +0.149 HD
ATOM     12  C   UNL     1       2.209  -1.178   0.741  0.00  0.00    +0.114 C 
ENDROOT
BRANCH   5  13
ATOM     13  C   UNL     1       2.730   4.883   1.240  0.00  0.00    +0.092 A 
ATOM     14  C   UNL     1       3.424   5.665   2.139  0.00  0.00    +0.049 A 
ATOM     15  C   UNL     1       3.346   7.019   1.938  0.00  0.00    +0.116 A 
ATOM     16  N   UNL     1       2.641   7.571   0.938  0.00  0.00    -0.223 NA
ATOM     17  C   UNL     1       2.013   6.730   0.110  0.00  0.00    +0.213 A 
ATOM     18  N   UNL     1       1.278   7.303  -0.908  0.00  0.00    -0.327 N 
ATOM     19  H   UNL     1       1.054   8.258  -0.656  0.00  0.00    +0.145 HD
ATOM     20  H   UNL     1       0.508   6.701  -1.160  0.00  0.00    +0.145 HD
ATOM     21  N   UNL     1       2.008   5.395   0.221  0.00  0.00    -0.213 NA
ENDBRANCH   5  13
BRANCH   1  22
ATOM     22  C   UNL     1       2.839   0.054  -1.449  0.00  0.00    +0.044 C 
BRANCH  22  23
ATOM     23  C   UNL     1       2.424  -1.065  -2.390  0.00  0.00    +0.214 C 
ATOM     24  F   UNL     1       1.088  -0.974  -2.627  0.00  0.00    -0.249 F 
ENDBRANCH  22  23
ENDBRANCH   1  22
TORSDOF 3
