REMARK  Name = 
REMARK  4 active torsions:
REMARK  status: ('A' for Active; 'I' for Inactive)
REMARK    1  A    between atoms: O_1  and  C_2
REMARK    2  A    between atoms: C_2  and  C_4
REMARK    3  A    between atoms: C_9  and  N_10
REMARK    4  A    between atoms: N_10  and  C_11
REMARK                            x       y       z     vdW  Elec       q    Type
REMARK                         _______ _______ _______ _____ _____    ______ ____
ROOT
ATOM      1  C   UNL     1       5.153   1.099  -2.045  0.00  0.00    +0.080 A 
ATOM      2  C   UNL     1       4.378   0.099  -1.401  0.00  0.00    +0.041 A 
ATOM      3  C   UNL     1       4.149   0.274  -0.024  0.00  0.00    +0.024 A 
ATOM      4  C   UNL     1       4.657   1.369   0.685  0.00  0.00    +0.002 A 
ATOM      5  C   UNL     1       5.421   2.328   0.038  0.00  0.00    +0.001 A 
ATOM      6  C   UNL     1       5.660   2.202  -1.327  0.00  0.00    +0.017 A 
ENDROOT
BRANCH   1   7
ATOM      7  C   UNL     1       5.494   1.074  -3.494  0.00  0.00    +0.339 C 
ATOM      8  O   UNL     1       5.685   2.078  -4.157  0.00  0.00    -0.245 OA
BRANCH   7   9
ATOM      9  O   UNL     1       5.619  -0.174  -3.998  0.00  0.00    -0.477 OA
ATOM     10  H   UNL     1       5.487  -0.859  -3.306  0.00  0.00    +0.295 HD
ENDBRANCH   7   9
ENDBRANCH   1   7
BRANCH   2  11
ATOM     11  N   UNL     1       3.963  -1.064  -2.097  0.00  0.00    -0.340 N 
ATOM     12  H   UNL     1       3.545  -0.810  -2.999  0.00  0.00    +0.146 HD
BRANCH  11  13
ATOM     13  C   UNL     1       3.168  -2.106  -1.409  0.00  0.00    +0.070 C 
ATOM     14  C   UNL     1       3.450  -3.490  -2.014  0.00  0.00    +0.022 C 
ATOM     15  C   UNL     1       2.774  -3.738  -3.357  0.00  0.00    +0.002 C 
ATOM     16  C   UNL     1       1.286  -3.410  -3.317  0.00  0.00    +0.000 C 
ATOM     17  C   UNL     1       1.044  -1.989  -2.822  0.00  0.00    +0.002 C 
ATOM     18  C   UNL     1       1.669  -1.770  -1.445  0.00  0.00    +0.022 C 
ENDBRANCH  11  13
ENDBRANCH   2  11
TORSDOF 4
