REMARK  Name = 
REMARK  7 active torsions:
REMARK  status: ('A' for Active; 'I' for Inactive)
REMARK    1  A    between atoms: C_2  and  N_20
REMARK    2  A    between atoms: N_10  and  C_11
REMARK    3  A    between atoms: C_11  and  C_12
REMARK    4  A    between atoms: N_14  and  C_15
REMARK    5  A    between atoms: C_15  and  C_16
REMARK    6  A    between atoms: C_16  and  O_17
REMARK    7  A    between atoms: C_21  and  C_23
REMARK                            x       y       z     vdW  Elec       q    Type
REMARK                         _______ _______ _______ _____ _____    ______ ____
ROOT
ATOM      1  C   UNL     1       2.047   0.015   0.051  0.00  0.00    +0.164 C 
ATOM      2  C   UNL     1       2.728  -1.177   0.717  0.00  0.00    +0.241 C 
ATOM      3  O   UNL     1       2.102  -2.087   1.263  0.00  0.00    -0.273 OA
ATOM      4  N   UNL     1       4.109  -1.194   0.509  0.00  0.00    -0.261 N 
ATOM      5  C   UNL     1       4.841   0.029   0.633  0.00  0.00    +0.040 A 
ATOM      6  C   UNL     1       6.236   0.059   0.779  0.00  0.00    +0.024 A 
ATOM      7  C   UNL     1       6.914   1.266   0.985  0.00  0.00    +0.002 A 
ATOM      8  C   UNL     1       6.214   2.465   1.038  0.00  0.00    +0.000 A 
ATOM      9  C   UNL     1       4.831   2.459   0.890  0.00  0.00    +0.005 A 
ATOM     10  C   UNL     1       4.139   1.251   0.691  0.00  0.00    -0.024 A 
ATOM     11  C   UNL     1       2.634   1.303   0.606  0.00  0.00    +0.068 C 
ENDROOT
BRANCH   1  12
ATOM     12  N   UNL     1       0.602  -0.086   0.196  0.00  0.00    -0.299 N 
ATOM     13  H   UNL     1       0.250  -0.906   0.670  0.00  0.00    +0.150 HD
ATOM     14  C   UNL     1      -0.227   0.665  -0.591  0.00  0.00    +0.261 C 
ATOM     15  O   UNL     1       0.185   1.581  -1.302  0.00  0.00    -0.269 OA
BRANCH  14  16
ATOM     16  C   UNL     1      -1.633   0.333  -0.533  0.00  0.00    +0.103 A 
ATOM     17  N   UNL     1      -2.568   1.129  -1.202  0.00  0.00    -0.345 N 
ATOM     18  H   UNL     1      -2.333   1.947  -1.753  0.00  0.00    +0.167 HD
ATOM     19  C   UNL     1      -3.796   0.628  -0.953  0.00  0.00    +0.087 A 
ATOM     20  S   UNL     1      -5.365   1.016  -1.336  0.00  0.00    -0.059 S 
ATOM     21  C   UNL     1      -5.895  -0.349  -0.422  0.00  0.00    +0.081 A 
ATOM     22  C   UNL     1      -4.867  -1.085   0.147  0.00  0.00    +0.037 A 
ATOM     23 CL   UNL     1      -7.579  -0.665  -0.291  0.00  0.00    -0.076 Cl
ATOM     24  C   UNL     1      -3.669  -0.462  -0.190  0.00  0.00    +0.009 A 
ATOM     25  C   UNL     1      -2.331  -0.706   0.094  0.00  0.00    +0.041 A 
ENDBRANCH  14  16
ENDBRANCH   1  12
BRANCH   4  26
ATOM     26  C   UNL     1       4.749  -2.503   0.502  0.00  0.00    +0.209 C 
BRANCH  26  27
ATOM     27  C   UNL     1       4.018  -3.486  -0.441  0.00  0.00    +0.231 C 
ATOM     28  N   UNL     1       4.195  -4.819  -0.117  0.00  0.00    -0.312 N 
ATOM     29  H   UNL     1       4.674  -5.067   0.740  0.00  0.00    +0.149 HD
ATOM     30  O   UNL     1       3.375  -3.130  -1.427  0.00  0.00    -0.274 OA
BRANCH  28  31
ATOM     31  C   UNL     1       3.475  -5.870  -0.825  0.00  0.00    +0.132 C 
BRANCH  31  32
ATOM     32  C   UNL     1       4.259  -6.390  -2.028  0.00  0.00    +0.174 C 
BRANCH  32  33
ATOM     33  O   UNL     1       5.490  -6.972  -1.598  0.00  0.00    -0.393 OA
ATOM     34  H   UNL     1       6.000  -6.250  -1.194  0.00  0.00    +0.209 HD
ENDBRANCH  32  33
ENDBRANCH  31  32
ENDBRANCH  28  31
ENDBRANCH  26  27
ENDBRANCH   4  26
TORSDOF 7
