REMARK  Name = 
REMARK  7 active torsions:
REMARK  status: ('A' for Active; 'I' for Inactive)
REMARK    1  A    between atoms: C_2  and  C_3
REMARK    2  A    between atoms: C_2  and  O_4
REMARK    3  A    between atoms: C_2  and  C_5
REMARK    4  A    between atoms: C_5  and  N_6
REMARK    5  A    between atoms: N_6  and  C_7
REMARK    6  A    between atoms: C_11  and  C_19
REMARK    7  A    between atoms: C_12  and  C_13
REMARK                            x       y       z     vdW  Elec       q    Type
REMARK                         _______ _______ _______ _____ _____    ______ ____
ROOT
ATOM      1  C   UNL     1       4.760   0.776   2.576  0.00  0.00    +0.132 A 
ATOM      2  N   UNL     1       5.300  -0.060   3.510  0.00  0.00    -0.220 NA
ATOM      3  C   UNL     1       5.808   0.436   4.642  0.00  0.00    +0.225 A 
ATOM      4  N   UNL     1       5.826   1.711   5.019  0.00  0.00    -0.218 NA
ATOM      5  C   UNL     1       5.286   2.503   4.083  0.00  0.00    +0.144 A 
ATOM      6  N   UNL     1       5.137   3.832   4.272  0.00  0.00    -0.338 N 
ATOM      7  H   UNL     1       5.379   4.283   5.135  0.00  0.00    +0.167 HD
ATOM      8  C   UNL     1       4.503   4.441   3.208  0.00  0.00    +0.057 A 
ATOM      9  C   UNL     1       4.395   3.450   2.202  0.00  0.00    +0.020 A 
ATOM     10  C   UNL     1       4.771   2.174   2.847  0.00  0.00    +0.067 A 
ENDROOT
BRANCH   8  11
ATOM     11  C   UNL     1       4.125   5.853   3.428  0.00  0.00    -0.001 A 
ATOM     12  C   UNL     1       2.829   6.319   3.185  0.00  0.00    +0.010 A 
ATOM     13  C   UNL     1       2.461   7.639   3.464  0.00  0.00    +0.001 A 
ATOM     14  C   UNL     1       3.342   8.478   4.137  0.00  0.00    +0.000 A 
ATOM     15  C   UNL     1       4.604   8.009   4.485  0.00  0.00    +0.001 A 
ATOM     16  C   UNL     1       5.005   6.725   4.101  0.00  0.00    +0.010 A 
ENDBRANCH   8  11
BRANCH   9  17
ATOM     17  C   UNL     1       3.967   3.645   0.789  0.00  0.00    -0.015 A 
ATOM     18  C   UNL     1       3.133   4.681   0.353  0.00  0.00    +0.008 A 
ATOM     19  C   UNL     1       2.611   4.741  -0.950  0.00  0.00    +0.001 A 
ATOM     20  C   UNL     1       2.984   3.795  -1.888  0.00  0.00    +0.000 A 
ATOM     21  C   UNL     1       3.918   2.834  -1.532  0.00  0.00    +0.001 A 
ATOM     22  C   UNL     1       4.406   2.776  -0.213  0.00  0.00    +0.008 A 
ENDBRANCH   9  17
BRANCH   1  23
ATOM     23  N   UNL     1       4.149   0.188   1.447  0.00  0.00    -0.326 N 
ATOM     24  H   UNL     1       3.147   0.224   1.637  0.00  0.00    +0.148 HD
BRANCH  23  25
ATOM     25  C   UNL     1       4.592  -1.208   1.232  0.00  0.00    +0.134 C 
BRANCH  25  26
ATOM     26  C   UNL     1       4.253  -1.689  -0.192  0.00  0.00    +0.128 C 
ATOM     27  C   UNL     1       2.761  -1.841  -0.443  0.00  0.00    +0.039 C 
BRANCH  26  28
ATOM     28  O   UNL     1       4.772  -0.773  -1.159  0.00  0.00    -0.391 OA
ATOM     29  H   UNL     1       4.429   0.098  -0.880  0.00  0.00    +0.210 HD
ENDBRANCH  26  28
ENDBRANCH  25  26
ENDBRANCH  23  25
ENDBRANCH   1  23
TORSDOF 6
