REMARK  Name = 
REMARK  3 active torsions:
REMARK  status: ('A' for Active; 'I' for Inactive)
REMARK    1  A    between atoms: O_1  and  C_2
REMARK    2  A    between atoms: C_2  and  CA_4
REMARK    3  A    between atoms: C_7  and  C_9
REMARK                            x       y       z     vdW  Elec       q    Type
REMARK                         _______ _______ _______ _____ _____    ______ ____
ROOT
ATOM      1  CA  UNL     1       3.061   1.004  -0.675  0.00  0.00    +0.166 A 
ATOM      2  N   UNL     1       4.094   0.844  -1.589  0.00  0.00    -0.221 NA
ATOM      3  C   UNL     1       4.368   2.053  -2.057  0.00  0.00    +0.139 A 
ATOM      4  N   UNL     1       3.566   2.983  -1.428  0.00  0.00    -0.344 N 
ATOM      5  H   UNL     1       3.576   3.978  -1.597  0.00  0.00    +0.167 HD
ATOM      6  C   UNL     1       2.728   2.333  -0.568  0.00  0.00    +0.119 A 
ENDROOT
BRANCH   3   7
ATOM      7  C   UNL     1       5.343   2.380  -3.108  0.00  0.00    +0.017 A 
ATOM      8  C   UNL     1       6.083   1.348  -3.705  0.00  0.00    +0.011 A 
ATOM      9  C   UNL     1       6.981   1.612  -4.744  0.00  0.00    +0.001 A 
ATOM     10  C   UNL     1       7.156   2.916  -5.200  0.00  0.00    +0.000 A 
ATOM     11  C   UNL     1       6.442   3.955  -4.611  0.00  0.00    +0.001 A 
ATOM     12  C   UNL     1       5.544   3.691  -3.571  0.00  0.00    +0.011 A 
ENDBRANCH   3   7
BRANCH   1  13
ATOM     13  C   UNL     1       2.464  -0.129   0.021  0.00  0.00    +0.357 C 
ATOM     14  OXT UNL     1       1.526  -0.054   0.802  0.00  0.00    -0.243 OA
BRANCH  13  15
ATOM     15  O   UNL     1       3.073  -1.301  -0.303  0.00  0.00    -0.476 OA
ATOM     16  H   UNL     1       3.784  -1.080  -0.948  0.00  0.00    +0.295 HD
ENDBRANCH  13  15
ENDBRANCH   1  13
TORSDOF 3
