REMARK  Name = 
REMARK  5 active torsions:
REMARK  status: ('A' for Active; 'I' for Inactive)
REMARK    1  A    between atoms: C_2  and  C_4
REMARK    2  A    between atoms: C_8  and  C_9
REMARK    3  A    between atoms: C_9  and  N_10
REMARK    4  A    between atoms: C_22  and  C_23
REMARK    5  A    between atoms: C_23  and  O_24
REMARK                            x       y       z     vdW  Elec       q    Type
REMARK                         _______ _______ _______ _____ _____    ______ ____
ROOT
ATOM      1  N   UNL     1       0.887  -4.750   0.277  0.00  0.00    -0.339 N 
ATOM      2  C   UNL     1       0.020  -5.796   0.696  0.00  0.00    +0.064 A 
ATOM      3  C   UNL     1      -1.228  -5.194   0.971  0.00  0.00    +0.004 A 
ATOM      4  C   UNL     1      -2.299  -5.957   1.484  0.00  0.00    +0.010 A 
ATOM      5  C   UNL     1      -2.152  -7.311   1.732  0.00  0.00    +0.002 A 
ATOM      6  C   UNL     1      -0.946  -7.922   1.448  0.00  0.00    +0.017 A 
ATOM      7  C   UNL     1      -1.132  -3.818   0.663  0.00  0.00    -0.019 A 
ATOM      8  C   UNL     1      -2.193  -2.773   0.838  0.00  0.00    +0.037 C 
ATOM      9  C   UNL     1      -1.816  -1.731   1.898  0.00  0.00    +0.005 C 
ATOM     10  C   UNL     1      -0.745  -0.723   1.462  0.00  0.00    +0.001 C 
ATOM     11  C   UNL     1       0.626  -1.316   1.115  0.00  0.00    +0.006 C 
ATOM     12  C   UNL     1       0.594  -2.186  -0.146  0.00  0.00    +0.054 C 
ATOM     13  C   UNL     1       0.150  -7.206   0.898  0.00  0.00    +0.083 A 
ATOM     14  C   UNL     1       0.150  -3.573   0.212  0.00  0.00    +0.023 A 
ENDROOT
BRANCH  13  15
ATOM     15  C   UNL     1       1.372  -8.001   0.614  0.00  0.00    +0.339 C 
ATOM     16  O   UNL     1       2.501  -7.625   0.867  0.00  0.00    -0.245 OA
BRANCH  15  17
ATOM     17  O   UNL     1       1.115  -9.210   0.081  0.00  0.00    -0.477 OA
ATOM     18  H   UNL     1       0.188  -9.370  -0.171  0.00  0.00    +0.295 HD
ENDBRANCH  15  17
ENDBRANCH  13  15
BRANCH   1  19
ATOM     19  C   UNL     1       2.345  -4.948   0.080  0.00  0.00    +0.157 C 
BRANCH  19  22
ATOM     20  C   UNL     1       4.407  -1.710   0.258  0.00  0.00    +0.037 A 
ATOM     21  C   UNL     1       3.738  -2.885   0.645  0.00  0.00    +0.018 A 
ATOM     22  C   UNL     1       3.225  -3.777  -0.324  0.00  0.00    -0.027 A 
ATOM     23  C   UNL     1       3.513  -3.535  -1.678  0.00  0.00    +0.005 A 
ATOM     24  C   UNL     1       4.233  -2.400  -2.063  0.00  0.00    +0.001 A 
ATOM     25  C   UNL     1       4.657  -1.482  -1.103  0.00  0.00    +0.013 A 
BRANCH  20  29
ATOM     26  N   UNL     1       4.569  -0.812   2.547  0.00  0.00    -0.325 N 
ATOM     27  H   UNL     1       4.172  -1.637   2.966  0.00  0.00    +0.145 HD
ATOM     28  H   UNL     1       4.788  -0.031   3.153  0.00  0.00    +0.145 HD
ATOM     29  C   UNL     1       4.791  -0.623   1.211  0.00  0.00    +0.242 C 
ATOM     30  O   UNL     1       5.263   0.438   0.819  0.00  0.00    -0.270 OA
ENDBRANCH  20  29
ENDBRANCH  19  22
ENDBRANCH   1  19
TORSDOF 5
