REMARK  Name = 
REMARK  3 active torsions:
REMARK  status: ('A' for Active; 'I' for Inactive)
REMARK    1  A    between atoms: C_5  and  C_8
REMARK    2  A    between atoms: C_8  and  C_14
REMARK    3  A    between atoms: C_17  and  C_20
REMARK                            x       y       z     vdW  Elec       q    Type
REMARK                         _______ _______ _______ _____ _____    ______ ____
ROOT
ATOM      1  C   UNL     1       7.770   0.354   0.707  0.00  0.00    -0.037 A 
ATOM      2  C   UNL     1       8.584   1.490   0.845  0.00  0.00    +0.005 A 
ATOM      3  C   UNL     1       9.243   1.778   2.051  0.00  0.00    +0.010 A 
ATOM      4  C   UNL     1       9.124   0.950   3.177  0.00  0.00    +0.003 A 
ATOM      5  C   UNL     1       8.344  -0.205   3.027  0.00  0.00    +0.010 A 
ATOM      6  C   UNL     1       7.689  -0.499   1.823  0.00  0.00    +0.005 A 
ENDROOT
BRANCH   4   7
ATOM      7  C   UNL     1       9.749   1.318   4.454  0.00  0.00    +0.102 A 
ATOM      8  N   UNL     1       9.927   2.649   4.725  0.00  0.00    -0.233 NA
ATOM      9  C   UNL     1      10.446   3.004   5.920  0.00  0.00    +0.224 A 
ATOM     10  N   UNL     1      10.847   2.199   6.922  0.00  0.00    -0.216 NA
ATOM     11  C   UNL     1      10.668   0.911   6.601  0.00  0.00    +0.161 A 
ATOM     12  N   UNL     1      10.968  -0.167   7.380  0.00  0.00    -0.329 N 
ATOM     13  H   UNL     1      11.363  -0.124   8.307  0.00  0.00    +0.168 HD
ATOM     14  C   UNL     1      10.628  -1.291   6.679  0.00  0.00    +0.198 A 
ATOM     15  N   UNL     1      10.126  -0.996   5.500  0.00  0.00    -0.232 NA
ATOM     16  C   UNL     1      10.143   0.386   5.429  0.00  0.00    +0.134 A 
ENDBRANCH   4   7
BRANCH   1  17
ATOM     17  C   UNL     1       6.933   0.052  -0.571  0.00  0.00    +0.023 C 
ATOM     18  C   UNL     1       7.205   1.097  -1.704  0.00  0.00    +0.031 C 
ATOM     19  C   UNL     1       6.525   0.741  -3.024  0.00  0.00    +0.082 C 
ATOM     20  N   UNL     1       6.981  -0.558  -3.508  0.00  0.00    -0.316 NA
ATOM     21  H   UNL     1       6.492  -0.784  -4.375  0.00  0.00    +0.122 HD
ATOM     22  C   UNL     1       6.741  -1.611  -2.527  0.00  0.00    +0.082 C 
ATOM     23  C   UNL     1       7.412  -1.303  -1.183  0.00  0.00    +0.031 C 
BRANCH  17  28
ATOM     24 CL   UNL     1       1.149   0.071   1.407  0.00  0.00    -0.084 Cl
ATOM     25  C   UNL     1       2.755   0.055   0.790  0.00  0.00    +0.041 A 
ATOM     26  C   UNL     1       3.369   1.245   0.418  0.00  0.00    +0.020 A 
ATOM     27  C   UNL     1       4.693   1.237  -0.038  0.00  0.00    +0.006 A 
ATOM     28  C   UNL     1       5.424   0.039  -0.157  0.00  0.00    -0.037 A 
ATOM     29  C   UNL     1       4.764  -1.150   0.217  0.00  0.00    +0.006 A 
ATOM     30  C   UNL     1       3.445  -1.145   0.687  0.00  0.00    +0.020 A 
ENDBRANCH  17  28
ENDBRANCH   1  17
TORSDOF 3
