REMARK  Name = 
REMARK  8 active torsions:
REMARK  status: ('A' for Active; 'I' for Inactive)
REMARK    1  A    between atoms: C_1  and  C_2
REMARK    2  A    between atoms: C_2  and  C_3
REMARK    3  A    between atoms: C_3  and  O_4
REMARK    4  A    between atoms: O_4  and  C_5
REMARK    5  A    between atoms: C_8  and  C_11
REMARK    6  A    between atoms: C_14  and  C_23
REMARK    7  A    between atoms: C_15  and  C_16
REMARK    8  A    between atoms: C_16  and  C_17
REMARK                            x       y       z     vdW  Elec       q    Type
REMARK                         _______ _______ _______ _____ _____    ______ ____
ROOT
ATOM      1  C   UNL     1       6.925   5.607   3.031  0.00  0.00    -0.007 A 
ATOM      2  C   UNL     1       8.283   5.503   3.594  0.00  0.00    -0.015 A 
ATOM      3  C   UNL     1       8.792   6.757   3.984  0.00  0.00    +0.025 A 
ATOM      4  S   UNL     1       7.607   7.984   3.731  0.00  0.00    -0.096 S 
ATOM      5  C   UNL     1       6.521   6.924   2.979  0.00  0.00    +0.054 A 
ENDROOT
BRANCH   3   6
ATOM      6  C   UNL     1      10.078   7.153   4.649  0.00  0.00    +0.007 A 
ATOM      7  C   UNL     1      10.824   8.323   4.372  0.00  0.00    +0.049 A 
ATOM      8 CL   UNL     1      10.509   9.379   3.033  0.00  0.00    -0.083 Cl
ATOM      9  C   UNL     1      11.932   8.685   5.164  0.00  0.00    +0.020 A 
ATOM     10  C   UNL     1      12.358   7.877   6.213  0.00  0.00    +0.001 A 
ATOM     11  C   UNL     1      11.687   6.694   6.464  0.00  0.00    +0.001 A 
ATOM     12  C   UNL     1      10.570   6.350   5.697  0.00  0.00    +0.010 A 
ENDBRANCH   3   6
BRANCH   1  16
ATOM     13  C   UNL     1       4.689   2.413   1.200  0.00  0.00    +0.121 A 
ATOM     14  C   UNL     1       5.432   2.189   2.353  0.00  0.00    +0.046 A 
ATOM     15  C   UNL     1       6.074   3.250   3.000  0.00  0.00    +0.012 A 
ATOM     16  C   UNL     1       6.069   4.542   2.465  0.00  0.00    -0.017 A 
ATOM     17  C   UNL     1       5.255   4.770   1.346  0.00  0.00    +0.012 A 
ATOM     18  C   UNL     1       4.557   3.720   0.731  0.00  0.00    +0.046 A 
BRANCH  13  19
ATOM     19  O   UNL     1       4.155   1.291   0.627  0.00  0.00    -0.492 OA
BRANCH  19  20
ATOM     20  C   UNL     1       3.365   1.510  -0.539  0.00  0.00    +0.229 C 
BRANCH  20  22
ATOM     21  C   UNL     1       2.005   0.389  -2.305  0.00  0.00    +0.007 C 
ATOM     22  C   UNL     1       2.916   0.170  -1.109  0.00  0.00    +0.038 C 
ENDBRANCH  20  22
ENDBRANCH  19  20
ENDBRANCH  13  19
ENDBRANCH   1  16
BRANCH   2  23
ATOM     23  C   UNL     1       9.060   4.198   3.645  0.00  0.00    +0.151 C 
BRANCH  23  24
ATOM     24  C   UNL     1       8.892   3.318   4.886  0.00  0.00    +0.280 C 
ATOM     25  N   UNL     1       8.274   3.893   5.992  0.00  0.00    -0.175 N 
ATOM     26  H   UNL     1       7.960   4.845   5.909  0.00  0.00    +0.254 HD
ATOM     27  C   UNL     1       8.229   3.364   7.252  0.00  0.00    +0.375 C 
ATOM     28  N   UNL     1       7.995   4.145   8.243  0.00  0.00    -0.131 NA
ATOM     29  H   UNL     1       7.880   5.116   7.950  0.00  0.00    +0.306 HD
ATOM     30  N   UNL     1       8.456   2.054   7.470  0.00  0.00    -0.291 N 
ATOM     31  H   UNL     1       8.714   1.822   8.420  0.00  0.00    +0.254 HD
ATOM     32  H   UNL     1       8.943   1.552   6.733  0.00  0.00    +0.254 HD
ATOM     33  O   UNL     1       9.336   2.167   4.895  0.00  0.00    -0.257 OA
ENDBRANCH  23  24
ENDBRANCH   2  23
TORSDOF 7
