REMARK  Name = 
REMARK  5 active torsions:
REMARK  status: ('A' for Active; 'I' for Inactive)
REMARK    1  A    between atoms: N_1  and  C_2
REMARK    2  A    between atoms: C_5  and  C_6
REMARK    3  A    between atoms: C_6  and  O_7
REMARK    4  A    between atoms: C_11  and  C_12
REMARK    5  A    between atoms: C_12  and  O_13
REMARK                            x       y       z     vdW  Elec       q    Type
REMARK                         _______ _______ _______ _____ _____    ______ ____
ROOT
ATOM      1  C   UNL     1       2.367   0.031   0.080  0.00  0.00    +0.055 A 
ATOM      2  C   UNL     1       3.138  -1.154   0.035  0.00  0.00    +0.055 A 
ATOM      3 BR   UNL     1       2.181  -2.817   0.145  0.00  0.00    -0.047 Br
ATOM      4  C   UNL     1       4.546  -1.105  -0.017  0.00  0.00    +0.089 A 
ATOM      5  C   UNL     1       5.191   0.149  -0.048  0.00  0.00    +0.048 A 
ATOM      6 BR   UNL     1       7.092   0.227  -0.304  0.00  0.00    -0.049 Br
ATOM      7  C   UNL     1       4.433   1.342   0.024  0.00  0.00    +0.089 A 
ATOM      8  C   UNL     1       3.029   1.276   0.070  0.00  0.00    +0.055 A 
ATOM      9 BR   UNL     1       1.947   2.857   0.184  0.00  0.00    -0.047 Br
ENDROOT
BRANCH   1  10
ATOM     10  N   UNL     1       0.966  -0.023  -0.094  0.00  0.00    -0.356 N 
ATOM     11  H   UNL     1       0.540  -0.908   0.176  0.00  0.00    +0.142 HD
ATOM     12  H   UNL     1       0.456   0.789   0.247  0.00  0.00    +0.142 HD
ENDBRANCH   1  10
BRANCH   4  13
ATOM     13  C   UNL     1       5.311  -2.376  -0.106  0.00  0.00    +0.339 C 
ATOM     14  O   UNL     1       5.050  -3.250  -0.917  0.00  0.00    -0.245 OA
BRANCH  13  15
ATOM     15  O   UNL     1       6.274  -2.514   0.828  0.00  0.00    -0.477 OA
ATOM     16  H   UNL     1       6.549  -1.701   1.294  0.00  0.00    +0.295 HD
ENDBRANCH  13  15
ENDBRANCH   4  13
BRANCH   7  17
ATOM     17  C   UNL     1       5.129   2.645   0.128  0.00  0.00    +0.339 C 
ATOM     18  O   UNL     1       6.005   2.845   0.954  0.00  0.00    -0.245 OA
BRANCH  17  19
ATOM     19  O   UNL     1       4.756   3.560  -0.786  0.00  0.00    -0.477 OA
ATOM     20  H   UNL     1       3.931   3.369  -1.275  0.00  0.00    +0.295 HD
ENDBRANCH  17  19
ENDBRANCH   7  17
TORSDOF 5
