REMARK  Name = 
REMARK  5 active torsions:
REMARK  status: ('A' for Active; 'I' for Inactive)
REMARK    1  A    between atoms: C_1  and  N_2
REMARK    2  A    between atoms: N_2  and  C_3
REMARK    3  A    between atoms: N_2  and  C_4
REMARK    4  A    between atoms: C_9  and  S_14
REMARK    5  A    between atoms: S_14  and  O_15
REMARK                            x       y       z     vdW  Elec       q    Type
REMARK                         _______ _______ _______ _____ _____    ______ ____
ROOT
ATOM      1  C   UNL     1       3.133   1.214   0.086  0.00  0.00    +0.037 A 
ATOM      2  C   UNL     1       2.573   2.445  -0.338  0.00  0.00    +0.024 A 
ATOM      3  C   UNL     1       3.122   3.676  -0.029  0.00  0.00    +0.002 A 
ATOM      4  C   UNL     1       4.291   3.732   0.705  0.00  0.00    +0.010 A 
ATOM      5  C   UNL     1       4.976   2.568   1.112  0.00  0.00    +0.011 A 
ATOM      6  C   UNL     1       6.213   2.637   1.824  0.00  0.00    +0.125 A 
ATOM      7  C   UNL     1       6.918   1.491   2.200  0.00  0.00    +0.030 A 
ATOM      8  C   UNL     1       6.396   0.254   1.895  0.00  0.00    +0.003 A 
ATOM      9  C   UNL     1       5.173   0.166   1.224  0.00  0.00    +0.010 A 
ATOM     10  C   UNL     1       4.406   1.285   0.790  0.00  0.00    +0.005 A 
ENDROOT
BRANCH   1  12
ATOM     11  C   UNL     1       0.932   0.177  -0.296  0.00  0.00    +0.129 C 
ATOM     12  N   UNL     1       2.396   0.056  -0.230  0.00  0.00    -0.336 N 
ATOM     13  C   UNL     1       2.872  -1.312  -0.121  0.00  0.00    +0.129 C 
ENDBRANCH   1  12
BRANCH   6  14
ATOM     14  S   UNL     1       6.939   4.193   2.323  0.00  0.00    +0.110 S 
ATOM     15  O   UNL     1       7.128   5.016   1.150  0.00  0.00    -0.142 OA
ATOM     16  O   UNL     1       8.030   3.916   3.234  0.00  0.00    -0.142 OA
BRANCH  14  17
ATOM     17  O   UNL     1       5.811   4.873   3.257  0.00  0.00    -0.250 OA
ATOM     18  H   UNL     1       6.087   4.749   4.190  0.00  0.00    +0.245 HD
ENDBRANCH  14  17
ENDBRANCH   6  14
TORSDOF 3
