REMARK  Name = 
REMARK  4 active torsions:
REMARK  status: ('A' for Active; 'I' for Inactive)
REMARK    1  A    between atoms: C_4  and  C_5
REMARK    2  A    between atoms: C_5  and  C_6
REMARK    3  A    between atoms: N_18  and  C_19
REMARK    4  A    between atoms: C_22  and  C_25
REMARK                            x       y       z     vdW  Elec       q    Type
REMARK                         _______ _______ _______ _____ _____    ______ ____
ROOT
ATOM      1  N   UNL     1       0.932   0.094   0.287  0.00  0.00    -0.327 N 
ATOM      2  H   UNL     1       0.463  -0.729  -0.060  0.00  0.00    +0.145 HD
ATOM      3  H   UNL     1       0.566   0.998   0.025  0.00  0.00    +0.145 HD
ATOM      4  C   UNL     1       2.289   0.022   0.052  0.00  0.00    +0.217 A 
ATOM      5  N   UNL     1       2.803  -1.176  -0.152  0.00  0.00    -0.181 NA
ATOM      6  C   UNL     1       4.120  -1.224  -0.331  0.00  0.00    +0.224 A 
ATOM      7  N   UNL     1       4.783  -2.453  -0.419  0.00  0.00    -0.284 N 
ATOM      8  H   UNL     1       5.771  -2.299  -0.275  0.00  0.00    +0.155 HD
ATOM      9  N   UNL     1       4.905  -0.150  -0.337  0.00  0.00    -0.199 NA
ATOM     10  C   UNL     1       4.285   1.015  -0.114  0.00  0.00    +0.141 A 
ATOM     11  N   UNL     1       2.973   1.152   0.065  0.00  0.00    -0.199 NA
ENDROOT
BRANCH   7  12
ATOM     12  C   UNL     1       4.298  -3.747  -0.183  0.00  0.00    +0.034 A 
ATOM     13  C   UNL     1       5.104  -4.672   0.495  0.00  0.00    +0.024 A 
ATOM     14  C   UNL     1       4.629  -5.951   0.815  0.00  0.00    +0.020 A 
ATOM     15  C   UNL     1       3.332  -6.324   0.461  0.00  0.00    +0.052 A 
ATOM     16  C   UNL     1       2.523  -5.420  -0.229  0.00  0.00    +0.020 A 
ATOM     17  C   UNL     1       3.006  -4.145  -0.542  0.00  0.00    +0.024 A 
BRANCH  15  18
ATOM     18  C   UNL     1       2.825  -7.617   0.817  0.00  0.00    +0.099 C 
ATOM     19  N   UNL     1       2.412  -8.661   1.111  0.00  0.00    -0.191 NA
ENDBRANCH  15  18
ENDBRANCH   7  12
BRANCH  10  20
ATOM     20  C   UNL     1       5.138   2.254   0.035  0.00  0.00    +0.113 C 
BRANCH  20  21
ATOM     21  C   UNL     1       5.868   2.470   1.361  0.00  0.00    -0.013 A 
ATOM     22  C   UNL     1       6.725   3.599   1.479  0.00  0.00    +0.045 A 
ATOM     23 CL   UNL     1       6.840   4.782   0.213  0.00  0.00    -0.083 Cl
ATOM     24  C   UNL     1       7.530   3.818   2.600  0.00  0.00    +0.022 A 
ATOM     25  C   UNL     1       7.562   2.901   3.645  0.00  0.00    +0.027 A 
ATOM     26  C   UNL     1       6.709   1.801   3.554  0.00  0.00    +0.047 A 
ATOM     27  N   UNL     1       6.577   0.736   4.420  0.00  0.00    -0.361 N 
ATOM     28  H   UNL     1       7.148   0.591   5.241  0.00  0.00    +0.165 HD
ATOM     29  C   UNL     1       5.565  -0.080   4.012  0.00  0.00    +0.083 A 
ATOM     30  C   UNL     1       5.043   0.459   2.862  0.00  0.00    +0.028 A 
ATOM     31  C   UNL     1       5.825   1.596   2.488  0.00  0.00    +0.005 A 
ENDBRANCH  20  21
ENDBRANCH  10  20
TORSDOF 4
