REMARK  Name = 
REMARK  13 active torsions:
REMARK  status: ('A' for Active; 'I' for Inactive)
REMARK    1  A    between atoms: C_1  and  C_2
REMARK    2  A    between atoms: C_3  and  C_4
REMARK    3  A    between atoms: C_4  and  C_5
REMARK    4  A    between atoms: C_5  and  C_7
REMARK    5  A    between atoms: C_5  and  N_10
REMARK    6  A    between atoms: C_7  and  C_8
REMARK    7  A    between atoms: C_13  and  C_15
REMARK    8  A    between atoms: C_15  and  C_16
REMARK    9  A    between atoms: C_15  and  C_17
REMARK   10  A    between atoms: C_15  and  N_20
REMARK   11  A    between atoms: C_17  and  C_18
REMARK   12  A    between atoms: C_17  and  C_19
REMARK   13  A    between atoms: C_21  and  C_23
REMARK                            x       y       z     vdW  Elec       q    Type
REMARK                         _______ _______ _______ _____ _____    ______ ____
ROOT
ATOM      1  C   UNL     1      10.126  -2.927  -0.952  0.00  0.00    +0.080 C 
ATOM      2  C   UNL     1       8.779  -2.730  -0.213  0.00  0.00    +0.039 C 
ENDROOT
BRANCH   1   5
ATOM      3  N   UNL     1      12.280   0.061  -1.070  0.00  0.00    -0.241 N 
ATOM      4  C   UNL     1      11.861  -1.076  -1.696  0.00  0.00    +0.136 A 
ATOM      5  C   UNL     1      10.939  -1.639  -0.834  0.00  0.00    +0.106 A 
ATOM      6  N   UNL     1      10.802  -0.800   0.245  0.00  0.00    -0.132 NA
ATOM      7  N   UNL     1      11.579   0.257   0.063  0.00  0.00    -0.065 NA
BRANCH   3   8
ATOM      8  C   UNL     1      13.254   1.059  -1.483  0.00  0.00    +0.178 C 
BRANCH   8   9
ATOM      9  C   UNL     1      14.450   1.217  -0.549  0.00  0.00    +0.155 C 
ATOM     10  O   UNL     1      15.313   2.071  -0.799  0.00  0.00    -0.295 OA
ATOM     11  C   UNL     1      14.638   0.352   0.672  0.00  0.00    +0.088 C 
ENDBRANCH   8   9
BRANCH   8  12
ATOM     12  C   UNL     1      13.749   0.927  -2.943  0.00  0.00    +0.061 C 
BRANCH  12  15
ATOM     13  C   UNL     1      15.505  -2.183  -4.523  0.00  0.00    +0.035 C 
ATOM     14  C   UNL     1      14.606  -1.006  -4.323  0.00  0.00    -0.034 C 
ATOM     15  C   UNL     1      14.639  -0.266  -3.204  0.00  0.00    -0.029 C 
ENDBRANCH  12  15
ENDBRANCH   8  12
ENDBRANCH   3   8
ENDBRANCH   1   5
BRANCH   1  16
ATOM     16  N   UNL     1       9.839  -3.109  -2.396  0.00  0.00    -0.300 N 
ATOM     17  H   UNL     1       9.997  -2.309  -2.992  0.00  0.00    +0.150 HD
ATOM     18  C   UNL     1       9.059  -4.121  -2.916  0.00  0.00    +0.245 C 
ATOM     19  O   UNL     1       8.561  -5.034  -2.272  0.00  0.00    -0.270 OA
BRANCH  18  20
ATOM     20  C   UNL     1       8.791  -4.007  -4.370  0.00  0.00    +0.037 A 
ATOM     21  C   UNL     1       7.503  -4.283  -4.841  0.00  0.00    +0.013 A 
ATOM     22  C   UNL     1       7.210  -4.122  -6.195  0.00  0.00    +0.001 A 
ATOM     23  C   UNL     1       8.206  -3.700  -7.080  0.00  0.00    +0.000 A 
ATOM     24  C   UNL     1       9.500  -3.456  -6.615  0.00  0.00    +0.001 A 
ATOM     25  C   UNL     1       9.796  -3.611  -5.261  0.00  0.00    +0.013 A 
ENDBRANCH  18  20
ENDBRANCH   1  16
BRANCH   1  26
ATOM     26  C   UNL     1      10.916  -4.164  -0.385  0.00  0.00    +0.012 C 
ATOM     27  C   UNL     1      11.240  -4.068   1.111  0.00  0.00    +0.010 C 
ATOM     28  C   UNL     1      12.212  -4.473  -1.157  0.00  0.00    +0.010 C 
ENDBRANCH   1  26
TORSDOF 8
