REMARK  Name = 
REMARK  3 active torsions:
REMARK  status: ('A' for Active; 'I' for Inactive)
REMARK    1  A    between atoms: C_2  and  C_15
REMARK    2  A    between atoms: C_7  and  C_9
REMARK    3  A    between atoms: C_15  and  O_16
REMARK                            x       y       z     vdW  Elec       q    Type
REMARK                         _______ _______ _______ _____ _____    ______ ____
ROOT
ATOM      1  C   UNL     1       2.166   0.022   0.129  0.00  0.00    +0.108 C 
ATOM      2  C   UNL     1       2.706   1.051  -0.880  0.00  0.00    +0.070 C 
ATOM      3  C   UNL     1       2.240   0.713  -2.304  0.00  0.00    +0.012 C 
ATOM      4  C   UNL     1       2.539  -0.735  -2.694  0.00  0.00    +0.001 C 
ATOM      5  C   UNL     1       1.967  -1.735  -1.694  0.00  0.00    +0.001 C 
ATOM      6  C   UNL     1       2.391  -1.443  -0.257  0.00  0.00    +0.015 C 
ENDROOT
BRANCH   2   7
ATOM      7  C   UNL     1       4.208   1.186  -0.853  0.00  0.00    +0.133 A 
ATOM      8  N   UNL     1       4.805   2.357  -1.139  0.00  0.00    -0.321 N 
ATOM      9  H   UNL     1       4.387   3.254  -1.331  0.00  0.00    +0.169 HD
ATOM     10  C   UNL     1       6.141   2.125  -1.011  0.00  0.00    +0.173 A 
ATOM     11  S   UNL     1       7.356   3.218  -1.200  0.00  0.00    -0.012 S 
ATOM     12  N   UNL     1       6.269   0.789  -0.682  0.00  0.00    -0.254 N 
ATOM     13  H   UNL     1       7.133   0.277  -0.535  0.00  0.00    +0.191 HD
ATOM     14  N   UNL     1       5.033   0.212  -0.583  0.00  0.00    -0.158 NA
ENDBRANCH   2   7
BRANCH   1  15
ATOM     15  C   UNL     1       2.610   0.325   1.550  0.00  0.00    +0.309 C 
ATOM     16  O   UNL     1       1.869   0.849   2.371  0.00  0.00    -0.251 OA
BRANCH  15  17
ATOM     17  O   UNL     1       3.889   0.017   1.845  0.00  0.00    -0.480 OA
ATOM     18  H   UNL     1       4.436  -0.274   1.076  0.00  0.00    +0.295 HD
ENDBRANCH  15  17
ENDBRANCH   1  15
TORSDOF 3
