REMARK  Name = 
REMARK  12 active torsions:
REMARK  status: ('A' for Active; 'I' for Inactive)
REMARK    1  A    between atoms: C_2  and  C_3
REMARK    2  A    between atoms: C_2  and  C_5
REMARK    3  A    between atoms: C_2  and  C_29
REMARK    4  A    between atoms: C_3  and  C_4
REMARK    5  A    between atoms: C_5  and  C_6
REMARK    6  A    between atoms: C_8  and  C_9
REMARK    7  A    between atoms: C_9  and  N_10
REMARK    8  A    between atoms: C_11  and  C_13
REMARK    9  A    between atoms: C_17  and  C_20
REMARK   10  A    between atoms: C_24  and  O_25
REMARK   11  A    between atoms: O_25  and  C_26
REMARK   12  A    between atoms: C_29  and  O_30
REMARK                            x       y       z     vdW  Elec       q    Type
REMARK                         _______ _______ _______ _____ _____    ______ ____
ROOT
ATOM      1  C   UNL     1       2.229   1.259   2.318  0.00  0.00    -0.046 A 
ATOM      2  C   UNL     1       2.796   2.493   1.983  0.00  0.00    +0.007 A 
ATOM      3  C   UNL     1       2.330   3.683   2.547  0.00  0.00    +0.046 A 
ATOM      4  C   UNL     1       1.253   3.674   3.432  0.00  0.00    +0.125 A 
ATOM      5  C   UNL     1       0.661   2.449   3.794  0.00  0.00    +0.012 A 
ATOM      6  C   UNL     1       1.175   1.253   3.247  0.00  0.00    +0.012 A 
ENDROOT
BRANCH   4   7
ATOM      7  O   UNL     1       0.694   4.801   3.980  0.00  0.00    -0.495 OA
ATOM      8  C   UNL     1       1.225   6.056   3.571  0.00  0.00    +0.277 C 
ENDBRANCH   4   7
BRANCH   1   9
ATOM      9  C   UNL     1       2.620  -0.038   1.627  0.00  0.00    +0.049 C 
BRANCH   9  10
ATOM     10  C   UNL     1       4.062  -0.128   1.101  0.00  0.00    +0.102 C 
BRANCH  10  11
ATOM     11  C   UNL     1       4.320  -1.248   0.076  0.00  0.00    +0.011 C 
ATOM     12  C   UNL     1       4.058  -2.675   0.523  0.00  0.00    +0.004 C 
ENDBRANCH  10  11
BRANCH  10  13
ATOM     13  C   UNL     1       5.099  -0.114   2.210  0.00  0.00    +0.308 C 
ATOM     14  O   UNL     1       6.035   0.674   2.226  0.00  0.00    -0.251 OA
BRANCH  13  15
ATOM     15  O   UNL     1       4.953  -1.057   3.161  0.00  0.00    -0.480 OA
ATOM     16  H   UNL     1       4.180  -1.640   3.065  0.00  0.00    +0.295 HD
ENDBRANCH  13  15
ENDBRANCH  10  13
ENDBRANCH   9  10
ENDBRANCH   1   9
BRANCH   5  17
ATOM     17  C   UNL     1      -0.535   2.471   4.724  0.00  0.00    +0.143 C 
BRANCH  17  18
ATOM     18  N   UNL     1      -1.153   1.180   4.954  0.00  0.00    -0.307 N 
ATOM     19  H   UNL     1      -1.821   0.860   4.264  0.00  0.00    +0.149 HD
ATOM     20  C   UNL     1      -0.890   0.420   6.069  0.00  0.00    +0.247 C 
ATOM     21  O   UNL     1      -0.076   0.745   6.926  0.00  0.00    -0.270 OA
BRANCH  20  22
ATOM     22  C   UNL     1      -1.650  -0.853   6.222  0.00  0.00    +0.072 A 
ATOM     23  C   UNL     1      -1.424  -1.632   7.367  0.00  0.00    +0.016 A 
ATOM     24  C   UNL     1      -2.140  -2.814   7.580  0.00  0.00    +0.013 A 
ATOM     25  C   UNL     1      -3.103  -3.241   6.649  0.00  0.00    +0.058 A 
ATOM     26  C   UNL     1      -3.313  -2.473   5.497  0.00  0.00    +0.051 A 
ATOM     27  C   UNL     1      -2.592  -1.295   5.291  0.00  0.00    +0.136 A 
ATOM     28  F   UNL     1      -2.841  -0.599   4.172  0.00  0.00    -0.205 F 
BRANCH  25  29
ATOM     29  C   UNL     1      -3.896  -4.500   6.903  0.00  0.00    +0.418 C 
ATOM     30  F   UNL     1      -4.602  -4.444   8.065  0.00  0.00    -0.166 F 
ATOM     31  F   UNL     1      -3.107  -5.605   6.992  0.00  0.00    -0.166 F 
ATOM     32  F   UNL     1      -4.807  -4.769   5.926  0.00  0.00    -0.166 F 
ENDBRANCH  25  29
ENDBRANCH  20  22
ENDBRANCH  17  18
ENDBRANCH   5  17
TORSDOF 10
