REMARK  Name = 
REMARK  5 active torsions:
REMARK  status: ('A' for Active; 'I' for Inactive)
REMARK    1  A    between atoms: C_2  and  C_3
REMARK    2  A    between atoms: C_3  and  C_4
REMARK    3  A    between atoms: C_16  and  C_20
REMARK    4  A    between atoms: N_22  and  C_23
REMARK    5  A    between atoms: C_23  and  C_24
REMARK                            x       y       z     vdW  Elec       q    Type
REMARK                         _______ _______ _______ _____ _____    ______ ____
ROOT
ATOM      1  C   UNL     1       2.058   0.086  -0.055  0.00  0.00    +0.029 C 
ATOM      2  C   UNL     1       2.742   0.854   1.066  0.00  0.00    -0.019 A 
ATOM      3  C   UNL     1       2.893   2.278   1.189  0.00  0.00    +0.076 A 
ATOM      4  C   UNL     1       2.502   3.339   0.278  0.00  0.00    +0.260 A 
ATOM      5  O   UNL     1       2.065   3.148  -0.852  0.00  0.00    -0.267 OA
ATOM      6  N   UNL     1       2.653   4.597   0.808  0.00  0.00    -0.303 N 
ATOM      7  H   UNL     1       2.368   5.389   0.243  0.00  0.00    +0.171 HD
ATOM      8  C   UNL     1       3.166   4.834   2.067  0.00  0.00    +0.198 A 
ATOM      9  N   UNL     1       3.589   3.917   2.884  0.00  0.00    -0.217 NA
ATOM     10  C   UNL     1       3.434   2.650   2.407  0.00  0.00    +0.116 A 
ATOM     11  S   UNL     1       3.880   1.294   3.339  0.00  0.00    -0.073 S 
ATOM     12  C   UNL     1       3.249   0.213   2.184  0.00  0.00    -0.004 A 
ATOM     13  C   UNL     1       3.278  -1.267   2.412  0.00  0.00    +0.043 C 
ATOM     14  C   UNL     1       2.400  -2.006   1.392  0.00  0.00    +0.006 C 
ATOM     15  C   UNL     1       2.512  -1.399  -0.015  0.00  0.00    +0.009 C 
ENDROOT
BRANCH   8  16
ATOM     16  C   UNL     1       3.188   6.306   2.466  0.00  0.00    +0.280 C 
ATOM     17  N   UNL     1       3.664   6.561   3.730  0.00  0.00    -0.305 N 
ATOM     18  H   UNL     1       3.820   5.760   4.336  0.00  0.00    +0.149 HD
ATOM     19  O   UNL     1       2.771   7.132   1.667  0.00  0.00    -0.267 OA
BRANCH  17  20
ATOM     20  C   UNL     1       3.615   7.890   4.296  0.00  0.00    +0.140 C 
BRANCH  20  21
ATOM     21  C   UNL     1       4.702   8.153   5.314  0.00  0.00    -0.028 A 
ATOM     22  C   UNL     1       5.987   7.599   5.191  0.00  0.00    +0.032 A 
ATOM     23  C   UNL     1       6.976   7.903   6.131  0.00  0.00    +0.076 A 
ATOM     24  C   UNL     1       6.701   8.759   7.198  0.00  0.00    +0.142 A 
ATOM     25  O   UNL     1       7.631   9.113   8.140  0.00  0.00    -0.481 OA
ATOM     26  C   UNL     1       8.730   8.213   8.211  0.00  0.00    +0.325 C 
ATOM     27  C   UNL     1       9.241   7.618   6.902  0.00  0.00    +0.255 C 
ATOM     28  O   UNL     1      10.405   7.273   6.718  0.00  0.00    -0.272 OA
ATOM     29  C   UNL     1       5.450   9.359   7.299  0.00  0.00    +0.048 A 
ATOM     30  N   UNL     1       8.265   7.393   5.967  0.00  0.00    -0.280 N 
ATOM     31  H   UNL     1       8.535   6.906   5.125  0.00  0.00    +0.155 HD
ATOM     32  C   UNL     1       4.456   9.058   6.361  0.00  0.00    +0.009 A 
ENDBRANCH  20  21
ENDBRANCH  17  20
ENDBRANCH   8  16
BRANCH   1  33
ATOM     33  C   UNL     1       0.529   0.238   0.080  0.00  0.00    +0.103 C 
BRANCH  33  34
ATOM     34  C   UNL     1      -0.275  -0.473  -0.982  0.00  0.00    +0.211 C 
ATOM     35  O   UNL     1      -1.050  -1.390  -0.732  0.00  0.00    -0.276 OA
ATOM     36  N   UNL     1      -0.113  -0.027  -2.258  0.00  0.00    -0.329 N 
ATOM     37  H   UNL     1      -0.734  -0.425  -2.953  0.00  0.00    +0.145 HD
ATOM     38  H   UNL     1       0.300   0.875  -2.458  0.00  0.00    +0.145 HD
ENDBRANCH  33  34
ENDBRANCH   1  33
TORSDOF 5
