REMARK  Name = 
REMARK  4 active torsions:
REMARK  status: ('A' for Active; 'I' for Inactive)
REMARK    1  A    between atoms: O_1  and  C_2
REMARK    2  A    between atoms: C_2  and  C_4
REMARK    3  A    between atoms: C_7  and  C_9
REMARK    4  A    between atoms: C_14  and  C_15
REMARK                            x       y       z     vdW  Elec       q    Type
REMARK                         _______ _______ _______ _____ _____    ______ ____
ROOT
ATOM      1  C   UNL     1       3.662  -4.074  -2.196  0.00  0.00    +0.029 A 
ATOM      2  C   UNL     1       4.830  -4.840  -2.003  0.00  0.00    +0.065 A 
ATOM      3  C   UNL     1       4.771  -6.238  -2.226  0.00  0.00    +0.013 A 
ATOM      4  C   UNL     1       3.585  -6.873  -2.586  0.00  0.00    +0.001 A 
ATOM      5  C   UNL     1       2.426  -6.126  -2.726  0.00  0.00    +0.001 A 
ATOM      6  C   UNL     1       2.466  -4.744  -2.534  0.00  0.00    +0.012 A 
ENDROOT
BRANCH   1   9
ATOM      7  C   UNL     1       4.396  -0.589  -2.437  0.00  0.00    +0.212 A 
ATOM      8  O   UNL     1       4.661  -1.926  -2.593  0.00  0.00    -0.448 OA
ATOM      9  C   UNL     1       3.597  -2.618  -2.094  0.00  0.00    +0.137 A 
ATOM     10  C   UNL     1       2.626  -1.729  -1.673  0.00  0.00    +0.051 A 
ATOM     11  C   UNL     1       3.136  -0.428  -1.900  0.00  0.00    +0.057 A 
BRANCH   7  12
ATOM     12  C   UNL     1       5.400   0.368  -2.830  0.00  0.00    +0.372 C 
ATOM     13  O   UNL     1       5.257   1.580  -2.882  0.00  0.00    -0.242 OA
BRANCH  12  14
ATOM     14  O   UNL     1       6.575  -0.247  -3.128  0.00  0.00    -0.475 OA
ATOM     15  H   UNL     1       6.495  -1.212  -2.972  0.00  0.00    +0.296 HD
ENDBRANCH  12  14
ENDBRANCH   7  12
ENDBRANCH   1   9
BRANCH   2  16
ATOM     16  C   UNL     1       6.173  -4.307  -1.555  0.00  0.00    +0.418 C 
ATOM     17  F   UNL     1       7.115  -4.415  -2.536  0.00  0.00    -0.166 F 
ATOM     18  F   UNL     1       6.669  -5.021  -0.500  0.00  0.00    -0.166 F 
ATOM     19  F   UNL     1       6.223  -3.012  -1.145  0.00  0.00    -0.166 F 
ENDBRANCH   2  16
TORSDOF 4
