REMARK  Name = 
REMARK  5 active torsions:
REMARK  status: ('A' for Active; 'I' for Inactive)
REMARK    1  A    between atoms: N_1  and  C_2
REMARK    2  A    between atoms: C_2  and  C_3
REMARK    3  A    between atoms: N_6  and  C_7
REMARK    4  A    between atoms: C_7  and  C_8
REMARK    5  A    between atoms: C_13  and  C_15
REMARK                            x       y       z     vdW  Elec       q    Type
REMARK                         _______ _______ _______ _____ _____    ______ ____
ROOT
ATOM      1  C   UNL     1       1.866  -5.219  -2.217  0.00  0.00    -0.033 A 
ATOM      2  C   UNL     1       0.874  -4.680  -3.046  0.00  0.00    +0.007 A 
ATOM      3  C   UNL     1      -0.044  -5.499  -3.710  0.00  0.00    +0.026 A 
ATOM      4  C   UNL     1       0.094  -6.880  -3.545  0.00  0.00    +0.047 A 
ATOM      5  N   UNL     1      -0.585  -7.917  -4.138  0.00  0.00    -0.354 N 
ATOM      6  H   UNL     1      -1.313  -7.800  -4.837  0.00  0.00    +0.166 HD
ATOM      7  C   UNL     1       0.034  -9.118  -3.860  0.00  0.00    +0.053 A 
ATOM      8  C   UNL     1       0.940  -8.862  -2.846  0.00  0.00    +0.036 A 
ATOM      9  C   UNL     1       1.054  -7.451  -2.717  0.00  0.00    +0.001 A 
ATOM     10  C   UNL     1       1.939  -6.610  -2.023  0.00  0.00    +0.015 A 
ENDROOT
BRANCH   7  11
ATOM     11  C   UNL     1      -0.256 -10.254  -4.675  0.00  0.00    +0.063 A 
ATOM     12  C   UNL     1      -1.082 -10.127  -5.938  0.00  0.00    +0.258 A 
ATOM     13  O   UNL     1      -1.749  -9.122  -6.189  0.00  0.00    -0.267 OA
ATOM     14  N   UNL     1      -1.040 -11.169  -6.823  0.00  0.00    -0.322 N 
ATOM     15  H   UNL     1      -1.550 -11.034  -7.686  0.00  0.00    +0.169 HD
ATOM     16  C   UNL     1      -0.337 -12.352  -6.592  0.00  0.00    +0.049 A 
ATOM     17  C   UNL     1       0.324 -12.528  -5.372  0.00  0.00    -0.001 A 
ATOM     18  C   UNL     1       1.021 -13.716  -5.136  0.00  0.00    +0.010 A 
ATOM     19  C   UNL     1       1.069 -14.704  -6.121  0.00  0.00    +0.001 A 
ATOM     20  C   UNL     1       0.423 -14.510  -7.343  0.00  0.00    +0.002 A 
ATOM     21  C   UNL     1      -0.292 -13.336  -7.578  0.00  0.00    +0.026 A 
ATOM     22  C   UNL     1       0.353 -11.424  -4.413  0.00  0.00    +0.025 A 
ENDBRANCH   7  11
BRANCH   1  23
ATOM     23  C   UNL     1       2.888  -4.323  -1.554  0.00  0.00    +0.119 C 
BRANCH  23  27
ATOM     24  C   UNL     1       3.558  -3.727   2.051  0.00  0.00    +0.005 C 
ATOM     25  C   UNL     1       4.302  -3.081   0.869  0.00  0.00    +0.020 C 
ATOM     26  C   UNL     1       3.342  -2.420  -0.125  0.00  0.00    +0.085 C 
ATOM     27  N   UNL     1       2.306  -3.331  -0.634  0.00  0.00    -0.298 NA
ATOM     28  C   UNL     1       1.559  -3.938   0.478  0.00  0.00    +0.085 C 
ATOM     29  C   UNL     1       2.444  -4.643   1.512  0.00  0.00    +0.020 C 
BRANCH  24  30
ATOM     30  C   UNL     1       2.971  -2.705   3.046  0.00  0.00    +0.081 C 
BRANCH  30  31
ATOM     31  N   UNL     1       3.989  -1.834   3.626  0.00  0.00    -0.330 NA
ATOM     32  H   UNL     1       4.388  -1.238   2.903  0.00  0.00    +0.118 HD
ATOM     33  H   UNL     1       3.543  -1.198   4.286  0.00  0.00    +0.118 HD
ENDBRANCH  30  31
ENDBRANCH  24  30
ENDBRANCH  23  27
ENDBRANCH   1  23
TORSDOF 5
