REMARK  Name = 
REMARK  3 active torsions:
REMARK  status: ('A' for Active; 'I' for Inactive)
REMARK    1  A    between atoms: C_2  and  C_3
REMARK    2  A    between atoms: C_16  and  C_19
REMARK    3  A    between atoms: C_22  and  C_23
REMARK                            x       y       z     vdW  Elec       q    Type
REMARK                         _______ _______ _______ _____ _____    ______ ____
ROOT
ATOM      1  C   UNL     1       2.108  -0.304   0.063  0.00  0.00    +0.087 C 
ATOM      2  C   UNL     1       0.573  -0.244   0.030  0.00  0.00    +0.029 C 
ATOM      3  N   UNL     1       2.569   0.989   0.550  0.00  0.00    -0.307 N 
ATOM      4  H   UNL     1       2.086   1.785   0.151  0.00  0.00    +0.149 HD
ATOM      5  C   UNL     1       3.887   1.338   0.672  0.00  0.00    +0.253 C 
ATOM      6  O   UNL     1       4.206   2.440   0.224  0.00  0.00    -0.270 OA
ATOM      7  C   UNL     1       4.732   0.496   1.473  0.00  0.00    +0.096 A 
ATOM      8  S   UNL     1       5.773   1.315   2.543  0.00  0.00    -0.082 S 
ATOM      9  C   UNL     1       6.042  -0.106   3.456  0.00  0.00    +0.023 A 
ATOM     10  C   UNL     1       6.562  -0.137   4.757  0.00  0.00    +0.018 A 
ATOM     11  C   UNL     1       6.745  -1.371   5.363  0.00  0.00    +0.029 A 
ATOM     12  C   UNL     1       6.669  -2.530   4.635  0.00  0.00    +0.072 A 
ATOM     13  N   UNL     1       7.103  -3.649   5.234  0.00  0.00    -0.247 NA
ATOM     14  C   UNL     1       7.455  -4.699   4.462  0.00  0.00    +0.073 A 
ATOM     15  C   UNL     1       7.378  -4.603   3.076  0.00  0.00    +0.029 A 
ATOM     16  C   UNL     1       6.651  -3.553   2.485  0.00  0.00    +0.013 A 
ATOM     17  C   UNL     1       6.271  -2.463   3.279  0.00  0.00    +0.010 A 
ATOM     18  C   UNL     1       5.703  -1.251   2.733  0.00  0.00    +0.020 A 
ATOM     19  C   UNL     1       4.822  -0.875   1.622  0.00  0.00    +0.055 A 
ATOM     20  N   UNL     1       4.075  -1.746   0.865  0.00  0.00    -0.341 N 
ATOM     21  H   UNL     1       4.387  -1.841  -0.103  0.00  0.00    +0.146 HD
ATOM     22  C   UNL     1       2.596  -1.546   0.859  0.00  0.00    +0.123 C 
ENDROOT
BRANCH  14  23
ATOM     23  C   UNL     1       7.807  -5.949   5.178  0.00  0.00    +0.018 A 
ATOM     24  C   UNL     1       7.439  -6.171   6.516  0.00  0.00    +0.013 A 
ATOM     25  C   UNL     1       7.589  -7.431   7.108  0.00  0.00    +0.024 A 
ATOM     26  C   UNL     1       8.123  -8.466   6.353  0.00  0.00    +0.038 A 
ATOM     27  C   UNL     1       8.158  -9.867   6.885  0.00  0.00    +0.065 C 
ATOM     28  N   UNL     1       8.568  -8.277   5.093  0.00  0.00    -0.260 NA
ATOM     29  C   UNL     1       8.407  -7.041   4.551  0.00  0.00    +0.121 A 
ENDBRANCH  14  23
TORSDOF 1
