REMARK  Name = 
REMARK  8 active torsions:
REMARK  status: ('A' for Active; 'I' for Inactive)
REMARK    1  A    between atoms: C_1  and  C_2
REMARK    2  A    between atoms: C_2  and  C_3
REMARK    3  A    between atoms: C_3  and  C_4
REMARK    4  A    between atoms: C_9  and  C_10
REMARK    5  A    between atoms: C_10  and  C_11
REMARK    6  A    between atoms: C_15  and  C_16
REMARK    7  A    between atoms: C_16  and  C_17
REMARK    8  A    between atoms: C_17  and  O_18
REMARK                            x       y       z     vdW  Elec       q    Type
REMARK                         _______ _______ _______ _____ _____    ______ ____
ROOT
ATOM      1  C   UNL     1       4.431   0.928   1.033  0.00  0.00    -0.046 A 
ATOM      2  C   UNL     1       5.117   0.682   2.230  0.00  0.00    +0.009 A 
ATOM      3  C   UNL     1       6.529   0.631   2.301  0.00  0.00    -0.013 A 
ATOM      4  C   UNL     1       7.216   0.777   1.078  0.00  0.00    +0.050 A 
ATOM      5  N   UNL     1       8.567   0.735   0.787  0.00  0.00    -0.357 N 
ATOM      6  H   UNL     1       9.301   0.599   1.470  0.00  0.00    +0.166 HD
ATOM      7  C   UNL     1       8.769   0.836  -0.571  0.00  0.00    +0.026 A 
ATOM      8  C   UNL     1       7.548   1.114  -1.146  0.00  0.00    +0.031 A 
ATOM      9  C   UNL     1       6.563   1.033  -0.128  0.00  0.00    +0.000 A 
ATOM     10  C   UNL     1       5.163   1.148  -0.142  0.00  0.00    +0.013 A 
ENDROOT
BRANCH   1  11
ATOM     11  C   UNL     1       2.919   0.982   0.995  0.00  0.00    +0.035 C 
BRANCH  11  13
ATOM     12  C   UNL     1       0.806  -0.044   0.058  0.00  0.00    +0.004 C 
ATOM     13  C   UNL     1       2.325  -0.062   0.041  0.00  0.00    +0.001 C 
ENDBRANCH  11  13
ENDBRANCH   1  11
BRANCH   3  14
ATOM     14  C   UNL     1       7.209   0.443   3.641  0.00  0.00    +0.157 C 
BRANCH  14  15
ATOM     15  C   UNL     1       7.555  -0.966   4.068  0.00  0.00    +0.309 C 
ATOM     16  O   UNL     1       8.153  -1.197   5.114  0.00  0.00    -0.251 OA
BRANCH  15  17
ATOM     17  O   UNL     1       7.185  -1.965   3.243  0.00  0.00    -0.480 OA
ATOM     18  H   UNL     1       6.706  -1.677   2.440  0.00  0.00    +0.295 HD
ENDBRANCH  15  17
ENDBRANCH  14  15
ENDBRANCH   3  14
BRANCH   7  19
ATOM     19  C   UNL     1      10.117   0.675  -1.201  0.00  0.00    +0.148 C 
BRANCH  19  20
ATOM     20  C   UNL     1      10.467  -0.767  -1.563  0.00  0.00    +0.216 C 
ATOM     21  O   UNL     1      11.573  -1.069  -2.010  0.00  0.00    -0.276 OA
ATOM     22  N   UNL     1       9.532  -1.742  -1.381  0.00  0.00    -0.329 N 
ATOM     23  H   UNL     1       9.778  -2.669  -1.704  0.00  0.00    +0.145 HD
ATOM     24  H   UNL     1       8.550  -1.523  -1.276  0.00  0.00    +0.145 HD
ENDBRANCH  19  20
ENDBRANCH   7  19
TORSDOF 7
