REMARK  Name = 
REMARK  2 active torsions:
REMARK  status: ('A' for Active; 'I' for Inactive)
REMARK    1  A    between atoms: C_2  and  C_9
REMARK    2  A    between atoms: N_3  and  C_4
REMARK                            x       y       z     vdW  Elec       q    Type
REMARK                         _______ _______ _______ _____ _____    ______ ____
ROOT
ATOM      1  O   UNL     1       0.912   0.119  -0.034  0.00  0.00    -0.265 OA
ATOM      2  C   UNL     1       2.130   0.000  -0.017  0.00  0.00    +0.300 C 
ATOM      3  N   UNL     1       2.861  -0.875   0.753  0.00  0.00    -0.305 N 
ATOM      4  H   UNL     1       3.872  -0.760   0.716  0.00  0.00    +0.149 HD
ENDROOT
BRANCH   2   5
ATOM      5  C   UNL     1       2.999   0.905  -0.911  0.00  0.00    +0.305 C 
ATOM      6  N   UNL     1       2.259   1.863  -1.551  0.00  0.00    -0.257 N 
ATOM      7  H   UNL     1       1.266   1.925  -1.352  0.00  0.00    +0.157 HD
ATOM      8  C   UNL     1       2.841   2.806  -2.342  0.00  0.00    +0.165 A 
ATOM      9  S   UNL     1       1.819   4.097  -2.792  0.00  0.00    -0.061 S 
ATOM     10  C   UNL     1       3.154   4.852  -3.566  0.00  0.00    +0.068 A 
ATOM     11  C   UNL     1       4.257   4.028  -3.485  0.00  0.00    +0.120 A 
ATOM     12  N   UNL     1       4.073   2.860  -2.775  0.00  0.00    -0.233 NA
ATOM     13  O   UNL     1       4.208   0.709  -0.919  0.00  0.00    -0.265 OA
ENDBRANCH   2   5
BRANCH   3  14
ATOM     14  C   UNL     1       2.258  -1.777   1.702  0.00  0.00    +0.073 C 
ATOM     15  C   UNL     1       2.066  -1.152   3.087  0.00  0.00    +0.022 C 
ATOM     16  C   UNL     1       2.231  -2.298   4.088  0.00  0.00    +0.002 C 
ATOM     17  C   UNL     1       2.534  -3.545   3.264  0.00  0.00    +0.002 C 
ATOM     18  C   UNL     1       3.119  -3.006   1.971  0.00  0.00    +0.022 C 
ENDBRANCH   3  14
TORSDOF 2
