REMARK  Name = 
REMARK  5 active torsions:
REMARK  status: ('A' for Active; 'I' for Inactive)
REMARK    1  A    between atoms: C_1  and  N_2
REMARK    2  A    between atoms: N_2  and  C_3
REMARK    3  A    between atoms: N_2  and  C_4
REMARK    4  A    between atoms: C_8  and  S_14
REMARK    5  A    between atoms: S_14  and  O_15
REMARK                            x       y       z     vdW  Elec       q    Type
REMARK                         _______ _______ _______ _____ _____    ______ ____
ROOT
ATOM      1  C   UNL     1       3.152   0.806  -0.824  0.00  0.00    +0.037 A 
ATOM      2  C   UNL     1       2.651   2.118  -0.732  0.00  0.00    +0.024 A 
ATOM      3  C   UNL     1       3.356   3.213  -1.236  0.00  0.00    +0.002 A 
ATOM      4  C   UNL     1       4.594   3.026  -1.837  0.00  0.00    +0.009 A 
ATOM      5  C   UNL     1       5.126   1.740  -1.977  0.00  0.00    -0.014 A 
ATOM      6  C   UNL     1       6.363   1.571  -2.622  0.00  0.00    +0.038 A 
ATOM      7  C   UNL     1       6.877   0.290  -2.822  0.00  0.00    +0.117 A 
ATOM      8  C   UNL     1       6.170  -0.832  -2.407  0.00  0.00    +0.030 A 
ATOM      9  C   UNL     1       4.945  -0.664  -1.762  0.00  0.00    +0.012 A 
ATOM     10  C   UNL     1       4.399   0.612  -1.500  0.00  0.00    +0.003 A 
ENDROOT
BRANCH   1  12
ATOM     11  C   UNL     1       1.007  -0.181  -0.125  0.00  0.00    +0.129 C 
ATOM     12  N   UNL     1       2.459  -0.291  -0.248  0.00  0.00    -0.336 N 
ATOM     13  C   UNL     1       3.139  -0.842   0.933  0.00  0.00    +0.129 C 
ENDBRANCH   1  12
BRANCH   7  14
ATOM     14  S   UNL     1       8.384   0.077  -3.724  0.00  0.00    +0.110 S 
ATOM     15  O   UNL     1       9.442  -0.141  -2.765  0.00  0.00    -0.142 OA
ATOM     16  O   UNL     1       8.442   1.116  -4.731  0.00  0.00    -0.142 OA
BRANCH  14  17
ATOM     17  O   UNL     1       8.156  -1.288  -4.555  0.00  0.00    -0.250 OA
ATOM     18  H   UNL     1       7.860  -1.041  -5.457  0.00  0.00    +0.245 HD
ENDBRANCH  14  17
ENDBRANCH   7  14
TORSDOF 3
