REMARK  Name = 
REMARK  5 active torsions:
REMARK  status: ('A' for Active; 'I' for Inactive)
REMARK    1  A    between atoms: O_1  and  C_2
REMARK    2  A    between atoms: C_3  and  C_4
REMARK    3  A    between atoms: N_9  and  C_10
REMARK    4  A    between atoms: C_10  and  C_11
REMARK    5  A    between atoms: C_22  and  N_23
REMARK                            x       y       z     vdW  Elec       q    Type
REMARK                         _______ _______ _______ _____ _____    ______ ____
ROOT
ATOM      1  C   UNL     1       2.062   2.219   0.036  0.00  0.00    +0.032 C 
ATOM      2  C   UNL     1       0.723   2.301   0.108  0.00  0.00    +0.077 C 
ATOM      3  C   UNL     1      -0.075   3.539  -0.160  0.00  0.00    +0.259 C 
ATOM      4  O   UNL     1       0.422   4.659  -0.220  0.00  0.00    -0.269 OA
ATOM      5  N   UNL     1      -1.398   3.197  -0.412  0.00  0.00    -0.251 N 
ATOM      6  C   UNL     1      -1.674   1.847  -0.417  0.00  0.00    +0.121 C 
ATOM      7  S   UNL     1      -2.979   1.043  -1.071  0.00  0.00    -0.027 S 
ATOM      8  S   UNL     1      -0.350   0.974   0.328  0.00  0.00    -0.061 S 
ENDROOT
BRANCH   1  14
ATOM      9  C   UNL     1       3.462   0.500   1.271  0.00  0.00    +0.202 A 
ATOM     10  C   UNL     1       4.086  -0.754   1.264  0.00  0.00    +0.315 A 
ATOM     11  C   UNL     1       4.071  -1.584   0.136  0.00  0.00    +0.088 A 
ATOM     12  C   UNL     1       3.420  -1.145  -1.012  0.00  0.00    +0.007 A 
ATOM     13  C   UNL     1       2.799   0.108  -1.024  0.00  0.00    +0.012 A 
ATOM     14  C   UNL     1       2.807   0.944   0.111  0.00  0.00    +0.024 A 
BRANCH  10  15
ATOM     15  N   UNL     1       4.810  -1.219   2.432  0.00  0.00    +0.083 N 
ATOM     16  O   UNL     1       4.473  -2.316   2.902  0.00  0.00    +0.042 OA
ATOM     17  O   UNL     1       5.765  -0.533   2.822  0.00  0.00    -0.576 OA
ENDBRANCH  10  15
BRANCH   9  18
ATOM     18  O   UNL     1       3.475   1.250   2.414  0.00  0.00    -0.501 OA
ATOM     19  H   UNL     1       3.353   2.188   2.191  0.00  0.00    +0.292 HD
ENDBRANCH   9  18
ENDBRANCH   1  14
BRANCH   5  20
ATOM     20  C   UNL     1      -2.378   4.237  -0.733  0.00  0.00    +0.150 C 
BRANCH  20  21
ATOM     21  C   UNL     1      -3.144   4.682   0.499  0.00  0.00    -0.030 A 
ATOM     22  C   UNL     1      -4.252   3.960   0.971  0.00  0.00    +0.005 A 
ATOM     23  C   UNL     1      -4.915   4.346   2.137  0.00  0.00    +0.000 A 
ATOM     24  C   UNL     1      -4.489   5.468   2.843  0.00  0.00    +0.000 A 
ATOM     25  C   UNL     1      -3.406   6.209   2.369  0.00  0.00    +0.000 A 
ATOM     26  C   UNL     1      -2.737   5.820   1.212  0.00  0.00    +0.005 A 
ENDBRANCH  20  21
ENDBRANCH   5  20
TORSDOF 5
