REMARK  Name = 
REMARK  18 active torsions:
REMARK  status: ('A' for Active; 'I' for Inactive)
REMARK    1  A    between atoms: C_2  and  C_3
REMARK    2  A    between atoms: C_2  and  C_25
REMARK    3  A    between atoms: C_2  and  C_28
REMARK    4  A    between atoms: C_3  and  P_4
REMARK    5  A    between atoms: P_4  and  O_5
REMARK    6  A    between atoms: P_4  and  C_7
REMARK    7  A    between atoms: C_7  and  N_9
REMARK    8  A    between atoms: C_7  and  C_22
REMARK    9  A    between atoms: N_9  and  S_10
REMARK   10  A    between atoms: S_10  and  C_13
REMARK   11  A    between atoms: C_13  and  C_14
REMARK   12  A    between atoms: C_14  and  C_15
REMARK   13  A    between atoms: C_15  and  C_16
REMARK   14  A    between atoms: C_22  and  C_23
REMARK   15  A    between atoms: C_22  and  C_24
REMARK   16  A    between atoms: C_25  and  O_26
REMARK   17  A    between atoms: C_30  and  C_31
REMARK   18  A    between atoms: C_31  and  N_32
REMARK                            x       y       z     vdW  Elec       q    Type
REMARK                         _______ _______ _______ _____ _____    ______ ____
ROOT
ATOM      1  P   UNL     1       2.030   2.021   1.961  0.00  0.00    +0.221 P 
ATOM      2  O   UNL     1       1.912   2.410   0.475  0.00  0.00    -0.289 OA
ENDROOT
BRANCH   1   3
ATOM      3  O   UNL     1       2.606   0.465   1.473  0.00  0.00    -0.343 OA
ATOM      4  H   UNL     1       2.221   0.346   0.572  0.00  0.00    +0.218 HD
ENDBRANCH   1   3
BRANCH   1   5
ATOM      5  C   UNL     1       3.879   2.435   2.452  0.00  0.00    +0.118 C 
BRANCH   5   6
ATOM      6  C   UNL     1       5.013   1.495   2.000  0.00  0.00    +0.137 C 
BRANCH   6   7
ATOM      7  C   UNL     1       5.114   0.120   2.687  0.00  0.00    -0.033 A 
ATOM      8  C   UNL     1       6.198  -0.727   2.407  0.00  0.00    +0.004 A 
ATOM      9  C   UNL     1       6.292  -1.995   2.991  0.00  0.00    +0.001 A 
ATOM     10  C   UNL     1       5.318  -2.440   3.885  0.00  0.00    +0.005 A 
ATOM     11  C   UNL     1       4.247  -1.610   4.221  0.00  0.00    -0.034 A 
ATOM     12  C   UNL     1       4.169  -0.339   3.626  0.00  0.00    +0.009 A 
BRANCH  11  13
ATOM     13  C   UNL     1       3.182  -2.060   5.192  0.00  0.00    +0.113 C 
BRANCH  13  14
ATOM     14  N   UNL     1       3.111  -1.168   6.347  0.00  0.00    -0.326 NA
ATOM     15  H   UNL     1       2.457  -1.555   7.025  0.00  0.00    +0.119 HD
ATOM     16  H   UNL     1       4.023  -1.161   6.803  0.00  0.00    +0.119 HD
ENDBRANCH  13  14
ENDBRANCH  11  13
ENDBRANCH   6   7
BRANCH   6  17
ATOM     17  C   UNL     1       5.099   1.550   0.482  0.00  0.00    +0.313 C 
ATOM     18  O   UNL     1       5.369   2.583  -0.121  0.00  0.00    -0.250 OA
BRANCH  17  19
ATOM     19  O   UNL     1       4.865   0.396  -0.180  0.00  0.00    -0.480 OA
ATOM     20  H   UNL     1       4.574  -0.319   0.425  0.00  0.00    +0.295 HD
ENDBRANCH  17  19
ENDBRANCH   6  17
ENDBRANCH   5   6
ENDBRANCH   1   5
BRANCH   1  21
ATOM     21  C   UNL     1       1.420   3.667   2.478  0.00  0.00    +0.165 C 
BRANCH  21  22
ATOM     22  C   UNL     1       1.157   3.806   4.024  0.00  0.00    +0.011 C 
ATOM     23  C   UNL     1       0.611   5.188   4.400  0.00  0.00    +0.009 C 
ATOM     24  C   UNL     1       2.360   3.544   4.932  0.00  0.00    +0.009 C 
ENDBRANCH  21  22
BRANCH  21  25
ATOM     25  N   UNL     1       0.124   3.971   1.688  0.00  0.00    -0.182 NA
ATOM     26  H   UNL     1       0.404   3.851   0.699  0.00  0.00    +0.149 HD
BRANCH  25  27
ATOM     27  S   UNL     1      -1.191   2.934   1.986  0.00  0.00    +0.030 S 
ATOM     28  O   UNL     1      -1.660   3.163   3.335  0.00  0.00    -0.158 OA
ATOM     29  O   UNL     1      -0.778   1.620   1.562  0.00  0.00    -0.158 OA
BRANCH  27  30
ATOM     30  C   UNL     1      -2.456   3.560   0.868  0.00  0.00    +0.185 C 
BRANCH  30  31
ATOM     31  C   UNL     1      -3.714   2.701   1.002  0.00  0.00    +0.029 C 
BRANCH  31  32
ATOM     32  C   UNL     1      -4.859   3.163   0.100  0.00  0.00    +0.037 C 
BRANCH  32  33
ATOM     33  C   UNL     1      -6.063   2.264   0.268  0.00  0.00    -0.047 A 
ATOM     34  C   UNL     1      -6.204   1.110  -0.515  0.00  0.00    +0.003 A 
ATOM     35  C   UNL     1      -7.285   0.248  -0.321  0.00  0.00    +0.000 A 
ATOM     36  C   UNL     1      -8.235   0.528   0.659  0.00  0.00    +0.000 A 
ATOM     37  C   UNL     1      -8.105   1.671   1.445  0.00  0.00    +0.000 A 
ATOM     38  C   UNL     1      -7.024   2.535   1.252  0.00  0.00    +0.003 A 
ENDBRANCH  32  33
ENDBRANCH  31  32
ENDBRANCH  30  31
ENDBRANCH  27  30
ENDBRANCH  25  27
ENDBRANCH  21  25
ENDBRANCH   1  21
TORSDOF 16
