REMARK  Name = 
REMARK  18 active torsions:
REMARK  status: ('A' for Active; 'I' for Inactive)
REMARK    1  A    between atoms: C_1  and  C_2
REMARK    2  A    between atoms: C_2  and  C_3
REMARK    3  A    between atoms: C_3  and  C_4
REMARK    4  A    between atoms: C_4  and  C_5
REMARK    5  A    between atoms: C_5  and  C_6
REMARK    6  A    between atoms: C_6  and  C_7
REMARK    7  A    between atoms: C_7  and  C_8
REMARK    8  A    between atoms: C_8  and  C_9
REMARK    9  A    between atoms: C_9  and  C_10
REMARK   10  A    between atoms: C_10  and  C_11
REMARK   11  A    between atoms: C_11  and  C_12
REMARK   12  A    between atoms: C_12  and  O_13
REMARK   13  A    between atoms: C_12  and  P_14
REMARK   14  A    between atoms: C_12  and  P_18
REMARK   15  A    between atoms: P_14  and  O_15
REMARK   16  A    between atoms: P_14  and  O_16
REMARK   17  A    between atoms: P_18  and  O_19
REMARK   18  A    between atoms: P_18  and  O_20
REMARK                            x       y       z     vdW  Elec       q    Type
REMARK                         _______ _______ _______ _____ _____    ______ ____
ROOT
ATOM      1  C   UNL     1      10.617   1.441  -8.049  0.00  0.00    +0.267 C 
ENDROOT
BRANCH   1   2
ATOM      2  O   UNL     1       9.157   1.504  -8.191  0.00  0.00    -0.367 OA
ATOM      3  H   UNL     1       8.870   2.423  -8.055  0.00  0.00    +0.212 HD
ENDBRANCH   1   2
BRANCH   1   4
ATOM      4  P   UNL     1      11.281   2.107  -9.619  0.00  0.00    +0.371 P 
ATOM      5  O   UNL     1      11.843   2.671 -10.947  0.00  0.00    -0.255 OA
BRANCH   4   6
ATOM      6  O   UNL     1      12.266   0.815  -9.839  0.00  0.00    -0.322 OA
ATOM      7  H   UNL     1      12.545   0.915 -10.782  0.00  0.00    +0.220 HD
ENDBRANCH   4   6
BRANCH   4   8
ATOM      8  O   UNL     1       9.946   1.535 -10.411  0.00  0.00    -0.322 OA
ATOM      9  H   UNL     1       9.435   0.873  -9.879  0.00  0.00    +0.220 HD
ENDBRANCH   4   8
ENDBRANCH   1   4
BRANCH   1  10
ATOM     10  P   UNL     1      11.179  -0.287  -7.833  0.00  0.00    +0.371 P 
ATOM     11  O   UNL     1      11.655  -1.749  -7.650  0.00  0.00    -0.255 OA
BRANCH  10  12
ATOM     12  O   UNL     1       9.882  -0.561  -6.849  0.00  0.00    -0.322 OA
ATOM     13  H   UNL     1       9.445  -1.374  -7.169  0.00  0.00    +0.220 HD
ENDBRANCH  10  12
BRANCH  10  14
ATOM     14  O   UNL     1      10.293  -0.684  -9.184  0.00  0.00    -0.322 OA
ATOM     15  H   UNL     1      10.815  -1.351  -9.683  0.00  0.00    +0.220 HD
ENDBRANCH  10  14
ENDBRANCH   1  10
BRANCH   1  16
ATOM     16  C   UNL     1      11.061   2.337  -6.873  0.00  0.00    +0.060 C 
BRANCH  16  17
ATOM     17  C   UNL     1      10.555   1.935  -5.477  0.00  0.00    +0.004 C 
BRANCH  17  18
ATOM     18  C   UNL     1       9.035   1.947  -5.338  0.00  0.00    +0.000 C 
BRANCH  18  19
ATOM     19  C   UNL     1       8.537   1.443  -4.004  0.00  0.00    +0.000 C 
BRANCH  19  20
ATOM     20  C   UNL     1       7.008   1.397  -4.035  0.00  0.00    +0.000 C 
BRANCH  20  21
ATOM     21  C   UNL     1       6.451   0.888  -2.718  0.00  0.00    -0.000 C 
BRANCH  21  22
ATOM     22  C   UNL     1       4.929   0.896  -2.729  0.00  0.00    -0.000 C 
BRANCH  22  23
ATOM     23  C   UNL     1       4.385   0.410  -1.391  0.00  0.00    -0.000 C 
BRANCH  23  24
ATOM     24  C   UNL     1       2.859   0.449  -1.390  0.00  0.00    -0.000 C 
BRANCH  24  26
ATOM     25  C   UNL     1       0.791  -0.013  -0.044  0.00  0.00    +0.004 C 
ATOM     26  C   UNL     1       2.306  -0.046  -0.046  0.00  0.00    -0.003 C 
ENDBRANCH  24  26
ENDBRANCH  23  24
ENDBRANCH  22  23
ENDBRANCH  21  22
ENDBRANCH  20  21
ENDBRANCH  19  20
ENDBRANCH  18  19
ENDBRANCH  17  18
ENDBRANCH  16  17
ENDBRANCH   1  16
TORSDOF 17
