REMARK  Name = 
REMARK  4 active torsions:
REMARK  status: ('A' for Active; 'I' for Inactive)
REMARK    1  A    between atoms: C_2  and  C_17
REMARK    2  A    between atoms: C_4  and  C_6
REMARK    3  A    between atoms: N_8  and  C_9
REMARK    4  A    between atoms: C_17  and  O_18
REMARK                            x       y       z     vdW  Elec       q    Type
REMARK                         _______ _______ _______ _____ _____    ______ ____
ROOT
ATOM      1  C   UNL     1       2.272   1.656  -2.023  0.00  0.00    +0.221 C 
ATOM      2  N   UNL     1       2.681   1.677  -3.338  0.00  0.00    -0.283 N 
ATOM      3  H   UNL     1       3.212   0.882  -3.684  0.00  0.00    +0.155 HD
ATOM      4  O   UNL     1       1.462   2.412  -1.506  0.00  0.00    -0.275 OA
ENDROOT
BRANCH   2   5
ATOM      5  C   UNL     1       2.286   2.603  -4.333  0.00  0.00    +0.072 A 
ATOM      6  C   UNL     1       2.751   2.398  -5.642  0.00  0.00    +0.145 A 
ATOM      7  F   UNL     1       3.562   1.361  -5.905  0.00  0.00    -0.204 F 
ATOM      8  C   UNL     1       2.404   3.256  -6.686  0.00  0.00    +0.043 A 
ATOM      9  C   UNL     1       1.575   4.345  -6.430  0.00  0.00    +0.041 A 
ATOM     10  C   UNL     1       1.117   4.560  -5.135  0.00  0.00    +0.125 A 
ATOM     11  F   UNL     1       0.320   5.608  -4.887  0.00  0.00    -0.205 F 
ATOM     12  C   UNL     1       1.468   3.708  -4.090  0.00  0.00    +0.064 A 
ENDBRANCH   2   5
BRANCH   1  14
ATOM     13  C   UNL     1       2.569  -0.852  -1.326  0.00  0.00    +0.110 C 
ATOM     14  C   UNL     1       2.869   0.620  -1.131  0.00  0.00    +0.090 C 
ATOM     15  C   UNL     1       3.984  -0.329  -1.464  0.00  0.00    +0.029 C 
BRANCH  13  16
ATOM     16  C   UNL     1       1.867  -1.353  -2.534  0.00  0.00    +0.309 C 
ATOM     17  O   UNL     1       2.265  -1.112  -3.662  0.00  0.00    -0.251 OA
BRANCH  16  18
ATOM     18  O   UNL     1       0.774  -2.098  -2.268  0.00  0.00    -0.480 OA
ATOM     19  H   UNL     1       0.565  -2.183  -1.319  0.00  0.00    +0.295 HD
ENDBRANCH  16  18
ENDBRANCH  13  16
ENDBRANCH   1  14
TORSDOF 4
