REMARK  Name = 
REMARK  0 active torsions:
REMARK  status: ('A' for Active; 'I' for Inactive)
REMARK                            x       y       z     vdW  Elec       q    Type
REMARK                         _______ _______ _______ _____ _____    ______ ____
ROOT
ATOM      1  N   UNL     1       1.250  -0.083   0.209  0.00  0.00    -0.329 N 
ATOM      2  H   UNL     1       0.838  -0.814  -0.352  0.00  0.00    +0.145 HD
ATOM      3  H   UNL     1       0.770   0.807   0.107  0.00  0.00    +0.145 HD
ATOM      4  C   UNL     1       2.594   0.060   0.123  0.00  0.00    +0.194 A 
ATOM      5  N   UNL     1       3.321  -1.080  -0.042  0.00  0.00    -0.295 N 
ATOM      6  H   UNL     1       2.865  -1.977  -0.038  0.00  0.00    +0.172 HD
ATOM      7  C   UNL     1       4.690  -1.104  -0.127  0.00  0.00    +0.260 A 
ATOM      8  O   UNL     1       5.316  -2.153  -0.230  0.00  0.00    -0.267 OA
ATOM      9  C   UNL     1       5.352   0.209  -0.094  0.00  0.00    +0.067 A 
ATOM     10  C   UNL     1       4.532   1.333   0.062  0.00  0.00    +0.082 A 
ATOM     11  C   UNL     1       5.102   2.612   0.075  0.00  0.00    +0.056 A 
ATOM     12  C   UNL     1       6.486   2.698  -0.104  0.00  0.00    +0.068 A 
ATOM     13  N   UNL     1       7.343   3.767  -0.185  0.00  0.00    -0.344 N 
ATOM     14  H   UNL     1       7.086   4.741  -0.124  0.00  0.00    +0.167 HD
ATOM     15  C   UNL     1       8.602   3.280  -0.398  0.00  0.00    +0.197 A 
ATOM     16  N   UNL     1       8.615   1.968  -0.433  0.00  0.00    -0.236 NA
ATOM     17  C   UNL     1       7.308   1.586  -0.261  0.00  0.00    +0.090 A 
ATOM     18  C   UNL     1       6.744   0.305  -0.242  0.00  0.00    +0.045 A 
ATOM     19  N   UNL     1       3.134   1.234   0.184  0.00  0.00    -0.216 NA
ENDROOT
TORSDOF 0
