REMARK  Name = 
REMARK  5 active torsions:
REMARK  status: ('A' for Active; 'I' for Inactive)
REMARK    1  A    between atoms: C_2  and  O_3
REMARK    2  A    between atoms: C_2  and  C_4
REMARK    3  A    between atoms: C_2  and  C_7
REMARK    4  A    between atoms: C_4  and  O_5
REMARK    5  A    between atoms: C_10  and  O_11
REMARK                            x       y       z     vdW  Elec       q    Type
REMARK                         _______ _______ _______ _____ _____    ______ ____
ROOT
ATOM      1  C   UNL     1       2.568   1.376   0.348  0.00  0.00    -0.008 A 
ATOM      2  C   UNL     1       3.888   1.641   0.755  0.00  0.00    +0.010 A 
ATOM      3  C   UNL     1       4.312   2.953   0.975  0.00  0.00    +0.046 A 
ATOM      4  C   UNL     1       3.428   4.006   0.778  0.00  0.00    +0.117 A 
ATOM      5  C   UNL     1       2.112   3.768   0.400  0.00  0.00    +0.046 A 
ATOM      6  C   UNL     1       1.681   2.454   0.194  0.00  0.00    +0.010 A 
ENDROOT
BRANCH   4   7
ATOM      7  O   UNL     1       3.900   5.271   0.955  0.00  0.00    -0.507 OA
ATOM      8  H   UNL     1       3.229   5.899   0.641  0.00  0.00    +0.292 HD
ENDBRANCH   4   7
BRANCH   1   9
ATOM      9  C   UNL     1       2.131  -0.050   0.080  0.00  0.00    +0.253 C 
BRANCH   9  10
ATOM     10  C   UNL     1       1.476  -0.775   1.268  0.00  0.00    +0.338 C 
ATOM     11  O   UNL     1       0.671  -1.686   1.099  0.00  0.00    -0.248 OA
BRANCH  10  12
ATOM     12  O   UNL     1       1.883  -0.416   2.505  0.00  0.00    -0.479 OA
ATOM     13  H   UNL     1       2.477   0.361   2.533  0.00  0.00    +0.295 HD
ENDBRANCH  10  12
ENDBRANCH   9  10
BRANCH   9  14
ATOM     14  O   UNL     1       1.259  -0.068  -1.053  0.00  0.00    -0.376 OA
ATOM     15  H   UNL     1       0.813  -0.938  -1.031  0.00  0.00    +0.211 HD
ENDBRANCH   9  14
ENDBRANCH   1   9
TORSDOF 5
