REMARK  Name = 
REMARK  2 active torsions:
REMARK  status: ('A' for Active; 'I' for Inactive)
REMARK    1  A    between atoms: C_2  and  N_13
REMARK    2  A    between atoms: C_14  and  C_16
REMARK                            x       y       z     vdW  Elec       q    Type
REMARK                         _______ _______ _______ _____ _____    ______ ____
ROOT
ATOM      1  N   UNL     1       2.650  -0.054  -1.496  0.00  0.00    -0.299 N 
ATOM      2  H   UNL     1       3.215  -0.858  -1.732  0.00  0.00    +0.150 HD
ATOM      3  C   UNL     1       2.244   0.790  -2.495  0.00  0.00    +0.261 C 
ATOM      4  O   UNL     1       1.573   1.794  -2.281  0.00  0.00    -0.269 OA
ENDROOT
BRANCH   1   5
ATOM      5  C   UNL     1       2.200   0.087  -0.108  0.00  0.00    +0.164 C 
ATOM      6  C   UNL     1       2.746  -1.124   0.657  0.00  0.00    +0.238 C 
ATOM      7  O   UNL     1       2.174  -2.214   0.676  0.00  0.00    -0.273 OA
ATOM      8  N   UNL     1       4.031  -1.011   1.135  0.00  0.00    -0.284 N 
ATOM      9  H   UNL     1       4.449  -1.861   1.488  0.00  0.00    +0.155 HD
ATOM     10  C   UNL     1       4.762   0.180   1.131  0.00  0.00    +0.037 A 
ATOM     11  C   UNL     1       6.124   0.158   1.418  0.00  0.00    +0.023 A 
ATOM     12  C   UNL     1       6.850   1.351   1.414  0.00  0.00    +0.002 A 
ATOM     13  C   UNL     1       6.205   2.563   1.165  0.00  0.00    +0.000 A 
ATOM     14  C   UNL     1       4.837   2.585   0.896  0.00  0.00    +0.005 A 
ATOM     15  C   UNL     1       4.114   1.389   0.850  0.00  0.00    -0.024 A 
ATOM     16  C   UNL     1       2.636   1.385   0.579  0.00  0.00    +0.068 C 
ENDBRANCH   1   5
BRANCH   3  17
ATOM     17  C   UNL     1       2.664   0.421  -3.829  0.00  0.00    +0.103 A 
ATOM     18  N   UNL     1       2.535   1.326  -4.889  0.00  0.00    -0.345 N 
ATOM     19  H   UNL     1       2.180   2.270  -4.794  0.00  0.00    +0.167 HD
ATOM     20  C   UNL     1       2.883   0.691  -6.027  0.00  0.00    +0.087 A 
ATOM     21  S   UNL     1       2.914   1.041  -7.652  0.00  0.00    -0.059 S 
ATOM     22  C   UNL     1       3.429  -0.578  -7.963  0.00  0.00    +0.081 A 
ATOM     23  C   UNL     1       3.592  -1.350  -6.823  0.00  0.00    +0.037 A 
ATOM     24 CL   UNL     1       3.663  -1.084  -9.588  0.00  0.00    -0.076 Cl
ATOM     25  C   UNL     1       3.257  -0.557  -5.728  0.00  0.00    +0.009 A 
ATOM     26  C   UNL     1       3.171  -0.775  -4.358  0.00  0.00    +0.041 A 
ENDBRANCH   3  17
TORSDOF 2
