REMARK  Name = 
REMARK  6 active torsions:
REMARK  status: ('A' for Active; 'I' for Inactive)
REMARK    1  A    between atoms: O_1  and  C_2
REMARK    2  A    between atoms: C_2  and  C_4
REMARK    3  A    between atoms: C_4  and  O_5
REMARK    4  A    between atoms: C_6  and  C_7
REMARK    5  A    between atoms: C_8  and  C_9
REMARK    6  A    between atoms: C_9  and  C_11
REMARK                            x       y       z     vdW  Elec       q    Type
REMARK                         _______ _______ _______ _____ _____    ______ ____
ROOT
ATOM      1  C   UNL     1       5.410   0.007   0.140  0.00  0.00    +0.008 C 
ATOM      2  C   UNL     1       6.753   0.068   0.114  0.00  0.00    +0.051 C 
ENDROOT
BRANCH   1   4
ATOM      3  C   UNL     1       3.215   1.061  -0.450  0.00  0.00    +0.202 C 
ATOM      4  C   UNL     1       4.555   1.058  -0.372  0.00  0.00    +0.053 C 
BRANCH   3   5
ATOM      5  C   UNL     1       2.334  -0.085  -0.049  0.00  0.00    +0.372 C 
ATOM      6  O   UNL     1       2.625  -1.265  -0.055  0.00  0.00    -0.242 OA
BRANCH   5   7
ATOM      7  O   UNL     1       1.091   0.380   0.233  0.00  0.00    -0.475 OA
ATOM      8  H   UNL     1       1.102   1.335   0.447  0.00  0.00    +0.296 HD
ENDBRANCH   5   7
ENDBRANCH   3   5
BRANCH   3   9
ATOM      9  O   UNL     1       2.580   2.198  -0.953  0.00  0.00    -0.501 OA
ATOM     10  H   UNL     1       1.813   1.877  -1.468  0.00  0.00    +0.292 HD
ENDBRANCH   3   9
ENDBRANCH   1   4
BRANCH   2  11
ATOM     11  C   UNL     1       7.532  -1.063   0.692  0.00  0.00    +0.186 C 
ATOM     12  O   UNL     1       7.002  -1.856   1.465  0.00  0.00    -0.287 OA
BRANCH  11  13
ATOM     13  C   UNL     1       8.976  -1.233   0.341  0.00  0.00    +0.022 A 
ATOM     14  C   UNL     1       9.650  -2.327   0.913  0.00  0.00    +0.012 A 
ATOM     15  C   UNL     1      10.992  -2.575   0.618  0.00  0.00    +0.001 A 
ATOM     16  C   UNL     1      11.679  -1.732  -0.249  0.00  0.00    +0.000 A 
ATOM     17  C   UNL     1      11.025  -0.643  -0.822  0.00  0.00    +0.001 A 
ATOM     18  C   UNL     1       9.678  -0.394  -0.534  0.00  0.00    +0.012 A 
ENDBRANCH  11  13
ENDBRANCH   2  11
TORSDOF 6
