REMARK  Name = 
REMARK  9 active torsions:
REMARK  status: ('A' for Active; 'I' for Inactive)
REMARK    1  A    between atoms: C_1  and  C_2
REMARK    2  A    between atoms: C_2  and  O_3
REMARK    3  A    between atoms: C_2  and  C_4
REMARK    4  A    between atoms: C_2  and  C_14
REMARK    5  A    between atoms: C_4  and  O_5
REMARK    6  A    between atoms: O_5  and  C_6
REMARK    7  A    between atoms: N_16  and  C_17
REMARK    8  A    between atoms: C_19  and  C_25
REMARK    9  A    between atoms: C_20  and  C_23
REMARK                            x       y       z     vdW  Elec       q    Type
REMARK                         _______ _______ _______ _____ _____    ______ ____
ROOT
ATOM      1  C   UNL     1       2.921  -1.133   0.814  0.00  0.00    +0.252 C 
ATOM      2  N   UNL     1       3.515  -0.966   2.055  0.00  0.00    -0.283 N 
ATOM      3  H   UNL     1       3.647  -0.027   2.408  0.00  0.00    +0.155 HD
ATOM      4  O   UNL     1       2.561  -2.228   0.376  0.00  0.00    -0.272 OA
ENDROOT
BRANCH   2   5
ATOM      5  C   UNL     1       3.928  -2.003   2.919  0.00  0.00    +0.034 A 
ATOM      6  C   UNL     1       4.208  -1.681   4.251  0.00  0.00    +0.024 A 
ATOM      7  C   UNL     1       4.574  -2.682   5.155  0.00  0.00    +0.021 A 
ATOM      8  C   UNL     1       4.695  -4.017   4.737  0.00  0.00    +0.064 A 
ATOM      9  C   UNL     1       4.460  -4.343   3.393  0.00  0.00    +0.074 A 
ATOM     10  C   UNL     1       4.080  -3.326   2.501  0.00  0.00    +0.037 A 
BRANCH   9  11
ATOM     11  C   UNL     1       4.604  -5.758   2.887  0.00  0.00    +0.419 C 
ATOM     12  F   UNL     1       3.756  -6.621   3.506  0.00  0.00    -0.166 F 
ATOM     13  F   UNL     1       5.859  -6.248   3.075  0.00  0.00    -0.166 F 
ATOM     14  F   UNL     1       4.358  -5.888   1.554  0.00  0.00    -0.166 F 
ENDBRANCH   9  11
BRANCH   8  15
ATOM     15  C   UNL     1       5.060  -5.015   5.702  0.00  0.00    +0.100 C 
ATOM     16  N   UNL     1       5.352  -5.815   6.492  0.00  0.00    -0.191 NA
ENDBRANCH   8  15
ENDBRANCH   2   5
BRANCH   1  18
ATOM     17  C   UNL     1       3.053  -0.024  -1.419  0.00  0.00    +0.055 C 
ATOM     18  C   UNL     1       2.549   0.157   0.020  0.00  0.00    +0.173 C 
BRANCH  18  19
ATOM     19  O   UNL     1       1.117   0.279  -0.047  0.00  0.00    -0.376 OA
ATOM     20  H   UNL     1       0.735  -0.251   0.676  0.00  0.00    +0.211 HD
ENDBRANCH  18  19
BRANCH  18  21
ATOM     21  C   UNL     1       3.076   1.471   0.608  0.00  0.00    +0.273 C 
BRANCH  21  22
ATOM     22  O   UNL     1       4.496   1.420   0.725  0.00  0.00    -0.489 OA
BRANCH  22  23
ATOM     23  C   UNL     1       5.116   2.475   1.326  0.00  0.00    +0.123 A 
ATOM     24  C   UNL     1       4.486   3.597   1.861  0.00  0.00    +0.085 A 
ATOM     25  C   UNL     1       5.251   4.587   2.474  0.00  0.00    +0.145 A 
ATOM     26  F   UNL     1       4.617   5.649   2.996  0.00  0.00    -0.204 F 
ATOM     27  C   UNL     1       6.637   4.478   2.553  0.00  0.00    +0.076 A 
ATOM     28 CL   UNL     1       7.574   5.699   3.320  0.00  0.00    -0.081 Cl
ATOM     29  C   UNL     1       7.271   3.363   2.009  0.00  0.00    +0.026 A 
ATOM     30  C   UNL     1       6.508   2.365   1.399  0.00  0.00    +0.047 A 
ENDBRANCH  22  23
ENDBRANCH  21  22
ENDBRANCH  18  21
ENDBRANCH   1  18
TORSDOF 8
