REMARK  Name = 
REMARK  5 active torsions:
REMARK  status: ('A' for Active; 'I' for Inactive)
REMARK    1  A    between atoms: N_1  and  C_2
REMARK    2  A    between atoms: C_2  and  C_3
REMARK    3  A    between atoms: C_3  and  C_4
REMARK    4  A    between atoms: C_7  and  O_8
REMARK    5  A    between atoms: C_9  and  C_11
REMARK                            x       y       z     vdW  Elec       q    Type
REMARK                         _______ _______ _______ _____ _____    ______ ____
ROOT
ATOM      1  C   UNL     1       4.425   0.452   1.552  0.00  0.00    -0.046 A 
ATOM      2  C   UNL     1       5.079   0.528   0.313  0.00  0.00    +0.011 A 
ATOM      3  C   UNL     1       6.466   0.720   0.207  0.00  0.00    -0.003 A 
ATOM      4  C   UNL     1       7.195   0.722   1.408  0.00  0.00    +0.120 A 
ATOM      5  C   UNL     1       6.565   0.624   2.652  0.00  0.00    +0.046 A 
ATOM      6  C   UNL     1       5.178   0.510   2.724  0.00  0.00    +0.007 A 
ENDROOT
BRANCH   3   7
ATOM      7  C   UNL     1       7.160   0.926  -1.143  0.00  0.00    +0.023 C 
ATOM      8  C   UNL     1       7.902   2.279  -1.231  0.00  0.00    +0.008 C 
ATOM      9  C   UNL     1       6.936   3.457  -1.309  0.00  0.00    +0.001 C 
ATOM     10  C   UNL     1       6.029   3.353  -2.529  0.00  0.00    +0.000 C 
ATOM     11  C   UNL     1       5.339   1.999  -2.652  0.00  0.00    +0.001 C 
ATOM     12  C   UNL     1       6.271   0.803  -2.406  0.00  0.00    +0.008 C 
ENDBRANCH   3   7
BRANCH   4  13
ATOM     13  O   UNL     1       8.560   0.808   1.363  0.00  0.00    -0.506 OA
ATOM     14  H   UNL     1       8.900   0.879   2.270  0.00  0.00    +0.292 HD
ENDBRANCH   4  13
BRANCH   1  15
ATOM     15  C   UNL     1       2.917   0.375   1.591  0.00  0.00    +0.050 C 
BRANCH  15  16
ATOM     16  C   UNL     1       2.290   1.771   1.487  0.00  0.00    +0.082 C 
BRANCH  16  17
ATOM     17  N   UNL     1       0.830   1.698   1.473  0.00  0.00    -0.330 NA
ATOM     18  H   UNL     1       0.497   1.317   2.357  0.00  0.00    +0.118 HD
ATOM     19  H   UNL     1       0.448   2.642   1.411  0.00  0.00    +0.118 HD
ENDBRANCH  16  17
ENDBRANCH  15  16
ENDBRANCH   1  15
TORSDOF 5
