REMARK  Name = 
REMARK  5 active torsions:
REMARK  status: ('A' for Active; 'I' for Inactive)
REMARK    1  A    between atoms: C_9  and  C_12
REMARK    2  A    between atoms: N_14  and  C_15
REMARK    3  A    between atoms: C_15  and  C_16
REMARK    4  A    between atoms: C_19  and  C_22
REMARK    5  A    between atoms: N_30  and  O_31
REMARK                            x       y       z     vdW  Elec       q    Type
REMARK                         _______ _______ _______ _____ _____    ______ ____
ROOT
ATOM      1  C   UNL     1       4.086   2.811   0.002  0.00  0.00    +0.245 C 
ATOM      2  N   UNL     1       3.948   3.652  -1.081  0.00  0.00    -0.309 N 
ATOM      3  H   UNL     1       3.602   3.247  -1.944  0.00  0.00    +0.149 HD
ATOM      4  O   UNL     1       4.295   3.224   1.139  0.00  0.00    -0.273 OA
ENDROOT
BRANCH   1   7
ATOM      5  C   UNL     1       2.195   0.139  -0.812  0.00  0.00    +0.269 C 
ATOM      6  O   UNL     1       3.179   0.990  -1.421  0.00  0.00    -0.335 OA
ATOM      7  C   UNL     1       4.089   1.316  -0.360  0.00  0.00    +0.237 C 
ATOM      8  C   UNL     1       3.635   0.478   0.826  0.00  0.00    +0.176 C 
ATOM      9  C   UNL     1       4.229  -0.941   0.798  0.00  0.00    +0.144 C 
ATOM     10  N   UNL     1       3.790  -1.763  -0.338  0.00  0.00    -0.277 N 
ATOM     11  C   UNL     1       4.353  -3.022  -0.448  0.00  0.00    +0.325 C 
ATOM     12  N   UNL     1       3.714  -3.897  -1.298  0.00  0.00    -0.181 N 
ATOM     13  H   UNL     1       2.702  -3.889  -1.292  0.00  0.00    +0.184 HD
ATOM     14  O   UNL     1       5.356  -3.372   0.178  0.00  0.00    -0.250 OA
ATOM     15  O   UNL     1       2.215   0.385   0.598  0.00  0.00    -0.342 OA
ATOM     16  C   UNL     1       2.555  -1.348  -1.039  0.00  0.00    +0.170 C 
BRANCH  12  17
ATOM     17  O   UNL     1       4.252  -5.215  -1.260  0.00  0.00    -0.294 OA
ATOM     18  H   UNL     1       5.025  -5.107  -0.661  0.00  0.00    +0.241 HD
ENDBRANCH  12  17
ENDBRANCH   1   7
BRANCH   2  19
ATOM     19  C   UNL     1       3.915   5.089  -0.920  0.00  0.00    +0.139 C 
BRANCH  19  20
ATOM     20  C   UNL     1       4.450   5.777  -2.146  0.00  0.00    -0.030 A 
ATOM     21  C   UNL     1       5.828   5.949  -2.310  0.00  0.00    +0.006 A 
ATOM     22  C   UNL     1       6.340   6.555  -3.463  0.00  0.00    +0.009 A 
ATOM     23  C   UNL     1       5.500   6.986  -4.505  0.00  0.00    -0.018 A 
ATOM     24  C   UNL     1       4.116   6.815  -4.317  0.00  0.00    +0.009 A 
ATOM     25  C   UNL     1       3.596   6.223  -3.157  0.00  0.00    +0.006 A 
BRANCH  23  26
ATOM     26  C   UNL     1       6.048   7.562  -5.760  0.00  0.00    -0.018 A 
ATOM     27  C   UNL     1       7.275   7.120  -6.292  0.00  0.00    +0.008 A 
ATOM     28  C   UNL     1       7.782   7.629  -7.493  0.00  0.00    +0.001 A 
ATOM     29  C   UNL     1       7.067   8.590  -8.199  0.00  0.00    +0.000 A 
ATOM     30  C   UNL     1       5.855   9.051  -7.697  0.00  0.00    +0.001 A 
ATOM     31  C   UNL     1       5.358   8.549  -6.488  0.00  0.00    +0.008 A 
ENDBRANCH  23  26
ENDBRANCH  19  20
ENDBRANCH   2  19
TORSDOF 5
