REMARK  Name = 
REMARK  5 active torsions:
REMARK  status: ('A' for Active; 'I' for Inactive)
REMARK    1  A    between atoms: C_1  and  C_2
REMARK    2  A    between atoms: C_2  and  C_3
REMARK    3  A    between atoms: C_3  and  C_4
REMARK    4  A    between atoms: C_5  and  S_16
REMARK    5  A    between atoms: S_16  and  C_18
REMARK                            x       y       z     vdW  Elec       q    Type
REMARK                         _______ _______ _______ _____ _____    ______ ____
ROOT
ATOM      1  C   UNL     1       4.824  -1.232  -0.106  0.00  0.00    +0.033 A 
ATOM      2  C   UNL     1       5.803  -0.780  -1.177  0.00  0.00    +0.253 A 
ATOM      3  O   UNL     1       5.439  -0.273  -2.239  0.00  0.00    -0.268 OA
ATOM      4  N   UNL     1       7.130  -0.968  -0.966  0.00  0.00    -0.322 N 
ATOM      5  H   UNL     1       7.726  -0.648  -1.717  0.00  0.00    +0.169 HD
ATOM      6  C   UNL     1       7.670  -1.326   0.256  0.00  0.00    +0.050 A 
ATOM      7  C   UNL     1       6.814  -1.642   1.316  0.00  0.00    +0.016 A 
ATOM      8  C   UNL     1       7.432  -1.892   2.559  0.00  0.00    +0.031 A 
ATOM      9  C   UNL     1       8.822  -1.839   2.713  0.00  0.00    +0.042 A 
ATOM     10  C   UNL     1       9.645  -1.542   1.635  0.00  0.00    +0.022 A 
ATOM     11 CL   UNL     1       9.518  -2.127   4.260  0.00  0.00    -0.084 Cl
ATOM     12  C   UNL     1       9.065  -1.287   0.399  0.00  0.00    +0.028 A 
ATOM     13  C   UNL     1       5.318  -1.640   1.101  0.00  0.00    +0.057 A 
ENDROOT
BRANCH  13  14
ATOM     14  S   UNL     1       4.401  -1.845   2.619  0.00  0.00    +0.058 S 
ATOM     15  O   UNL     1       4.006  -0.500   3.136  0.00  0.00    -0.252 OA
BRANCH  14  16
ATOM     16  C   UNL     1       3.025  -3.004   2.674  0.00  0.00    +0.083 C 
ATOM     17  C   UNL     1       2.684  -3.240   4.176  0.00  0.00    +0.017 C 
ATOM     18  C   UNL     1       3.777  -4.017   4.932  0.00  0.00    +0.001 C 
ATOM     19  C   UNL     1       4.164  -5.323   4.246  0.00  0.00    +0.000 C 
ATOM     20  C   UNL     1       4.368  -5.179   2.741  0.00  0.00    +0.001 C 
ATOM     21  C   UNL     1       3.266  -4.381   2.060  0.00  0.00    +0.017 C 
ENDBRANCH  14  16
ENDBRANCH  13  14
BRANCH   1  22
ATOM     22  C   UNL     1       3.396  -0.971  -0.555  0.00  0.00    +0.041 C 
BRANCH  22  24
ATOM     23  C   UNL     1       2.490  -3.166  -1.507  0.00  0.00    +0.004 C 
ATOM     24  C   UNL     1       2.958  -1.760  -1.813  0.00  0.00    +0.001 C 
ENDBRANCH  22  24
ENDBRANCH   1  22
TORSDOF 4
