REMARK  Name = 
REMARK  9 active torsions:
REMARK  status: ('A' for Active; 'I' for Inactive)
REMARK    1  A    between atoms: C_1  and  C_2
REMARK    2  A    between atoms: C_2  and  N_3
REMARK    3  A    between atoms: N_3  and  C_4
REMARK    4  A    between atoms: C_4  and  C_5
REMARK    5  A    between atoms: C_6  and  C_8
REMARK    6  A    between atoms: C_8  and  C_9
REMARK    7  A    between atoms: N_14  and  S_15
REMARK    8  A    between atoms: S_15  and  C_18
REMARK    9  A    between atoms: C_19  and  C_20
REMARK                            x       y       z     vdW  Elec       q    Type
REMARK                         _______ _______ _______ _____ _____    ______ ____
ROOT
ATOM      1  C   UNL     1       6.575   1.157   2.906  0.00  0.00    +0.052 A 
ATOM      2  N   UNL     1       7.245  -0.022   2.831  0.00  0.00    -0.235 NA
ATOM      3  C   UNL     1       8.583   0.037   2.914  0.00  0.00    +0.138 A 
ATOM      4  N   UNL     1       9.227  -1.212   2.795  0.00  0.00    -0.199 N 
ATOM      5  H   UNL     1       8.636  -1.940   3.195  0.00  0.00    +0.175 HD
ATOM      6  C   UNL     1       9.310   1.204   3.069  0.00  0.00    +0.045 A 
ATOM      7  C   UNL     1       8.613   2.401   3.134  0.00  0.00    +0.005 A 
ATOM      8  C   UNL     1       7.226   2.382   3.049  0.00  0.00    +0.024 A 
ENDROOT
BRANCH   4   9
ATOM      9  S   UNL     1       9.628  -1.676   1.218  0.00  0.00    +0.074 S 
ATOM     10  O   UNL     1       8.479  -1.472   0.362  0.00  0.00    -0.150 OA
ATOM     11  O   UNL     1      10.247  -2.986   1.297  0.00  0.00    -0.150 OA
BRANCH   9  12
ATOM     12  C   UNL     1      10.907  -0.524   0.727  0.00  0.00    +0.113 A 
ATOM     13  C   UNL     1      10.626   0.285  -0.390  0.00  0.00    +0.029 A 
ATOM     14  C   UNL     1      11.558   1.211  -0.846  0.00  0.00    +0.003 A 
ATOM     15  C   UNL     1      12.777   1.334  -0.192  0.00  0.00    +0.020 A 
ATOM     16  C   UNL     1      13.066   0.531   0.917  0.00  0.00    +0.046 A 
ATOM     17 CL   UNL     1      14.609   0.767   1.668  0.00  0.00    -0.083 Cl
ATOM     18  C   UNL     1      12.142  -0.418   1.405  0.00  0.00    -0.006 A 
ATOM     19  C   UNL     1      12.505  -1.235   2.618  0.00  0.00    +0.047 C 
ENDBRANCH   9  12
ENDBRANCH   4   9
BRANCH   1  20
ATOM     20  C   UNL     1       5.069   1.113   2.812  0.00  0.00    +0.151 C 
BRANCH  20  22
ATOM     21  N   UNL     1       2.971   0.986   4.154  0.00  0.00    -0.302 N 
ATOM     22  C   UNL     1       4.375   1.058   4.169  0.00  0.00    +0.221 C 
ATOM     23  O   UNL     1       5.006   1.077   5.229  0.00  0.00    -0.275 OA
BRANCH  21  25
ATOM     24  C   UNL     1       2.048   1.969   6.258  0.00  0.00    +0.024 C 
ATOM     25  C   UNL     1       2.305   0.717   5.433  0.00  0.00    +0.104 C 
ENDBRANCH  21  25
BRANCH  21  26
ATOM     26  C   UNL     1       2.205   1.102   2.906  0.00  0.00    +0.104 C 
ATOM     27  C   UNL     1       0.687   1.122   2.988  0.00  0.00    +0.024 C 
ENDBRANCH  21  26
ENDBRANCH  20  22
ENDBRANCH   1  20
TORSDOF 6
