REMARK  Name = 
REMARK  9 active torsions:
REMARK  status: ('A' for Active; 'I' for Inactive)
REMARK    1  A    between atoms: C_1  and  C_2
REMARK    2  A    between atoms: C_2  and  C_3
REMARK    3  A    between atoms: C_3  and  C_4
REMARK    4  A    between atoms: C_7  and  N_8
REMARK    5  A    between atoms: C_9  and  C_11
REMARK    6  A    between atoms: C_16  and  N_17
REMARK    7  A    between atoms: N_17  and  C_18
REMARK    8  A    between atoms: C_18  and  C_19
REMARK    9  A    between atoms: C_27  and  C_28
REMARK                            x       y       z     vdW  Elec       q    Type
REMARK                         _______ _______ _______ _____ _____    ______ ____
ROOT
ATOM      1  N   UNL     1       8.798   1.163   0.457  0.00  0.00    -0.281 N 
ATOM      2  H   UNL     1       9.129   1.837  -0.228  0.00  0.00    +0.155 HD
ATOM      3  C   UNL     1       9.676   0.140   0.790  0.00  0.00    +0.250 C 
ATOM      4  O   UNL     1       9.491  -0.669   1.701  0.00  0.00    -0.270 OA
ENDROOT
BRANCH   1   8
ATOM      5  C   UNL     1       5.337   2.109   2.789  0.00  0.00    -0.036 A 
ATOM      6  C   UNL     1       5.889   3.068   1.909  0.00  0.00    +0.060 A 
ATOM      7  C   UNL     1       7.012   2.709   1.103  0.00  0.00    +0.036 A 
ATOM      8  C   UNL     1       7.593   1.437   1.167  0.00  0.00    +0.034 A 
ATOM      9  C   UNL     1       6.963   0.485   1.968  0.00  0.00    +0.023 A 
ATOM     10  C   UNL     1       5.862   0.810   2.764  0.00  0.00    +0.006 A 
BRANCH   6  11
ATOM     11  C   UNL     1       5.379   4.490   1.785  0.00  0.00    +0.418 C 
ATOM     12  F   UNL     1       5.027   4.794   0.502  0.00  0.00    -0.166 F 
ATOM     13  F   UNL     1       6.332   5.406   2.125  0.00  0.00    -0.166 F 
ATOM     14  F   UNL     1       4.290   4.800   2.537  0.00  0.00    -0.166 F 
ENDBRANCH   6  11
BRANCH   5  15
ATOM     15  C   UNL     1       4.230   2.383   3.786  0.00  0.00    +0.035 C 
BRANCH  15  17
ATOM     16  C   UNL     1       1.756   2.432   4.258  0.00  0.00    +0.004 C 
ATOM     17  C   UNL     1       2.831   2.127   3.224  0.00  0.00    +0.001 C 
ENDBRANCH  15  17
ENDBRANCH   5  15
ENDBRANCH   1   8
BRANCH   3  18
ATOM     18  C   UNL     1      10.980   0.017   0.066  0.00  0.00    +0.058 A 
ATOM     19  C   UNL     1      11.219   0.331  -1.288  0.00  0.00    +0.040 A 
ATOM     20  C   UNL     1      12.466  -0.061  -1.830  0.00  0.00    +0.024 A 
ATOM     21  C   UNL     1      13.473  -0.641  -1.053  0.00  0.00    +0.002 A 
ATOM     22  C   UNL     1      13.261  -0.855   0.296  0.00  0.00    +0.001 A 
ATOM     23  C   UNL     1      12.022  -0.540   0.845  0.00  0.00    +0.015 A 
BRANCH  19  24
ATOM     24  N   UNL     1      10.235   0.942  -2.095  0.00  0.00    -0.339 N 
ATOM     25  H   UNL     1       9.483   0.273  -2.279  0.00  0.00    +0.146 HD
BRANCH  24  26
ATOM     26  C   UNL     1      10.695   1.563  -3.344  0.00  0.00    +0.138 C 
BRANCH  26  27
ATOM     27  C   UNL     1       9.676   2.567  -3.803  0.00  0.00    -0.014 A 
ATOM     28  C   UNL     1       9.290   3.623  -2.876  0.00  0.00    +0.012 A 
ATOM     29  C   UNL     1       8.401   4.560  -3.222  0.00  0.00    +0.070 A 
ATOM     30  C   UNL     1       7.816   4.547  -4.586  0.00  0.00    +0.249 A 
ATOM     31  O   UNL     1       7.008   5.395  -4.938  0.00  0.00    -0.268 OA
ATOM     32  N   UNL     1       8.256   3.542  -5.415  0.00  0.00    -0.329 N 
ATOM     33  H   UNL     1       7.867   3.552  -6.349  0.00  0.00    +0.168 HD
ATOM     34  C   UNL     1       9.156   2.578  -5.044  0.00  0.00    +0.091 A 
ENDBRANCH  26  27
ENDBRANCH  24  26
ENDBRANCH  19  24
ENDBRANCH   3  18
TORSDOF 8
