REMARK  Name = 
REMARK  6 active torsions:
REMARK  status: ('A' for Active; 'I' for Inactive)
REMARK    1  A    between atoms: C_2  and  C_3
REMARK    2  A    between atoms: C_3  and  C_4
REMARK    3  A    between atoms: C_4  and  N_5
REMARK    4  A    between atoms: C_7  and  C_14
REMARK    5  A    between atoms: C_15  and  C_21
REMARK    6  A    between atoms: N_33  and  C_34
REMARK                            x       y       z     vdW  Elec       q    Type
REMARK                         _______ _______ _______ _____ _____    ______ ____
ROOT
ATOM      1  C   UNL     1       5.440  -0.971  -6.169  0.00  0.00    +0.059 C 
ATOM      2  C   UNL     1       4.210  -1.780  -6.425  0.00  0.00    +0.252 C 
ATOM      3  O   UNL     1       3.085  -1.536  -6.029  0.00  0.00    -0.270 OA
ATOM      4  N   UNL     1       4.540  -2.811  -7.202  0.00  0.00    -0.248 N 
ATOM      5  H   UNL     1       3.874  -3.459  -7.595  0.00  0.00    +0.158 HD
ATOM      6  C   UNL     1       5.784  -2.647  -7.669  0.00  0.00    +0.252 C 
ATOM      7  O   UNL     1       6.253  -3.333  -8.562  0.00  0.00    -0.270 OA
ATOM      8  C   UNL     1       6.427  -1.486  -6.937  0.00  0.00    +0.059 C 
ENDROOT
BRANCH   8   9
ATOM      9  C   UNL     1       7.806  -1.149  -7.191  0.00  0.00    +0.013 A 
ATOM     10  C   UNL     1       8.568   0.020  -6.851  0.00  0.00    +0.008 A 
ATOM     11  C   UNL     1       8.390   1.133  -6.011  0.00  0.00    +0.010 A 
ATOM     12  C   UNL     1       9.202   2.262  -6.148  0.00  0.00    +0.001 A 
ATOM     13  C   UNL     1      10.254   2.268  -7.053  0.00  0.00    +0.002 A 
ATOM     14  C   UNL     1      10.569   1.121  -7.780  0.00  0.00    +0.026 A 
ATOM     15  C   UNL     1       9.716   0.018  -7.654  0.00  0.00    +0.047 A 
ATOM     16  N   UNL     1       9.790  -1.214  -8.247  0.00  0.00    -0.360 N 
ATOM     17  H   UNL     1      10.542  -1.523  -8.849  0.00  0.00    +0.165 HD
ATOM     18  C   UNL     1       8.648  -1.918  -7.985  0.00  0.00    +0.092 A 
ENDBRANCH   8   9
BRANCH   1  26
ATOM     19  N   UNL     1       4.737   0.829  -3.172  0.00  0.00    -0.346 N 
ATOM     20  C   UNL     1       4.754   1.926  -4.011  0.00  0.00    +0.050 A 
ATOM     21  C   UNL     1       4.472   3.277  -3.745  0.00  0.00    +0.026 A 
ATOM     22  C   UNL     1       4.562   4.191  -4.796  0.00  0.00    +0.002 A 
ATOM     23  C   UNL     1       4.886   3.770  -6.077  0.00  0.00    +0.001 A 
ATOM     24  C   UNL     1       5.124   2.411  -6.346  0.00  0.00    +0.010 A 
ATOM     25  C   UNL     1       5.086   1.462  -5.295  0.00  0.00    +0.008 A 
ATOM     26  C   UNL     1       5.320   0.047  -5.179  0.00  0.00    +0.013 A 
ATOM     27  C   UNL     1       5.217  -0.270  -3.837  0.00  0.00    +0.095 A 
BRANCH  19  28
ATOM     28  C   UNL     1       4.281   0.832  -1.780  0.00  0.00    +0.123 C 
BRANCH  28  29
ATOM     29  C   UNL     1       2.753   0.892  -1.649  0.00  0.00    +0.040 C 
BRANCH  29  30
ATOM     30  C   UNL     1       2.152   0.961  -0.224  0.00  0.00    +0.058 C 
ATOM     31  N   UNL     1       2.413  -0.128   0.701  0.00  0.00    -0.302 NA
ATOM     32  C   UNL     1       2.092  -1.484   0.347  0.00  0.00    +0.105 C 
ATOM     33  C   UNL     1       3.550   0.129   1.559  0.00  0.00    +0.084 C 
ATOM     34  C   UNL     1       3.821   1.620   1.398  0.00  0.00    +0.017 C 
ATOM     35  C   UNL     1       2.632   2.151   0.607  0.00  0.00    +0.020 C 
ENDBRANCH  29  30
ENDBRANCH  28  29
ENDBRANCH  19  28
ENDBRANCH   1  26
TORSDOF 5
