REMARK  Name = 
REMARK  9 active torsions:
REMARK  status: ('A' for Active; 'I' for Inactive)
REMARK    1  A    between atoms: C_1  and  C_2
REMARK    2  A    between atoms: C_2  and  O_3
REMARK    3  A    between atoms: C_2  and  C_4
REMARK    4  A    between atoms: C_2  and  C_17
REMARK    5  A    between atoms: C_4  and  O_5
REMARK    6  A    between atoms: O_5  and  C_6
REMARK    7  A    between atoms: N_19  and  C_20
REMARK    8  A    between atoms: C_23  and  N_30
REMARK    9  A    between atoms: C_24  and  C_26
REMARK                            x       y       z     vdW  Elec       q    Type
REMARK                         _______ _______ _______ _____ _____    ______ ____
ROOT
ATOM      1  C   UNL     1       3.115   1.484   0.028  0.00  0.00    +0.055 C 
ATOM      2  C   UNL     1       2.635   0.030   0.023  0.00  0.00    +0.173 C 
ENDROOT
BRANCH   2   3
ATOM      3  C   UNL     1       3.202  -0.720  -1.204  0.00  0.00    +0.252 C 
ATOM      4  N   UNL     1       2.733  -0.242  -2.418  0.00  0.00    -0.283 N 
ATOM      5  H   UNL     1       1.819   0.200  -2.389  0.00  0.00    +0.155 HD
ATOM      6  O   UNL     1       3.936  -1.700  -1.098  0.00  0.00    -0.272 OA
BRANCH   4   7
ATOM      7  C   UNL     1       3.234  -0.710  -3.644  0.00  0.00    +0.034 A 
ATOM      8  C   UNL     1       2.351  -0.918  -4.706  0.00  0.00    +0.042 A 
ATOM      9  C   UNL     1       2.809  -1.422  -5.943  0.00  0.00    +0.133 A 
ATOM     10  C   UNL     1       4.186  -1.641  -6.086  0.00  0.00    +0.285 A 
ATOM     11  C   UNL     1       5.086  -1.406  -5.041  0.00  0.00    +0.087 A 
ATOM     12  C   UNL     1       4.601  -0.956  -3.816  0.00  0.00    +0.030 A 
BRANCH   9  13
ATOM     13  C   UNL     1       1.786  -1.711  -7.007  0.00  0.00    +0.424 C 
ATOM     14  F   UNL     1       0.993  -0.626  -7.240  0.00  0.00    -0.166 F 
ATOM     15  F   UNL     1       0.937  -2.707  -6.632  0.00  0.00    -0.166 F 
ATOM     16  F   UNL     1       2.277  -2.065  -8.218  0.00  0.00    -0.166 F 
ENDBRANCH   9  13
BRANCH  10  17
ATOM     17  N   UNL     1       4.752  -2.115  -7.333  0.00  0.00    +0.080 N 
ATOM     18  O   UNL     1       4.546  -3.297  -7.627  0.00  0.00    +0.041 OA
ATOM     19  O   UNL     1       5.425  -1.302  -7.978  0.00  0.00    -0.576 OA
ENDBRANCH  10  17
ENDBRANCH   4   7
ENDBRANCH   2   3
BRANCH   2  20
ATOM     20  O   UNL     1       1.202   0.055  -0.085  0.00  0.00    -0.376 OA
ATOM     21  H   UNL     1       0.884  -0.865  -0.035  0.00  0.00    +0.211 HD
ENDBRANCH   2  20
BRANCH   2  22
ATOM     22  C   UNL     1       3.081  -0.688   1.318  0.00  0.00    +0.273 C 
BRANCH  22  23
ATOM     23  O   UNL     1       4.512  -0.662   1.409  0.00  0.00    -0.483 OA
BRANCH  23  24
ATOM     24  C   UNL     1       5.078  -1.486   2.342  0.00  0.00    +0.197 A 
ATOM     25  C   UNL     1       4.634  -1.588   3.659  0.00  0.00    +0.206 A 
ATOM     26  F   UNL     1       3.539  -0.932   4.067  0.00  0.00    -0.198 F 
ATOM     27  C   UNL     1       5.352  -2.336   4.590  0.00  0.00    +0.200 A 
ATOM     28  F   UNL     1       4.928  -2.396   5.860  0.00  0.00    -0.199 F 
ATOM     29  C   UNL     1       6.517  -2.997   4.217  0.00  0.00    +0.199 A 
ATOM     30  F   UNL     1       7.211  -3.694   5.125  0.00  0.00    -0.199 F 
ATOM     31  C   UNL     1       6.962  -2.918   2.903  0.00  0.00    +0.200 A 
ATOM     32  F   UNL     1       8.086  -3.550   2.541  0.00  0.00    -0.199 F 
ATOM     33  C   UNL     1       6.251  -2.159   1.976  0.00  0.00    +0.206 A 
ATOM     34  F   UNL     1       6.710  -2.078   0.719  0.00  0.00    -0.198 F 
ENDBRANCH  23  24
ENDBRANCH  22  23
ENDBRANCH   2  22
TORSDOF 8
