REMARK  Name = 
REMARK  7 active torsions:
REMARK  status: ('A' for Active; 'I' for Inactive)
REMARK    1  A    between atoms: C_1  and  N_2
REMARK    2  A    between atoms: C_3  and  C_5
REMARK    3  A    between atoms: C_6  and  N_7
REMARK    4  A    between atoms: N_11  and  C_12
REMARK    5  A    between atoms: C_15  and  N_20
REMARK    6  A    between atoms: C_17  and  O_18
REMARK    7  A    between atoms: O_18  and  C_19
REMARK                            x       y       z     vdW  Elec       q    Type
REMARK                         _______ _______ _______ _____ _____    ______ ____
ROOT
ATOM      1  N   UNL     1       4.563   2.100   1.978  0.00  0.00    -0.298 N 
ATOM      2  H   UNL     1       4.117   2.934   1.596  0.00  0.00    +0.154 HD
ATOM      3  C   UNL     1       5.027   2.292   3.295  0.00  0.00    +0.147 A 
ATOM      4  C   UNL     1       5.319   1.227   4.142  0.00  0.00    +0.099 A 
ATOM      5 CL   UNL     1       5.245  -0.448   3.756  0.00  0.00    -0.078 Cl
ATOM      6  C   UNL     1       5.592   1.564   5.441  0.00  0.00    +0.137 A 
ATOM      7  N   UNL     1       5.663   2.825   5.887  0.00  0.00    -0.221 NA
ATOM      8  C   UNL     1       5.502   3.817   5.006  0.00  0.00    +0.221 A 
ATOM      9  N   UNL     1       5.809   5.134   5.394  0.00  0.00    -0.281 N 
ATOM     10  H   UNL     1       5.754   5.734   4.582  0.00  0.00    +0.155 HD
ATOM     11  N   UNL     1       5.115   3.587   3.731  0.00  0.00    -0.198 NA
ENDROOT
BRANCH   1  17
ATOM     12  C   UNL     1       3.936   0.649   0.080  0.00  0.00    +0.058 A 
ATOM     13  C   UNL     1       4.287  -0.320  -0.881  0.00  0.00    +0.015 A 
ATOM     14  C   UNL     1       5.585  -0.805  -0.952  0.00  0.00    +0.001 A 
ATOM     15  C   UNL     1       6.552  -0.304  -0.088  0.00  0.00    +0.002 A 
ATOM     16  C   UNL     1       6.216   0.670   0.859  0.00  0.00    +0.024 A 
ATOM     17  C   UNL     1       4.900   1.157   0.977  0.00  0.00    +0.045 A 
BRANCH  12  21
ATOM     18  C   UNL     1       0.154   0.608  -0.126  0.00  0.00    +0.128 C 
ATOM     19  N   UNL     1       1.543   0.227  -0.153  0.00  0.00    -0.314 N 
ATOM     20  H   UNL     1       1.772  -0.761  -0.175  0.00  0.00    +0.149 HD
ATOM     21  C   UNL     1       2.535   1.153   0.107  0.00  0.00    +0.246 C 
ATOM     22  O   UNL     1       2.311   2.333   0.343  0.00  0.00    -0.270 OA
ENDBRANCH  12  21
ENDBRANCH   1  17
BRANCH   9  23
ATOM     23  C   UNL     1       6.720   5.594   6.383  0.00  0.00    +0.076 A 
ATOM     24  C   UNL     1       7.053   6.951   6.540  0.00  0.00    +0.143 A 
ATOM     25  C   UNL     1       8.055   7.347   7.461  0.00  0.00    +0.070 A 
ATOM     26  C   UNL     1       8.720   6.460   8.322  0.00  0.00    +0.033 A 
ATOM     27  C   UNL     1       8.305   5.136   8.227  0.00  0.00    +0.025 A 
ATOM     28  C   UNL     1       7.333   4.722   7.298  0.00  0.00    +0.029 A 
BRANCH  26  29
ATOM     29  N   UNL     1       9.717   6.860   9.185  0.00  0.00    -0.325 N 
ATOM     30  C   UNL     1       9.841   8.234   9.700  0.00  0.00    +0.133 C 
ATOM     31  C   UNL     1      11.264   8.749   9.442  0.00  0.00    +0.178 C 
ATOM     32  O   UNL     1      12.247   7.891  10.047  0.00  0.00    -0.377 OA
ATOM     33  C   UNL     1      12.141   6.560   9.513  0.00  0.00    +0.178 C 
ATOM     34  C   UNL     1      10.742   5.953   9.741  0.00  0.00    +0.133 C 
ENDBRANCH  26  29
BRANCH  24  35
ATOM     35  O   UNL     1       6.589   8.000   5.785  0.00  0.00    -0.493 OA
ATOM     36  C   UNL     1       5.192   8.063   5.528  0.00  0.00    +0.277 C 
ENDBRANCH  24  35
ENDBRANCH   9  23
TORSDOF 5
