REMARK  Name = 
REMARK  7 active torsions:
REMARK  status: ('A' for Active; 'I' for Inactive)
REMARK    1  A    between atoms: C_1  and  C_2
REMARK    2  A    between atoms: C_5  and  N_6
REMARK    3  A    between atoms: N_6  and  C_7
REMARK    4  A    between atoms: C_9  and  C_13
REMARK    5  A    between atoms: C_20  and  N_21
REMARK    6  A    between atoms: N_21  and  S_22
REMARK    7  A    between atoms: S_22  and  C_23
REMARK                            x       y       z     vdW  Elec       q    Type
REMARK                         _______ _______ _______ _____ _____    ______ ____
ROOT
ATOM      1  N   UNL     1       6.618  -0.163  -0.459  0.00  0.00    -0.299 N 
ATOM      2  H   UNL     1       7.061   0.680  -0.797  0.00  0.00    +0.154 HD
ENDROOT
BRANCH   1   7
ATOM      3  C   UNL     1       0.921   0.455  -0.232  0.00  0.00    +0.046 C 
ATOM      4  C   UNL     1       2.405   0.240  -0.163  0.00  0.00    -0.028 A 
ATOM      5  C   UNL     1       2.990  -1.033  -0.148  0.00  0.00    +0.052 A 
ATOM      6  C   UNL     1       4.380  -1.164  -0.201  0.00  0.00    +0.048 A 
ATOM      7  C   UNL     1       5.223  -0.056  -0.309  0.00  0.00    +0.034 A 
ATOM      8  C   UNL     1       4.639   1.214  -0.261  0.00  0.00    +0.023 A 
ATOM      9  C   UNL     1       3.249   1.362  -0.201  0.00  0.00    +0.007 A 
BRANCH   5  10
ATOM     10  N   UNL     1       2.220  -2.240  -0.109  0.00  0.00    -0.221 N 
ATOM     11  H   UNL     1       1.370  -2.250  -0.670  0.00  0.00    +0.173 HD
BRANCH  10  12
ATOM     12  S   UNL     1       1.948  -2.978   1.384  0.00  0.00    +0.040 S 
ATOM     13  O   UNL     1       0.790  -3.831   1.180  0.00  0.00    -0.155 OA
ATOM     14  O   UNL     1       1.954  -1.981   2.431  0.00  0.00    -0.155 OA
ATOM     15  C   UNL     1       3.365  -4.046   1.580  0.00  0.00    +0.218 C 
ENDBRANCH  10  12
ENDBRANCH   5  10
ENDBRANCH   1   7
BRANCH   1  16
ATOM     16  C   UNL     1       7.449  -1.301  -0.468  0.00  0.00    +0.127 A 
ATOM     17  N   UNL     1       7.088  -2.422   0.179  0.00  0.00    -0.221 NA
ATOM     18  C   UNL     1       7.879  -3.490   0.031  0.00  0.00    +0.223 A 
ATOM     19  N   UNL     1       8.987  -3.551  -0.710  0.00  0.00    -0.235 NA
ATOM     20  C   UNL     1       9.346  -2.419  -1.349  0.00  0.00    +0.076 A 
ATOM     21  C   UNL     1       8.602  -1.257  -1.233  0.00  0.00    +0.072 A 
BRANCH  20  22
ATOM     22  C   UNL     1      10.520  -2.529  -2.240  0.00  0.00    +0.001 A 
ATOM     23  C   UNL     1      10.814  -3.751  -2.875  0.00  0.00    +0.010 A 
ATOM     24  C   UNL     1      11.882  -3.875  -3.766  0.00  0.00    +0.001 A 
ATOM     25  C   UNL     1      12.686  -2.776  -4.042  0.00  0.00    +0.000 A 
ATOM     26  C   UNL     1      12.434  -1.559  -3.413  0.00  0.00    +0.001 A 
ATOM     27  C   UNL     1      11.366  -1.439  -2.518  0.00  0.00    +0.010 A 
ENDBRANCH  20  22
ENDBRANCH   1  16
TORSDOF 5
