REMARK  Name = 
REMARK  10 active torsions:
REMARK  status: ('A' for Active; 'I' for Inactive)
REMARK    1  A    between atoms: C_2  and  C_24
REMARK    2  A    between atoms: N_3  and  S_10
REMARK    3  A    between atoms: C_7  and  C_8
REMARK    4  A    between atoms: C_7  and  C_9
REMARK    5  A    between atoms: S_10  and  C_13
REMARK    6  A    between atoms: C_16  and  O_17
REMARK    7  A    between atoms: O_17  and  C_18
REMARK    8  A    between atoms: C_18  and  C_19
REMARK    9  A    between atoms: C_20  and  C_21
REMARK   10  A    between atoms: N_26  and  O_27
REMARK                            x       y       z     vdW  Elec       q    Type
REMARK                         _______ _______ _______ _____ _____    ______ ____
ROOT
ATOM      1  C   UNL     1       2.215  -0.023   0.021  0.00  0.00    +0.183 C 
ATOM      2  C   UNL     1       2.682   1.039  -1.047  0.00  0.00    +0.037 C 
ATOM      3  C   UNL     1       4.209   1.212  -1.160  0.00  0.00    +0.024 C 
ATOM      4  C   UNL     1       2.063   2.424  -0.749  0.00  0.00    +0.024 C 
ATOM      5  S   UNL     1       2.056   0.618  -2.733  0.00  0.00    -0.151 S 
ATOM      6  C   UNL     1       2.710  -1.058  -2.830  0.00  0.00    +0.087 C 
ATOM      7  C   UNL     1       2.141  -1.900  -1.706  0.00  0.00    +0.121 C 
ATOM      8  N   UNL     1       2.589  -1.496  -0.308  0.00  0.00    -0.163 NA
ENDROOT
BRANCH   1   9
ATOM      9  C   UNL     1       2.755   0.406   1.389  0.00  0.00    +0.256 C 
ATOM     10  N   UNL     1       4.073   0.095   1.621  0.00  0.00    -0.196 N 
ATOM     11  H   UNL     1       4.556  -0.655   1.136  0.00  0.00    +0.182 HD
ATOM     12  O   UNL     1       2.108   1.082   2.188  0.00  0.00    -0.272 OA
BRANCH  10  13
ATOM     13  O   UNL     1       4.621   0.529   2.847  0.00  0.00    -0.295 OA
ATOM     14  H   UNL     1       3.885   1.043   3.246  0.00  0.00    +0.241 HD
ENDBRANCH  10  13
ENDBRANCH   1   9
BRANCH   8  15
ATOM     15  S   UNL     1       1.816  -2.661   0.799  0.00  0.00    +0.062 S 
ATOM     16  O   UNL     1       1.902  -3.967   0.180  0.00  0.00    -0.153 OA
ATOM     17  O   UNL     1       0.537  -2.098   1.175  0.00  0.00    -0.153 OA
BRANCH  15  18
ATOM     18  C   UNL     1       2.851  -2.752   2.231  0.00  0.00    +0.106 A 
ATOM     19  C   UNL     1       4.125  -3.320   2.125  0.00  0.00    +0.032 A 
ATOM     20  C   UNL     1       4.934  -3.442   3.264  0.00  0.00    +0.047 A 
ATOM     21  C   UNL     1       4.464  -3.009   4.509  0.00  0.00    +0.122 A 
ATOM     22  C   UNL     1       3.167  -2.494   4.608  0.00  0.00    +0.047 A 
ATOM     23  C   UNL     1       2.352  -2.378   3.480  0.00  0.00    +0.032 A 
BRANCH  21  24
ATOM     24  O   UNL     1       5.170  -2.992   5.685  0.00  0.00    -0.480 OA
BRANCH  24  25
ATOM     25  C   UNL     1       6.284  -3.871   5.770  0.00  0.00    +0.317 C 
BRANCH  25  26
ATOM     26  C   UNL     1       7.073  -3.628   7.047  0.00  0.00    -0.062 C 
ATOM     27  C   UNL     1       7.750  -3.420   8.142  0.00  0.00    -0.102 C 
ATOM     28  C   UNL     1       8.539  -3.177   9.418  0.00  0.00    +0.106 C 
ENDBRANCH  25  26
ENDBRANCH  24  25
ENDBRANCH  21  24
ENDBRANCH  15  18
ENDBRANCH   8  15
TORSDOF 7
