REMARK  Name = 
REMARK  11 active torsions:
REMARK  status: ('A' for Active; 'I' for Inactive)
REMARK    1  A    between atoms: CA_2  and  CB_3
REMARK    2  A    between atoms: CA_2  and  N_10
REMARK    3  A    between atoms: CA_2  and  C_23
REMARK    4  A    between atoms: CB_3  and  CG_4
REMARK    5  A    between atoms: C_11  and  CA_13
REMARK    6  A    between atoms: CA_13  and  CB_15
REMARK    7  A    between atoms: CA_13  and  N_19
REMARK    8  A    between atoms: CB_15  and  CG_16
REMARK    9  A    between atoms: CG_16  and  CD1_17
REMARK   10  A    between atoms: CG_16  and  CD2_18
REMARK   11  A    between atoms: C_20  and  C_21
REMARK                            x       y       z     vdW  Elec       q    Type
REMARK                         _______ _______ _______ _____ _____    ______ ____
ROOT
ATOM      1  N   LEU A   1       2.235   1.197   3.927  0.00  0.00    -0.304 N 
ATOM      2  H   LEU A   1       2.323   0.637   3.084  0.00  0.00    +0.149 HD
ATOM      3  C   LEU A   1       2.295   2.564   3.850  0.00  0.00    +0.234 C 
ATOM      4  O   LEU A   1       1.995   3.289   4.800  0.00  0.00    -0.274 OA
ENDROOT
BRANCH   1   5
ATOM      5  CA  LEU A   1       1.811   0.485   5.128  0.00  0.00    +0.140 C 
BRANCH   5   6
ATOM      6  C   LEU A   1       2.272  -0.952   4.919  0.00  0.00    +0.245 C 
ATOM      7  O   LEU A   1       2.120  -1.563   3.862  0.00  0.00    -0.299 OA
ENDBRANCH   5   6
BRANCH   5   8
ATOM      8  CB  LEU A   1       0.294   0.566   5.314  0.00  0.00    +0.064 C 
BRANCH   8   9
ATOM      9  CG  LEU A   1      -0.199  -0.159   6.540  0.00  0.00    -0.045 A 
ATOM     10  CD2 LEU A   1      -0.552  -1.513   6.462  0.00  0.00    +0.004 A 
ATOM     11  CE2 LEU A   1      -1.000  -2.191   7.595  0.00  0.00    +0.000 A 
ATOM     12  CZ  LEU A   1      -1.106  -1.521   8.812  0.00  0.00    +0.000 A 
ATOM     13  CE1 LEU A   1      -0.761  -0.173   8.897  0.00  0.00    +0.000 A 
ATOM     14  CD1 LEU A   1      -0.304   0.506   7.767  0.00  0.00    +0.004 A 
ENDBRANCH   8   9
ENDBRANCH   5   8
ENDBRANCH   1   5
BRANCH   3  15
ATOM     15  CA  LEU A   1       2.788   3.128   2.501  0.00  0.00    +0.159 C 
BRANCH  15  16
ATOM     16  N   LEU A   1       2.411   4.544   2.496  0.00  0.00    -0.304 N 
ATOM     17  H   LEU A   1       2.249   4.971   3.405  0.00  0.00    +0.149 HD
ATOM     18  C   UNK A   0       2.109   5.226   1.348  0.00  0.00    +0.211 C 
ATOM     19  O   UNK A   0       2.165   4.719   0.230  0.00  0.00    -0.276 OA
ATOM     20  C   UNK A   0       1.699   6.660   1.559  0.00  0.00    +0.109 C 
ENDBRANCH  15  16
BRANCH  15  21
ATOM     21  CB  LEU A   1       4.311   2.985   2.319  0.00  0.00    +0.034 C 
BRANCH  21  22
ATOM     22  CG  LEU A   1       4.883   1.551   2.302  0.00  0.00    -0.015 C 
ATOM     23  CD2 LEU A   1       6.410   1.596   2.180  0.00  0.00    +0.007 C 
ATOM     24  CD1 LEU A   1       4.313   0.690   1.174  0.00  0.00    +0.007 C 
ENDBRANCH  21  22
ENDBRANCH  15  21
ENDBRANCH   3  15
TORSDOF 8
