REMARK  Name = 
REMARK  9 active torsions:
REMARK  status: ('A' for Active; 'I' for Inactive)
REMARK    1  A    between atoms: C_2  and  O_3
REMARK    2  A    between atoms: C_2  and  C_4
REMARK    3  A    between atoms: C_2  and  C_6
REMARK    4  A    between atoms: C_4  and  O_5
REMARK    5  A    between atoms: C_6  and  C_7
REMARK    6  A    between atoms: C_7  and  O_8
REMARK    7  A    between atoms: O_8  and  N_9
REMARK    8  A    between atoms: N_9  and  C_10
REMARK    9  A    between atoms: C_11  and  C_19
REMARK                            x       y       z     vdW  Elec       q    Type
REMARK                         _______ _______ _______ _____ _____    ______ ____
ROOT
ATOM      1  C   UNL     1       6.413  -4.004   0.581  0.00  0.00    +0.094 A 
ATOM      2  C   UNL     1       5.958  -5.348   0.563  0.00  0.00    +0.025 A 
ATOM      3  C   UNL     1       7.054  -6.145   0.891  0.00  0.00    +0.049 A 
ATOM      4  C   UNL     1       6.985  -7.545   0.888  0.00  0.00    +0.026 A 
ATOM      5  C   UNL     1       5.762  -8.136   0.545  0.00  0.00    +0.002 A 
ATOM      6  C   UNL     1       4.651  -7.361   0.220  0.00  0.00    +0.001 A 
ATOM      7  N   UNL     1       8.111  -5.294   1.154  0.00  0.00    -0.352 N 
ATOM      8  H   UNL     1       9.050  -5.599   1.383  0.00  0.00    +0.166 HD
ATOM      9  C   UNL     1       4.738  -5.967   0.221  0.00  0.00    +0.012 A 
ATOM     10  C   UNL     1       7.720  -3.976   1.022  0.00  0.00    +0.079 A 
ENDROOT
BRANCH  10  11
ATOM     11  C   UNL     1       8.647  -2.945   1.295  0.00  0.00    +0.073 C 
ATOM     12  C   UNL     1      10.128  -3.011   1.132  0.00  0.00    +0.270 C 
ATOM     13  O   UNL     1      10.732  -4.048   0.905  0.00  0.00    -0.268 OA
ATOM     14  N   UNL     1      10.666  -1.756   1.301  0.00  0.00    -0.176 NA
ATOM     15  C   UNL     1       9.661  -1.013   1.612  0.00  0.00    +0.065 A 
ATOM     16  C   UNL     1       9.653   0.451   1.820  0.00  0.00    +0.026 A 
ATOM     17  C   UNL     1       8.487   1.062   2.092  0.00  0.00    +0.002 A 
ATOM     18  C   UNL     1       7.244   0.333   2.264  0.00  0.00    +0.001 A 
ATOM     19  C   UNL     1       7.196  -0.999   2.114  0.00  0.00    +0.010 A 
ATOM     20  C   UNL     1       8.374  -1.708   1.716  0.00  0.00    +0.012 A 
ENDBRANCH  10  11
BRANCH   1  21
ATOM     21  N   UNL     1       5.663  -2.960   0.171  0.00  0.00    -0.263 N 
ATOM     22  H   UNL     1       4.694  -2.846   0.459  0.00  0.00    +0.194 HD
BRANCH  21  23
ATOM     23  O   UNL     1       6.216  -1.863  -0.490  0.00  0.00    -0.274 OA
BRANCH  23  24
ATOM     24  C   UNL     1       6.279  -2.163  -1.893  0.00  0.00    +0.195 C 
BRANCH  24  25
ATOM     25  C   UNL     1       4.877  -2.313  -2.478  0.00  0.00    +0.064 C 
BRANCH  25  26
ATOM     26  C   UNL     1       4.905  -2.631  -3.965  0.00  0.00    +0.142 C 
BRANCH  26  27
ATOM     27  O   UNL     1       5.512  -1.544  -4.668  0.00  0.00    -0.389 OA
ATOM     28  H   UNL     1       5.807  -1.905  -5.525  0.00  0.00    +0.210 HD
ENDBRANCH  26  27
BRANCH  26  29
ATOM     29  C   UNL     1       3.484  -2.836  -4.493  0.00  0.00    +0.187 C 
BRANCH  29  30
ATOM     30  O   UNL     1       3.527  -3.127  -5.889  0.00  0.00    -0.392 OA
ATOM     31  H   UNL     1       3.719  -2.282  -6.333  0.00  0.00    +0.210 HD
ENDBRANCH  29  30
ENDBRANCH  26  29
ENDBRANCH  25  26
ENDBRANCH  24  25
ENDBRANCH  23  24
ENDBRANCH  21  23
ENDBRANCH   1  21
TORSDOF 9
