REMARK  Name = 
REMARK  5 active torsions:
REMARK  status: ('A' for Active; 'I' for Inactive)
REMARK    1  A    between atoms: C_2  and  C_5
REMARK    2  A    between atoms: C_10  and  S_11
REMARK    3  A    between atoms: S_11  and  N_14
REMARK    4  A    between atoms: N_14  and  N_15
REMARK    5  A    between atoms: C_16  and  C_18
REMARK                            x       y       z     vdW  Elec       q    Type
REMARK                         _______ _______ _______ _____ _____    ______ ____
ROOT
ATOM      1  N   UNL     1       1.212  -1.708  -1.789  0.00  0.00    -0.108 NA
ATOM      2  H   UNL     1       1.892  -0.941  -1.866  0.00  0.00    +0.172 HD
ENDROOT
BRANCH   1   3
ATOM      3  N   UNL     1       0.208  -1.866  -2.837  0.00  0.00    -0.225 N 
ATOM      4  H   UNL     1      -0.402  -2.683  -2.803  0.00  0.00    +0.171 HD
ATOM      5  C   UNL     1       0.075  -0.928  -3.840  0.00  0.00    +0.294 C 
ATOM      6  O   UNL     1       0.774   0.083  -3.883  0.00  0.00    -0.265 OA
BRANCH   5   7
ATOM      7  C   UNL     1      -0.955  -1.240  -4.815  0.00  0.00    +0.192 A 
ATOM      8  O   UNL     1      -1.663  -2.413  -4.706  0.00  0.00    -0.450 OA
ATOM      9  C   UNL     1      -2.543  -2.454  -5.748  0.00  0.00    +0.136 A 
ATOM     10  C   UNL     1      -2.419  -1.312  -6.531  0.00  0.00    +0.022 A 
ATOM     11  C   UNL     1      -3.251  -1.170  -7.658  0.00  0.00    +0.031 A 
ATOM     12  C   UNL     1      -4.167  -2.191  -7.944  0.00  0.00    +0.042 A 
ATOM     13  C   UNL     1      -4.265  -3.328  -7.138  0.00  0.00    +0.023 A 
ATOM     14 CL   UNL     1      -5.194  -2.037  -9.319  0.00  0.00    -0.084 Cl
ATOM     15  C   UNL     1      -3.446  -3.484  -6.012  0.00  0.00    +0.048 A 
ATOM     16  C   UNL     1      -1.395  -0.538  -5.923  0.00  0.00    +0.063 A 
ENDBRANCH   5   7
ENDBRANCH   1   3
BRANCH   1  17
ATOM     17  S   UNL     1       1.348  -2.940  -0.654  0.00  0.00    +0.074 S 
ATOM     18  O   UNL     1       0.058  -3.015   0.004  0.00  0.00    -0.152 OA
ATOM     19  O   UNL     1       1.883  -4.106  -1.316  0.00  0.00    -0.152 OA
BRANCH  17  21
ATOM     20  C   UNL     1       3.913  -2.221   0.246  0.00  0.00    +0.081 A 
ATOM     21  C   UNL     1       2.551  -2.407   0.555  0.00  0.00    +0.118 A 
ATOM     22  C   UNL     1       2.115  -2.329   1.891  0.00  0.00    +0.029 A 
ATOM     23  C   UNL     1       3.020  -2.082   2.922  0.00  0.00    +0.002 A 
ATOM     24  C   UNL     1       4.368  -1.912   2.634  0.00  0.00    +0.001 A 
ATOM     25  C   UNL     1       4.809  -1.974   1.310  0.00  0.00    +0.014 A 
BRANCH  20  27
ATOM     26  F   UNL     1       5.775  -1.915  -1.230  0.00  0.00    -0.166 F 
ATOM     27  C   UNL     1       4.451  -2.241  -1.162  0.00  0.00    +0.419 C 
ATOM     28  F   UNL     1       4.344  -3.436  -1.786  0.00  0.00    -0.166 F 
ATOM     29  F   UNL     1       3.817  -1.325  -1.946  0.00  0.00    -0.166 F 
ENDBRANCH  20  27
ENDBRANCH  17  21
ENDBRANCH   1  17
TORSDOF 5
