REMARK  Name = 
REMARK  8 active torsions:
REMARK  status: ('A' for Active; 'I' for Inactive)
REMARK    1  A    between atoms: C_2  and  N_3
REMARK    2  A    between atoms: C_2  and  C_4
REMARK    3  A    between atoms: C_2  and  C_13
REMARK    4  A    between atoms: C_13  and  C_15
REMARK    5  A    between atoms: C_13  and  C_20
REMARK    6  A    between atoms: N_17  and  C_18
REMARK    7  A    between atoms: N_17  and  C_19
REMARK    8  A    between atoms: C_24  and  C_28
REMARK                            x       y       z     vdW  Elec       q    Type
REMARK                         _______ _______ _______ _____ _____    ______ ____
ROOT
ATOM      1  C   UNL     1       2.386   0.659   1.077  0.00  0.00    +0.104 C 
ENDROOT
BRANCH   1   2
ATOM      2  C   UNL     1       3.948   0.453   1.156  0.00  0.00    +0.003 C 
ATOM      3  C   UNL     1       4.532   0.849   2.541  0.00  0.00    +0.005 C 
ATOM      4  C   UNL     1       4.496   2.353   2.804  0.00  0.00    +0.008 C 
ATOM      5  C   UNL     1       5.168   3.199   1.712  0.00  0.00    +0.021 C 
ATOM      6  C   UNL     1       4.780   2.737   0.294  0.00  0.00    +0.008 C 
ATOM      7  C   UNL     1       4.751   1.217   0.085  0.00  0.00    +0.005 C 
BRANCH   5   8
ATOM      8  C   UNL     1       6.670   3.389   1.886  0.00  0.00    -0.026 A 
ATOM      9  C   UNL     1       7.611   2.273   1.747  0.00  0.00    +0.009 A 
ATOM     10  C   UNL     1       8.946   2.443   1.782  0.00  0.00    +0.048 A 
ATOM     11  C   UNL     1       9.484   3.740   1.971  0.00  0.00    +0.156 A 
ATOM     12  N   UNL     1       8.583   4.788   2.153  0.00  0.00    -0.220 N 
ATOM     13  N   UNL     1       9.287   5.935   2.324  0.00  0.00    -0.154 NA
ATOM     14  C   UNL     1      10.545   5.523   2.205  0.00  0.00    +0.246 A 
ATOM     15  N   UNL     1      10.718   4.188   1.996  0.00  0.00    -0.215 NA
ATOM     16  C   UNL     1       7.201   4.611   2.117  0.00  0.00    +0.118 A 
ENDBRANCH   5   8
ENDBRANCH   1   2
BRANCH   1  17
ATOM     17  C   UNL     1       1.760   0.030   2.330  0.00  0.00    +0.220 C 
ATOM     18  N   UNL     1       0.957   0.796   3.157  0.00  0.00    -0.307 N 
ATOM     19  C   UNL     1       0.553   0.231   4.439  0.00  0.00    +0.131 C 
ATOM     20  C   UNL     1       0.254   2.008   2.765  0.00  0.00    +0.131 C 
ATOM     21  O   UNL     1       2.026  -1.149   2.599  0.00  0.00    -0.275 OA
ENDBRANCH   1  17
BRANCH   1  22
ATOM     22  C   UNL     1       1.618   0.053  -0.151  0.00  0.00    +0.150 C 
BRANCH  22  23
ATOM     23  C   UNL     1       1.785   0.891  -1.452  0.00  0.00    +0.233 C 
ATOM     24  N   UNL     1       1.477   0.375  -2.694  0.00  0.00    -0.294 N 
ATOM     25  C   UNL     1       1.705   1.191  -3.891  0.00  0.00    +0.183 C 
ATOM     26  C   UNL     1       1.352   0.299  -5.074  0.00  0.00    +0.266 C 
ATOM     27  F   UNL     1       2.290   0.341  -6.044  0.00  0.00    -0.204 F 
ATOM     28  F   UNL     1       0.175   0.674  -5.627  0.00  0.00    -0.204 F 
ATOM     29  C   UNL     1       1.232  -1.099  -4.498  0.00  0.00    +0.096 C 
ATOM     30  C   UNL     1       0.759  -0.834  -3.074  0.00  0.00    +0.114 C 
ATOM     31  O   UNL     1       2.150   2.070  -1.377  0.00  0.00    -0.274 OA
ENDBRANCH  22  23
BRANCH  22  32
ATOM     32  N   UNL     1       1.897  -1.383  -0.352  0.00  0.00    -0.319 NA
ATOM     33  H   UNL     1       1.789  -1.858   0.555  0.00  0.00    +0.119 HD
ATOM     34  H   UNL     1       2.871  -1.519  -0.609  0.00  0.00    +0.119 HD
ENDBRANCH  22  32
ENDBRANCH   1  22
TORSDOF 6
