REMARK  Name = 
REMARK  17 active torsions:
REMARK  status: ('A' for Active; 'I' for Inactive)
REMARK    1  A    between atoms: C_2  and  O_3
REMARK    2  A    between atoms: C_2  and  C_4
REMARK    3  A    between atoms: C_2  and  C_12
REMARK    4  A    between atoms: C_4  and  C_5
REMARK    5  A    between atoms: C_6  and  C_7
REMARK    6  A    between atoms: C_7  and  C_8
REMARK    7  A    between atoms: C_8  and  C_9
REMARK    8  A    between atoms: C_9  and  C_10
REMARK    9  A    between atoms: C_10  and  C_11
REMARK   10  A    between atoms: C_13  and  C_14
REMARK   11  A    between atoms: C_14  and  C_15
REMARK   12  A    between atoms: C_15  and  C_17
REMARK   13  A    between atoms: C_17  and  C_18
REMARK   14  A    between atoms: C_18  and  C_19
REMARK   15  A    between atoms: C_19  and  C_20
REMARK   16  A    between atoms: C_20  and  C_21
REMARK   17  A    between atoms: C_21  and  O_22
REMARK                            x       y       z     vdW  Elec       q    Type
REMARK                         _______ _______ _______ _____ _____    ______ ____
ROOT
ATOM      1  C   UNL     1       2.438  -1.292   0.619  0.00  0.00    +0.000 C 
ATOM      2  C   UNL     1       1.750  -2.443   0.692  0.00  0.00    -0.021 C 
ENDROOT
BRANCH   2   3
ATOM      3  C   UNL     1       2.256  -3.681   1.368  0.00  0.00    +0.101 C 
BRANCH   3   4
ATOM      4  C   UNL     1       1.283  -4.119   2.454  0.00  0.00    +0.137 C 
ATOM      5  O   UNL     1       0.643  -3.313   3.132  0.00  0.00    -0.297 OA
BRANCH   4   6
ATOM      6  C   UNL     1       1.208  -5.610   2.728  0.00  0.00    +0.074 C 
BRANCH   6   7
ATOM      7  C   UNL     1      -0.174  -5.996   3.245  0.00  0.00    +0.008 C 
BRANCH   7   8
ATOM      8  C   UNL     1      -0.292  -7.498   3.485  0.00  0.00    +0.011 C 
BRANCH   8   9
ATOM      9  C   UNL     1      -1.689  -7.856   3.990  0.00  0.00    +0.120 C 
BRANCH   9  10
ATOM     10  C   UNL     1      -1.837  -9.335   4.247  0.00  0.00    +0.305 C 
ATOM     11  O   UNL     1      -0.968 -10.175   4.070  0.00  0.00    -0.251 OA
BRANCH  10  12
ATOM     12  O   UNL     1      -3.069  -9.657   4.702  0.00  0.00    -0.481 OA
ATOM     13  H   UNL     1      -3.668  -8.892   4.794  0.00  0.00    +0.295 HD
ENDBRANCH  10  12
ENDBRANCH   9  10
ENDBRANCH   8   9
ENDBRANCH   7   8
ENDBRANCH   6   7
ENDBRANCH   4   6
ENDBRANCH   3   4
ENDBRANCH   2   3
BRANCH   1  14
ATOM     14  C   UNL     1       1.957  -0.022  -0.037  0.00  0.00    +0.141 C 
BRANCH  14  15
ATOM     15  O   UNL     1       0.529  -0.022  -0.095  0.00  0.00    -0.387 OA
ATOM     16  H   UNL     1       0.215  -0.064   0.826  0.00  0.00    +0.210 HD
ENDBRANCH  14  15
BRANCH  14  17
ATOM     17  C   UNL     1       2.410   1.259   0.689  0.00  0.00    +0.062 C 
BRANCH  17  18
ATOM     18  C   UNL     1       3.901   1.487   0.666  0.00  0.00    -0.028 C 
ATOM     19  C   UNL     1       4.528   2.500   0.047  0.00  0.00    -0.031 C 
BRANCH  19  20
ATOM     20  C   UNL     1       3.821   3.573  -0.724  0.00  0.00    +0.027 C 
BRANCH  20  21
ATOM     21  C   UNL     1       4.773   4.621  -1.292  0.00  0.00    +0.004 C 
BRANCH  21  22
ATOM     22  C   UNL     1       3.979   5.690  -2.045  0.00  0.00    +0.000 C 
BRANCH  22  23
ATOM     23  C   UNL     1       4.893   6.759  -2.632  0.00  0.00    -0.003 C 
ATOM     24  C   UNL     1       4.094   7.812  -3.378  0.00  0.00    +0.004 C 
ENDBRANCH  22  23
ENDBRANCH  21  22
ENDBRANCH  20  21
ENDBRANCH  19  20
ENDBRANCH  17  18
ENDBRANCH  14  17
ENDBRANCH   1  14
TORSDOF 16
