REMARK  Name = 
REMARK  4 active torsions:
REMARK  status: ('A' for Active; 'I' for Inactive)
REMARK    1  A    between atoms: C_2  and  C_3
REMARK    2  A    between atoms: C_2  and  O_4
REMARK    3  A    between atoms: C_2  and  C_17
REMARK    4  A    between atoms: O_4  and  C_5
REMARK                            x       y       z     vdW  Elec       q    Type
REMARK                         _______ _______ _______ _____ _____    ______ ____
ROOT
ATOM      1  C   UNL     1       2.324  -1.049  -2.290  0.00  0.00    +0.134 A 
ATOM      2  C   UNL     1       3.075  -2.229  -2.344  0.00  0.00    +0.046 A 
ATOM      3  C   UNL     1       2.679  -3.267  -3.173  0.00  0.00    +0.006 A 
ATOM      4  C   UNL     1       1.562  -3.105  -3.984  0.00  0.00    +0.029 A 
ATOM      5  C   UNL     1       0.851  -1.916  -4.028  0.00  0.00    +0.081 A 
ATOM      6  N   UNL     1      -0.158  -1.857  -4.896  0.00  0.00    -0.214 NA
ATOM      7  C   UNL     1      -0.841  -0.720  -4.973  0.00  0.00    +0.215 A 
ATOM      8  N   UNL     1      -1.863  -0.668  -5.900  0.00  0.00    -0.327 N 
ATOM      9  H   UNL     1      -1.710  -1.372  -6.610  0.00  0.00    +0.145 HD
ATOM     10  H   UNL     1      -2.002   0.282  -6.211  0.00  0.00    +0.145 HD
ATOM     11  N   UNL     1      -0.569   0.377  -4.274  0.00  0.00    -0.199 NA
ATOM     12  C   UNL     1       0.443   0.300  -3.391  0.00  0.00    +0.133 A 
ATOM     13  N   UNL     1       0.634   1.469  -2.650  0.00  0.00    -0.342 N 
ATOM     14  H   UNL     1       0.051   2.200  -3.046  0.00  0.00    +0.144 HD
ATOM     15  H   UNL     1       1.614   1.715  -2.574  0.00  0.00    +0.144 HD
ATOM     16  C   UNL     1       1.226  -0.856  -3.192  0.00  0.00    +0.082 A 
ENDROOT
BRANCH   1  17
ATOM     17  O   UNL     1       2.662  -0.034  -1.418  0.00  0.00    -0.484 OA
BRANCH  17  18
ATOM     18  C   UNL     1       3.144  -0.452  -0.124  0.00  0.00    +0.201 C 
ATOM     19  C   UNL     1       4.592   0.016   0.039  0.00  0.00    +0.057 C 
BRANCH  18  20
ATOM     20  C   UNL     1       2.245   0.098   0.968  0.00  0.00    -0.006 A 
ATOM     21  C   UNL     1       1.548  -0.793   1.805  0.00  0.00    +0.007 A 
ATOM     22  C   UNL     1       0.747  -0.321   2.845  0.00  0.00    +0.002 A 
ATOM     23  C   UNL     1       0.630   1.051   3.062  0.00  0.00    +0.020 A 
ATOM     24  C   UNL     1       1.307   1.942   2.232  0.00  0.00    +0.041 A 
ATOM     25 CL   UNL     1       1.171   3.635   2.510  0.00  0.00    -0.084 Cl
ATOM     26  C   UNL     1       2.104   1.475   1.186  0.00  0.00    +0.027 A 
ENDBRANCH  18  20
ENDBRANCH  17  18
ENDBRANCH   1  17
TORSDOF 3
