REMARK  Name = 
REMARK  4 active torsions:
REMARK  status: ('A' for Active; 'I' for Inactive)
REMARK    1  A    between atoms: C_8  and  O_11
REMARK    2  A    between atoms: O_11  and  C_12
REMARK    3  A    between atoms: C_12  and  C_14
REMARK    4  A    between atoms: N_23  and  C_24
REMARK                            x       y       z     vdW  Elec       q    Type
REMARK                         _______ _______ _______ _____ _____    ______ ____
ROOT
ATOM      1  C   UNL     1       4.806  -3.206  -1.763  0.00  0.00    +0.342 C 
ATOM      2  O   UNL     1       3.915  -4.038  -1.645  0.00  0.00    -0.245 OA
ENDROOT
BRANCH   1   3
ATOM      3  C   UNL     1       6.194  -3.533  -2.051  0.00  0.00    +0.085 A 
ATOM      4  C   UNL     1       6.753  -4.838  -2.224  0.00  0.00    +0.033 A 
ATOM      5  C   UNL     1       6.256  -6.153  -2.232  0.00  0.00    +0.014 A 
ATOM      6  C   UNL     1       7.170  -7.191  -2.408  0.00  0.00    +0.020 A 
ATOM      7  C   UNL     1       8.514  -6.885  -2.561  0.00  0.00    +0.113 A 
ATOM      8  N   UNL     1       9.049  -5.642  -2.554  0.00  0.00    -0.237 NA
ATOM      9  C   UNL     1       8.125  -4.679  -2.383  0.00  0.00    +0.139 A 
ATOM     10  N   UNL     1       8.408  -3.345  -2.317  0.00  0.00    -0.345 N 
ATOM     11  H   UNL     1       9.343  -2.969  -2.385  0.00  0.00    +0.167 HD
ATOM     12  C   UNL     1       7.253  -2.636  -2.117  0.00  0.00    +0.100 A 
ENDBRANCH   1   3
BRANCH   1  13
ATOM     13  O   UNL     1       4.640  -1.879  -1.483  0.00  0.00    -0.458 OA
BRANCH  13  19
ATOM     14  C   UNL     1       2.116   0.134   0.005  0.00  0.00    +0.060 C 
ATOM     15  N   UNL     1       2.759   0.504   1.270  0.00  0.00    -0.299 NA
ATOM     16  C   UNL     1       2.501  -0.380   2.396  0.00  0.00    +0.105 C 
ATOM     17  C   UNL     1       4.166   0.659   0.899  0.00  0.00    +0.060 C 
ATOM     18  C   UNL     1       4.833  -0.677   0.570  0.00  0.00    +0.063 C 
ATOM     19  C   UNL     1       3.960  -1.655  -0.237  0.00  0.00    +0.180 C 
ATOM     20  C   UNL     1       4.050   1.543  -0.347  0.00  0.00    +0.020 C 
ATOM     21  C   UNL     1       2.490  -1.276  -0.465  0.00  0.00    +0.063 C 
ATOM     22  C   UNL     1       2.688   1.195  -0.939  0.00  0.00    +0.020 C 
ENDBRANCH  13  19
ENDBRANCH   1  13
TORSDOF 3
