REMARK  Name = 
REMARK  3 active torsions:
REMARK  status: ('A' for Active; 'I' for Inactive)
REMARK    1  A    between atoms: O_1  and  C_2
REMARK    2  A    between atoms: C_5  and  C_8
REMARK    3  A    between atoms: C_15  and  O_16
REMARK                            x       y       z     vdW  Elec       q    Type
REMARK                         _______ _______ _______ _____ _____    ______ ____
ROOT
ATOM      1  C   UNL     1       6.706   0.294  -0.705  0.00  0.00    +0.136 A 
ATOM      2  O   UNL     1       7.490  -0.810  -0.901  0.00  0.00    -0.455 OA
ATOM      3  C   UNL     1       8.751  -0.369  -1.163  0.00  0.00    +0.136 A 
ATOM      4  C   UNL     1       9.857  -1.178  -1.419  0.00  0.00    +0.050 A 
ATOM      5  C   UNL     1      11.065  -0.523  -1.689  0.00  0.00    +0.049 A 
ATOM      6  C   UNL     1      11.129   0.871  -1.692  0.00  0.00    +0.118 A 
ATOM      7  C   UNL     1      10.009   1.662  -1.422  0.00  0.00    +0.057 A 
ATOM      8  C   UNL     1       8.790   1.019  -1.148  0.00  0.00    +0.024 A 
ATOM      9  C   UNL     1       7.471   1.438  -0.835  0.00  0.00    +0.058 A 
ENDROOT
BRANCH   1  13
ATOM     10  C   UNL     1       2.599  -0.425   0.162  0.00  0.00    +0.117 A 
ATOM     11  C   UNL     1       3.211   0.730   0.634  0.00  0.00    +0.046 A 
ATOM     12  C   UNL     1       4.559   0.965   0.348  0.00  0.00    +0.015 A 
ATOM     13  C   UNL     1       5.302   0.044  -0.405  0.00  0.00    +0.018 A 
ATOM     14  C   UNL     1       4.659  -1.111  -0.876  0.00  0.00    +0.015 A 
ATOM     15  C   UNL     1       3.309  -1.346  -0.599  0.00  0.00    +0.046 A 
BRANCH  10  16
ATOM     16  O   UNL     1       1.286  -0.621   0.472  0.00  0.00    -0.507 OA
ATOM     17  H   UNL     1       1.018  -1.494   0.143  0.00  0.00    +0.292 HD
ENDBRANCH  10  16
ENDBRANCH   1  13
BRANCH   6  18
ATOM     18  O   UNL     1      12.298   1.521  -1.966  0.00  0.00    -0.507 OA
ATOM     19  H   UNL     1      12.990   0.862  -2.143  0.00  0.00    +0.292 HD
ENDBRANCH   6  18
TORSDOF 3
