REMARK  Name = 
REMARK  3 active torsions:
REMARK  status: ('A' for Active; 'I' for Inactive)
REMARK    1  A    between atoms: O_1  and  C_2
REMARK    2  A    between atoms: C_2  and  CA_4
REMARK    3  A    between atoms: C_7  and  O_8
REMARK                            x       y       z     vdW  Elec       q    Type
REMARK                         _______ _______ _______ _____ _____    ______ ____
ROOT
ATOM      1  CA  UNL     1       3.558   1.556   0.363  0.00  0.00    +0.135 A 
ATOM      2  N   UNL     1       3.574   2.947   0.398  0.00  0.00    -0.320 N 
ATOM      3  H   UNL     1       2.741   3.510   0.512  0.00  0.00    +0.169 HD
ATOM      4  C   UNL     1       4.859   3.444   0.470  0.00  0.00    +0.199 A 
ATOM      5  C   UNL     1       5.684   2.361   0.306  0.00  0.00    +0.054 A 
ATOM      6  C   UNL     1       7.091   2.282   0.321  0.00  0.00    +0.022 A 
ATOM      7  C   UNL     1       8.295   3.056   0.454  0.00  0.00    +0.008 A 
ATOM      8  C   UNL     1       8.633   4.425   0.579  0.00  0.00    +0.010 A 
ATOM      9  C   UNL     1       9.974   4.833   0.721  0.00  0.00    +0.001 A 
ATOM     10  C   UNL     1      11.008   3.909   0.753  0.00  0.00    +0.002 A 
ATOM     11  C   UNL     1      10.739   2.553   0.618  0.00  0.00    +0.026 A 
ATOM     12  C   UNL     1       9.409   2.141   0.456  0.00  0.00    +0.048 A 
ATOM     13  N   UNL     1       8.982   0.836   0.278  0.00  0.00    -0.352 N 
ATOM     14  H   UNL     1       9.545   0.001   0.244  0.00  0.00    +0.166 HD
ATOM     15  C   UNL     1       7.640   0.994   0.194  0.00  0.00    +0.073 A 
ATOM     16  C   UNL     1       6.852  -0.125  -0.027  0.00  0.00    +0.072 A 
ATOM     17  N   UNL     1       7.448  -1.326  -0.231  0.00  0.00    -0.352 N 
ATOM     18  H   UNL     1       8.423  -1.576  -0.258  0.00  0.00    +0.166 HD
ATOM     19  C   UNL     1       6.352  -2.152  -0.441  0.00  0.00    +0.048 A 
ATOM     20  C   UNL     1       6.383  -3.529  -0.700  0.00  0.00    +0.026 A 
ATOM     21  C   UNL     1       5.180  -4.195  -0.912  0.00  0.00    +0.002 A 
ATOM     22  C   UNL     1       3.979  -3.501  -0.903  0.00  0.00    +0.001 A 
ATOM     23  C   UNL     1       3.945  -2.120  -0.659  0.00  0.00    +0.010 A 
ATOM     24  C   UNL     1       5.127  -1.401  -0.376  0.00  0.00    +0.008 A 
ATOM     25  C   UNL     1       5.452  -0.047  -0.064  0.00  0.00    +0.019 A 
ATOM     26  C   UNL     1       4.878   1.212   0.170  0.00  0.00    +0.028 A 
ENDROOT
BRANCH   1  27
ATOM     27  C   UNL     1       2.358   0.814   0.608  0.00  0.00    +0.354 C 
ATOM     28  OXT UNL     1       2.214  -0.318   1.038  0.00  0.00    -0.243 OA
BRANCH  27  29
ATOM     29  O   UNL     1       1.266   1.585   0.395  0.00  0.00    -0.476 OA
ATOM     30  H   UNL     1       0.537   0.979   0.647  0.00  0.00    +0.295 HD
ENDBRANCH  27  29
ENDBRANCH   1  27
BRANCH   4  31
ATOM     31  O   UNL     1       5.022   4.737   0.682  0.00  0.00    -0.493 OA
ATOM     32  H   UNL     1       5.966   4.868   0.857  0.00  0.00    +0.294 HD
ENDBRANCH   4  31
TORSDOF 3
