REMARK  Name = 
REMARK  10 active torsions:
REMARK  status: ('A' for Active; 'I' for Inactive)
REMARK    1  A    between atoms: C_2  and  O_3
REMARK    2  A    between atoms: C_5  and  C_20
REMARK    3  A    between atoms: C_7  and  O_9
REMARK    4  A    between atoms: O_9  and  C_10
REMARK    5  A    between atoms: C_10  and  C_11
REMARK    6  A    between atoms: C_11  and  C_12
REMARK    7  A    between atoms: C_11  and  C_13
REMARK    8  A    between atoms: C_14  and  N_16
REMARK    9  A    between atoms: C_17  and  C_18
REMARK   10  A    between atoms: C_20  and  O_21
REMARK                            x       y       z     vdW  Elec       q    Type
REMARK                         _______ _______ _______ _____ _____    ______ ____
ROOT
ATOM      1  C   UNL     1       2.001   0.226  -0.234  0.00  0.00    +0.167 C 
ATOM      2  C   UNL     1       2.612  -1.128   0.164  0.00  0.00    +0.174 C 
ATOM      3  C   UNL     1       3.190  -1.140   1.617  0.00  0.00    +0.331 C 
ATOM      4  O   UNL     1       3.788   0.085   2.079  0.00  0.00    -0.455 OA
ATOM      5  C   UNL     1       3.191   1.259   1.679  0.00  0.00    +0.206 C 
ATOM      6  C   UNL     1       2.348   1.364   0.647  0.00  0.00    +0.059 C 
ENDROOT
BRANCH   2   7
ATOM      7  N   UNL     1       3.515  -1.716  -0.834  0.00  0.00    -0.304 N 
ATOM      8  H   UNL     1       3.195  -2.547  -1.316  0.00  0.00    +0.149 HD
ATOM      9  C   UNL     1       4.743  -1.200  -1.156  0.00  0.00    +0.210 C 
ATOM     10  O   UNL     1       5.214  -0.209  -0.616  0.00  0.00    -0.276 OA
ATOM     11  C   UNL     1       5.480  -1.997  -2.200  0.00  0.00    +0.109 C 
ENDBRANCH   2   7
BRANCH   1  12
ATOM     12  O   UNL     1       0.571   0.106  -0.251  0.00  0.00    -0.386 OA
ATOM     13  H   UNL     1       0.239   0.312   0.642  0.00  0.00    +0.210 HD
ENDBRANCH   1  12
BRANCH   5  14
ATOM     14  C   UNL     1       3.542   2.512   2.422  0.00  0.00    +0.372 C 
ATOM     15  O   UNL     1       3.062   3.613   2.219  0.00  0.00    -0.242 OA
BRANCH  14  16
ATOM     16  O   UNL     1       4.466   2.258   3.376  0.00  0.00    -0.475 OA
ATOM     17  H   UNL     1       4.723   1.316   3.351  0.00  0.00    +0.296 HD
ENDBRANCH  14  16
ENDBRANCH   5  14
BRANCH   3  18
ATOM     18  O   UNL     1       2.217  -1.582   2.591  0.00  0.00    -0.340 OA
BRANCH  18  19
ATOM     19  C   UNL     1       1.780  -2.925   2.377  0.00  0.00    +0.167 C 
BRANCH  19  20
ATOM     20  C   UNL     1       0.913  -3.443   3.527  0.00  0.00    +0.009 C 
ATOM     21  C   UNL     1       0.343  -4.807   3.127  0.00  0.00    +0.009 C 
ATOM     22  C   UNL     1      -0.220  -2.471   3.858  0.00  0.00    +0.009 C 
ENDBRANCH  19  20
ENDBRANCH  18  19
ENDBRANCH   3  18
TORSDOF 7
