REMARK  Name = 
REMARK  4 active torsions:
REMARK  status: ('A' for Active; 'I' for Inactive)
REMARK    1  A    between atoms: C_2  and  N_3
REMARK    2  A    between atoms: C_2  and  C_4
REMARK    3  A    between atoms: C_2  and  C_10
REMARK    4  A    between atoms: C_13  and  C_16
REMARK                            x       y       z     vdW  Elec       q    Type
REMARK                         _______ _______ _______ _____ _____    ______ ____
ROOT
ATOM      1  C   UNL     1       2.516   0.681  -1.237  0.00  0.00    -0.026 A 
ATOM      2  C   UNL     1       2.806  -0.091  -2.368  0.00  0.00    +0.006 A 
ATOM      3  C   UNL     1       3.024   0.522  -3.609  0.00  0.00    +0.010 A 
ATOM      4  C   UNL     1       2.969   1.920  -3.763  0.00  0.00    +0.003 A 
ATOM      5  C   UNL     1       2.734   2.681  -2.607  0.00  0.00    +0.010 A 
ATOM      6  C   UNL     1       2.510   2.077  -1.368  0.00  0.00    +0.006 A 
ENDROOT
BRANCH   4   7
ATOM      7  C   UNL     1       3.072   2.541  -5.089  0.00  0.00    +0.102 A 
ATOM      8  N   UNL     1       2.634   1.820  -6.168  0.00  0.00    -0.233 NA
ATOM      9  C   UNL     1       2.627   2.411  -7.380  0.00  0.00    +0.224 A 
ATOM     10  N   UNL     1       3.021   3.658  -7.699  0.00  0.00    -0.216 NA
ATOM     11  C   UNL     1       3.460   4.311  -6.613  0.00  0.00    +0.161 A 
ATOM     12  N   UNL     1       3.926   5.592  -6.573  0.00  0.00    -0.329 N 
ATOM     13  H   UNL     1       3.996   6.211  -7.366  0.00  0.00    +0.168 HD
ATOM     14  C   UNL     1       4.263   5.869  -5.278  0.00  0.00    +0.198 A 
ATOM     15  N   UNL     1       4.032   4.844  -4.485  0.00  0.00    -0.232 NA
ATOM     16  C   UNL     1       3.525   3.853  -5.306  0.00  0.00    +0.134 A 
ENDBRANCH   4   7
BRANCH   1  17
ATOM     17  C   UNL     1       2.122   0.020   0.081  0.00  0.00    +0.112 C 
BRANCH  17  18
ATOM     18  C   UNL     1       0.694   0.398   0.479  0.00  0.00    -0.026 A 
ATOM     19  C   UNL     1       0.387   1.136   1.633  0.00  0.00    +0.005 A 
ATOM     20  C   UNL     1      -0.924   1.548   1.892  0.00  0.00    +0.000 A 
ATOM     21  C   UNL     1      -1.950   1.220   1.010  0.00  0.00    +0.000 A 
ATOM     22  C   UNL     1      -1.674   0.460  -0.122  0.00  0.00    +0.000 A 
ATOM     23  C   UNL     1      -0.366   0.047  -0.381  0.00  0.00    +0.005 A 
ENDBRANCH  17  18
BRANCH  17  24
ATOM     24  N   UNL     1       3.130   0.313   1.109  0.00  0.00    -0.320 NA
ATOM     25  H   UNL     1       4.035   0.010   0.752  0.00  0.00    +0.119 HD
ATOM     26  H   UNL     1       3.206   1.324   1.199  0.00  0.00    +0.119 HD
ENDBRANCH  17  24
ENDBRANCH   1  17
TORSDOF 4
