REMARK  Name = 
REMARK  19 active torsions:
REMARK  status: ('A' for Active; 'I' for Inactive)
REMARK    1  A    between atoms: C_2  and  C_3
REMARK    2  A    between atoms: C_3  and  S_4
REMARK    3  A    between atoms: S_4  and  C_5
REMARK    4  A    between atoms: C_5  and  C_6
REMARK    5  A    between atoms: C_6  and  N_7
REMARK    6  A    between atoms: N_7  and  C_8
REMARK    7  A    between atoms: C_8  and  C_9
REMARK    8  A    between atoms: C_9  and  C_10
REMARK    9  A    between atoms: C_10  and  C_11
REMARK   10  A    between atoms: C_11  and  C_12
REMARK   11  A    between atoms: C_12  and  C_13
REMARK   12  A    between atoms: C_13  and  C_14
REMARK   13  A    between atoms: C_14  and  C_15
REMARK   14  A    between atoms: C_15  and  C_16
REMARK   15  A    between atoms: C_16  and  C_17
REMARK   16  A    between atoms: C_19  and  N_21
REMARK   17  A    between atoms: C_25  and  N_26
REMARK   18  A    between atoms: C_31  and  O_33
REMARK   19  A    between atoms: C_34  and  O_36
REMARK                            x       y       z     vdW  Elec       q    Type
REMARK                         _______ _______ _______ _____ _____    ______ ____
ROOT
ATOM      1  C   UNL     1      -1.981   1.935  -2.274  0.00  0.00    +0.162 C 
ATOM      2  C   UNL     1      -1.484   3.376  -2.186  0.00  0.00    +0.177 C 
ATOM      3  C   UNL     1      -2.632   4.223  -2.726  0.00  0.00    +0.195 C 
ATOM      4  C   UNL     1      -3.697   3.210  -3.171  0.00  0.00    +0.253 C 
ATOM      5  O   UNL     1      -3.398   1.969  -2.511  0.00  0.00    -0.347 OA
ENDROOT
BRANCH   4   6
ATOM      6  N   UNL     1      -5.080   3.562  -2.898  0.00  0.00    -0.286 N 
ATOM      7  C   UNL     1      -5.652   4.807  -2.964  0.00  0.00    +0.167 A 
ATOM      8  C   UNL     1      -7.014   4.584  -2.801  0.00  0.00    +0.147 A 
ATOM      9  C   UNL     1      -7.855   5.709  -2.864  0.00  0.00    +0.147 A 
ATOM     10  N   UNL     1      -7.287   6.927  -3.007  0.00  0.00    -0.219 NA
ATOM     11  C   UNL     1      -5.944   6.998  -3.137  0.00  0.00    +0.225 A 
ATOM     12  N   UNL     1      -7.275   3.246  -2.614  0.00  0.00    -0.231 NA
ATOM     13  N   UNL     1      -5.041   5.990  -3.158  0.00  0.00    -0.216 NA
ATOM     14  C   UNL     1      -6.097   2.664  -2.676  0.00  0.00    +0.203 A 
BRANCH   9  15
ATOM     15  N   UNL     1      -9.237   5.627  -2.780  0.00  0.00    -0.341 N 
ATOM     16  H   UNL     1      -9.665   6.495  -2.490  0.00  0.00    +0.144 HD
ATOM     17  H   UNL     1      -9.571   4.765  -2.365  0.00  0.00    +0.144 HD
ENDBRANCH   9  15
ENDBRANCH   4   6
BRANCH   3  18
ATOM     18  O   UNL     1      -2.164   5.046  -3.805  0.00  0.00    -0.385 OA
ATOM     19  H   UNL     1      -2.893   5.666  -4.003  0.00  0.00    +0.210 HD
ENDBRANCH   3  18
BRANCH   2  20
ATOM     20  O   UNL     1      -0.286   3.522  -2.952  0.00  0.00    -0.386 OA
ATOM     21  H   UNL     1      -0.467   4.252  -3.581  0.00  0.00    +0.210 HD
ENDBRANCH   2  20
BRANCH   1  22
ATOM     22  C   UNL     1      -1.661   1.082  -1.042  0.00  0.00    +0.103 C 
BRANCH  22  23
ATOM     23  S   UNL     1      -2.437   1.768   0.462  0.00  0.00    -0.157 S 
BRANCH  23  24
ATOM     24  C   UNL     1      -1.758   0.613   1.699  0.00  0.00    +0.084 C 
BRANCH  24  25
ATOM     25  C   UNL     1      -2.392   0.888   3.075  0.00  0.00    +0.091 C 
BRANCH  25  26
ATOM     26  N   UNL     1      -3.863   0.873   3.096  0.00  0.00    -0.315 NA
ATOM     27  H   UNL     1      -4.189   1.528   2.379  0.00  0.00    +0.122 HD
BRANCH  26  28
ATOM     28  C   UNL     1      -4.390  -0.454   2.790  0.00  0.00    +0.081 C 
BRANCH  28  29
ATOM     29  C   UNL     1      -5.914  -0.432   2.754  0.00  0.00    +0.015 C 
BRANCH  29  30
ATOM     30  C   UNL     1      -6.433  -1.827   2.413  0.00  0.00    +0.001 C 
BRANCH  30  31
ATOM     31  C   UNL     1      -7.954  -1.859   2.373  0.00  0.00    +0.000 C 
BRANCH  31  32
ATOM     32  C   UNL     1      -8.452  -3.266   2.054  0.00  0.00    +0.000 C 
BRANCH  32  33
ATOM     33  C   UNL     1      -9.976  -3.303   2.028  0.00  0.00    -0.000 C 
BRANCH  33  34
ATOM     34  C   UNL     1     -10.488  -4.705   1.714  0.00  0.00    -0.000 C 
BRANCH  34  35
ATOM     35  C   UNL     1     -12.015  -4.728   1.693  0.00  0.00    -0.000 C 
BRANCH  35  36
ATOM     36  C   UNL     1     -12.544  -6.124   1.379  0.00  0.00    -0.003 C 
ATOM     37  C   UNL     1     -14.063  -6.143   1.359  0.00  0.00    +0.004 C 
ENDBRANCH  35  36
ENDBRANCH  34  35
ENDBRANCH  33  34
ENDBRANCH  32  33
ENDBRANCH  31  32
ENDBRANCH  30  31
ENDBRANCH  29  30
ENDBRANCH  28  29
ENDBRANCH  26  28
ENDBRANCH  25  26
ENDBRANCH  24  25
ENDBRANCH  23  24
ENDBRANCH  22  23
ENDBRANCH   1  22
TORSDOF 18
