REMARK  Name = 
REMARK  6 active torsions:
REMARK  status: ('A' for Active; 'I' for Inactive)
REMARK    1  A    between atoms: C_6  and  N_8
REMARK    2  A    between atoms: N_11  and  C_12
REMARK    3  A    between atoms: C_12  and  C_13
REMARK    4  A    between atoms: N_17  and  C_18
REMARK    5  A    between atoms: C_18  and  C_19
REMARK    6  A    between atoms: C_22  and  C_25
REMARK                            x       y       z     vdW  Elec       q    Type
REMARK                         _______ _______ _______ _____ _____    ______ ____
ROOT
ATOM      1  C   UNL     1       7.955  -4.325  -1.371  0.00  0.00    +0.140 C 
ENDROOT
BRANCH   1   6
ATOM      2  N   UNL     1       5.760  -5.885   0.900  0.00  0.00    -0.269 N 
ATOM      3  C   UNL     1       5.866  -4.486   0.854  0.00  0.00    +0.234 C 
ATOM      4  O   UNL     1       5.939  -3.754   1.842  0.00  0.00    -0.274 OA
ATOM      5  C   UNL     1       5.742  -3.861  -0.549  0.00  0.00    +0.181 C 
ATOM      6  N   UNL     1       6.520  -4.565  -1.605  0.00  0.00    -0.287 NA
ATOM      7  C   UNL     1       6.096  -5.974  -1.573  0.00  0.00    +0.104 C 
ATOM      8  C   UNL     1       6.303  -6.661  -0.222  0.00  0.00    +0.129 C 
BRANCH   2  12
ATOM      9 CL   UNL     1       4.830 -10.338   3.365  0.00  0.00    -0.083 Cl
ATOM     10  C   UNL     1       4.652  -8.632   3.205  0.00  0.00    +0.043 A 
ATOM     11  C   UNL     1       5.377  -7.950   2.223  0.00  0.00    +0.043 A 
ATOM     12  C   UNL     1       5.196  -6.573   2.029  0.00  0.00    +0.038 A 
ATOM     13  C   UNL     1       4.325  -5.900   2.902  0.00  0.00    +0.023 A 
ATOM     14  C   UNL     1       3.609  -6.583   3.889  0.00  0.00    +0.003 A 
ATOM     15  C   UNL     1       3.758  -7.957   4.030  0.00  0.00    +0.020 A 
ENDBRANCH   2  12
ENDBRANCH   1   6
BRANCH   1  16
ATOM     16  C   UNL     1       8.888  -5.120  -2.218  0.00  0.00    +0.052 A 
ATOM     17  N   UNL     1       9.149  -4.979  -3.572  0.00  0.00    -0.328 N 
ATOM     18  C   UNL     1      10.086  -5.927  -3.895  0.00  0.00    +0.199 A 
ATOM     19  N   UNL     1      10.473  -6.621  -2.849  0.00  0.00    -0.244 NA
ATOM     20  C   UNL     1       9.742  -6.127  -1.808  0.00  0.00    +0.135 A 
BRANCH  17  21
ATOM     21  C   UNL     1       8.396  -4.219  -4.565  0.00  0.00    +0.158 C 
BRANCH  21  22
ATOM     22  C   UNL     1       9.136  -3.194  -5.413  0.00  0.00    -0.028 A 
ATOM     23  C   UNL     1       8.367  -2.521  -6.386  0.00  0.00    +0.006 A 
ATOM     24  C   UNL     1       8.888  -1.455  -7.131  0.00  0.00    +0.019 A 
ATOM     25  C   UNL     1      10.201  -1.034  -6.926  0.00  0.00    +0.052 A 
ATOM     26  C   UNL     1      11.006  -1.747  -6.030  0.00  0.00    +0.019 A 
ATOM     27  C   UNL     1      10.481  -2.820  -5.280  0.00  0.00    +0.006 A 
BRANCH  25  28
ATOM     28  C   UNL     1      10.687   0.159  -7.587  0.00  0.00    +0.099 C 
ATOM     29  N   UNL     1      11.046   1.140  -8.098  0.00  0.00    -0.191 NA
ENDBRANCH  25  28
ENDBRANCH  21  22
ENDBRANCH  17  21
ENDBRANCH   1  16
TORSDOF 6
