REMARK  Name = 
REMARK  5 active torsions:
REMARK  status: ('A' for Active; 'I' for Inactive)
REMARK    1  A    between atoms: C_4  and  C_5
REMARK    2  A    between atoms: C_5  and  O_6
REMARK    3  A    between atoms: C_9  and  C_11
REMARK    4  A    between atoms: C_14  and  O_15
REMARK    5  A    between atoms: C_20  and  C_21
REMARK                            x       y       z     vdW  Elec       q    Type
REMARK                         _______ _______ _______ _____ _____    ______ ____
ROOT
ATOM      1  C   UNL     1      -0.000  -0.000  -0.000  0.00  0.00    +0.048 C 
ATOM      2  C   UNL     1      -0.000  -0.000  -0.000  0.00  0.00    -0.071 C 
ATOM      3  C   UNL     1      -0.000  -0.000   0.000  0.00  0.00    +0.039 C 
ATOM      4  C   UNL     1      -0.000  -0.000  -0.000  0.00  0.00    -0.027 C 
ATOM      5  C   UNL     1      -0.000  -0.000  -0.000  0.00  0.00    +0.038 C 
ATOM      6  C   UNL     1      -0.000  -0.000  -0.000  0.00  0.00    +0.021 C 
ATOM      7  C   UNL     1      -0.000  -0.000  -0.000  0.00  0.00    +0.170 C 
ATOM      8  O   UNL     1      -0.000  -0.000   0.000  0.00  0.00    -0.371 OA
ATOM      9  C   UNL     1      -0.000  -0.000   0.000  0.00  0.00    +0.155 C 
ATOM     10  C   UNL     1      -0.000  -0.000   0.000  0.00  0.00    +0.022 C 
ENDROOT
BRANCH   9  11
ATOM     11  C   UNL     1      -0.000  -0.000   0.000  0.00  0.00    -0.018 A 
ATOM     12  C   UNL     1      -0.000  -0.000   0.000  0.00  0.00    +0.010 A 
ATOM     13  C   UNL     1      -0.000  -0.000  -0.000  0.00  0.00    +0.046 A 
ATOM     14  C   UNL     1      -0.000  -0.000  -0.000  0.00  0.00    +0.117 A 
ATOM     15  C   UNL     1      -0.000  -0.000  -0.000  0.00  0.00    +0.046 A 
ATOM     16  C   UNL     1      -0.000  -0.000  -0.000  0.00  0.00    +0.010 A 
BRANCH  14  17
ATOM     17  O   UNL     1      -0.000  -0.000   0.000  0.00  0.00    -0.507 OA
ATOM     18  H   UNL     1      -0.000  -0.000   0.000  0.00  0.00    +0.292 HD
ENDBRANCH  14  17
ENDBRANCH   9  11
BRANCH   6  19
ATOM     19  C   UNL     1      -0.000  -0.000  -0.000  0.00  0.00    +0.165 C 
BRANCH  19  20
ATOM     20  O   UNL     1      -0.000  -0.000  -0.000  0.00  0.00    -0.394 OA
ATOM     21  H   UNL     1      -0.000  -0.000  -0.000  0.00  0.00    +0.209 HD
ENDBRANCH  19  20
ENDBRANCH   6  19
TORSDOF 4
