REMARK  Name = 
REMARK  6 active torsions:
REMARK  status: ('A' for Active; 'I' for Inactive)
REMARK    1  A    between atoms: C_2  and  C_19
REMARK    2  A    between atoms: N_6  and  S_7
REMARK    3  A    between atoms: S_7  and  C_10
REMARK    4  A    between atoms: C_11  and  N_12
REMARK    5  A    between atoms: C_16  and  C_17
REMARK    6  A    between atoms: C_19  and  O_20
REMARK                            x       y       z     vdW  Elec       q    Type
REMARK                         _______ _______ _______ _____ _____    ______ ____
ROOT
ATOM      1  S   UNL     1       2.987  -2.647  -0.522  0.00  0.00    +0.063 S 
ATOM      2  O   UNL     1       3.400  -3.704   0.385  0.00  0.00    -0.153 OA
ATOM      3  O   UNL     1       3.951  -2.108  -1.461  0.00  0.00    -0.153 OA
ENDROOT
BRANCH   1   4
ATOM      4  C   UNL     1       1.545  -3.195  -1.411  0.00  0.00    +0.126 A 
ATOM      5  C   UNL     1       1.091  -2.420  -2.494  0.00  0.00    +0.035 A 
ATOM      6  C   UNL     1       0.094  -2.909  -3.366  0.00  0.00    -0.030 A 
ATOM      7  C   UNL     1      -0.293  -2.069  -4.553  0.00  0.00    +0.045 C 
ATOM      8  C   UNL     1      -0.462  -4.168  -3.105  0.00  0.00    +0.046 A 
ATOM      9 CL   UNL     1      -1.678  -4.876  -4.108  0.00  0.00    -0.083 Cl
ATOM     10  C   UNL     1      -0.032  -4.916  -2.004  0.00  0.00    +0.045 A 
ATOM     11  C   UNL     1       1.005  -4.471  -1.173  0.00  0.00    +0.053 A 
BRANCH  11  12
ATOM     12  N   UNL     1       1.281  -5.235  -0.027  0.00  0.00    -0.356 N 
ATOM     13  H   UNL     1       1.158  -6.237  -0.150  0.00  0.00    +0.142 HD
ATOM     14  H   UNL     1       2.196  -5.035   0.399  0.00  0.00    +0.142 HD
ENDBRANCH  11  12
ENDBRANCH   1   4
BRANCH   1  16
ATOM     15  C   UNL     1       3.627  -0.612   1.153  0.00  0.00    +0.188 C 
ATOM     16  N   UNL     1       2.521  -1.342   0.430  0.00  0.00    -0.163 NA
ATOM     17  C   UNL     1       1.396  -1.542   1.382  0.00  0.00    +0.110 C 
ATOM     18  C   UNL     1       1.878  -1.003   2.719  0.00  0.00    +0.019 C 
ATOM     19  C   UNL     1       2.894   0.052   2.326  0.00  0.00    +0.033 C 
BRANCH  15  20
ATOM     20  C   UNL     1       4.846  -1.402   1.655  0.00  0.00    +0.324 C 
ATOM     21  O   UNL     1       5.092  -1.613   2.837  0.00  0.00    -0.249 OA
BRANCH  20  22
ATOM     22  O   UNL     1       5.688  -1.806   0.678  0.00  0.00    -0.479 OA
ATOM     23  H   UNL     1       5.370  -1.670  -0.244  0.00  0.00    +0.295 HD
ENDBRANCH  20  22
ENDBRANCH  15  20
ENDBRANCH   1  16
TORSDOF 5
