REMARK  Name = 
REMARK  5 active torsions:
REMARK  status: ('A' for Active; 'I' for Inactive)
REMARK    1  A    between atoms: C_1  and  N_2
REMARK    2  A    between atoms: C_4  and  C_5
REMARK    3  A    between atoms: C_5  and  C_6
REMARK    4  A    between atoms: C_6  and  O_7
REMARK    5  A    between atoms: C_11  and  C_19
REMARK                            x       y       z     vdW  Elec       q    Type
REMARK                         _______ _______ _______ _____ _____    ______ ____
ROOT
ATOM      1  C   UNL     1       1.005   0.021   0.031  0.00  0.00    +0.149 C 
ATOM      2  N   UNL     1       2.450   0.004   0.101  0.00  0.00    -0.349 N 
ATOM      3  C   UNL     1       3.227  -1.135   0.125  0.00  0.00    +0.050 A 
ATOM      4  C   UNL     1       2.903  -2.489   0.213  0.00  0.00    +0.035 A 
ATOM      5  C   UNL     1       3.894  -3.474  -0.015  0.00  0.00    -0.001 A 
ATOM      6  C   UNL     1       5.214  -2.965  -0.151  0.00  0.00    +0.060 A 
ATOM      7  C   UNL     1       6.452  -3.672  -0.401  0.00  0.00    +0.260 A 
ATOM      8  O   UNL     1       6.734  -4.816  -0.736  0.00  0.00    -0.267 OA
ATOM      9  N   UNL     1       7.420  -2.723  -0.236  0.00  0.00    -0.289 N 
ATOM     10  H   UNL     1       8.390  -2.935  -0.391  0.00  0.00    +0.172 HD
ATOM     11  C   UNL     1       6.989  -1.435  -0.168  0.00  0.00    +0.260 A 
ATOM     12  O   UNL     1       7.751  -0.480  -0.220  0.00  0.00    -0.267 OA
ATOM     13  C   UNL     1       5.571  -1.577  -0.072  0.00  0.00    +0.062 A 
ATOM     14  C   UNL     1       4.503  -0.658   0.018  0.00  0.00    +0.016 A 
ATOM     15  C   UNL     1       4.591   0.737  -0.002  0.00  0.00    -0.019 A 
ATOM     16  C   UNL     1       3.252   1.120   0.038  0.00  0.00    +0.090 A 
ENDROOT
BRANCH   5  17
ATOM     17  C   UNL     1       3.549  -4.927  -0.086  0.00  0.00    +0.001 A 
ATOM     18  C   UNL     1       2.359  -5.437  -0.678  0.00  0.00    +0.049 A 
ATOM     19 CL   UNL     1       1.171  -4.455  -1.484  0.00  0.00    -0.083 Cl
ATOM     20  C   UNL     1       2.067  -6.813  -0.697  0.00  0.00    +0.020 A 
ATOM     21  C   UNL     1       2.974  -7.737  -0.200  0.00  0.00    +0.001 A 
ATOM     22  C   UNL     1       4.148  -7.281   0.378  0.00  0.00    +0.001 A 
ATOM     23  C   UNL     1       4.398  -5.904   0.479  0.00  0.00    +0.010 A 
ENDBRANCH   5  17
BRANCH  15  24
ATOM     24  C   UNL     1       5.731   1.708  -0.058  0.00  0.00    +0.065 C 
BRANCH  24  25
ATOM     25  C   UNL     1       6.228   1.983  -1.478  0.00  0.00    +0.160 C 
BRANCH  25  26
ATOM     26  O   UNL     1       5.235   2.657  -2.254  0.00  0.00    -0.395 OA
ATOM     27  H   UNL     1       4.465   2.061  -2.293  0.00  0.00    +0.209 HD
ENDBRANCH  25  26
ENDBRANCH  24  25
ENDBRANCH  15  24
TORSDOF 4
