REMARK  Name = 
REMARK  6 active torsions:
REMARK  status: ('A' for Active; 'I' for Inactive)
REMARK    1  A    between atoms: C_1  and  C_2
REMARK    2  A    between atoms: C_4  and  C_10
REMARK    3  A    between atoms: C_6  and  C_7
REMARK    4  A    between atoms: C_8  and  O_9
REMARK    5  A    between atoms: N_12  and  C_13
REMARK    6  A    between atoms: C_17  and  O_18
REMARK                            x       y       z     vdW  Elec       q    Type
REMARK                         _______ _______ _______ _____ _____    ______ ____
ROOT
ATOM      1  C   UNL     1       5.262   2.619   0.135  0.00  0.00    +0.248 C 
ATOM      2  N   UNL     1       6.492   2.814  -0.481  0.00  0.00    -0.281 N 
ATOM      3  H   UNL     1       6.907   2.029  -0.966  0.00  0.00    +0.155 HD
ATOM      4  O   UNL     1       4.619   3.476   0.733  0.00  0.00    -0.270 OA
ENDROOT
BRANCH   1  11
ATOM      5  C   UNL     1       1.054  -0.009   0.069  0.00  0.00    +0.047 C 
ATOM      6  C   UNL     1       2.557   0.002   0.044  0.00  0.00    -0.008 A 
ATOM      7  C   UNL     1       3.297  -1.185   0.045  0.00  0.00    +0.123 A 
ATOM      8  C   UNL     1       4.704  -1.169   0.046  0.00  0.00    -0.008 A 
ATOM      9  C   UNL     1       5.504  -2.441   0.076  0.00  0.00    +0.047 C 
ATOM     10  C   UNL     1       5.373   0.073   0.043  0.00  0.00    +0.020 A 
ATOM     11  C   UNL     1       4.644   1.268   0.042  0.00  0.00    +0.038 A 
ATOM     12  C   UNL     1       3.242   1.220   0.044  0.00  0.00    +0.020 A 
BRANCH   7  13
ATOM     13  O   UNL     1       2.583  -2.352   0.059  0.00  0.00    -0.506 OA
ATOM     14  H   UNL     1       3.182  -3.112   0.085  0.00  0.00    +0.292 HD
ENDBRANCH   7  13
ENDBRANCH   1  11
BRANCH   2  15
ATOM     15  C   UNL     1       7.190   4.050  -0.557  0.00  0.00    +0.036 A 
ATOM     16  C   UNL     1       8.426   4.073  -1.217  0.00  0.00    +0.042 A 
ATOM     17  C   UNL     1       9.155   5.267  -1.328  0.00  0.00    +0.062 A 
ATOM     18 BR   UNL     1      10.826   5.226  -2.227  0.00  0.00    -0.046 Br
ATOM     19  C   UNL     1       8.658   6.454  -0.787  0.00  0.00    +0.145 A 
ATOM     20  C   UNL     1       7.429   6.438  -0.133  0.00  0.00    +0.062 A 
ATOM     21 BR   UNL     1       6.700   8.024   0.611  0.00  0.00    -0.046 Br
ATOM     22  C   UNL     1       6.704   5.247  -0.019  0.00  0.00    +0.042 A 
BRANCH  19  23
ATOM     23  O   UNL     1       9.375   7.615  -0.901  0.00  0.00    -0.505 OA
ATOM     24  H   UNL     1       8.868   8.324  -0.465  0.00  0.00    +0.292 HD
ENDBRANCH  19  23
ENDBRANCH   2  15
TORSDOF 4
