REMARK  Name = 
REMARK  2 active torsions:
REMARK  status: ('A' for Active; 'I' for Inactive)
REMARK    1  A    between atoms: N_8  and  S_9
REMARK    2  A    between atoms: S_9  and  C_12
REMARK                            x       y       z     vdW  Elec       q    Type
REMARK                         _______ _______ _______ _____ _____    ______ ____
ROOT
ATOM      1 CL   UNL     1       2.074   1.784  -1.628  0.00  0.00    -0.083 Cl
ATOM      2  C   UNL     1       3.329   0.963  -0.778  0.00  0.00    +0.043 A 
ATOM      3  C   UNL     1       4.400   0.424  -1.501  0.00  0.00    +0.051 A 
ATOM      4  C   UNL     1       5.396  -0.248  -0.782  0.00  0.00    +0.113 A 
ATOM      5  C   UNL     1       5.263  -0.389   0.590  0.00  0.00    +0.157 A 
ATOM      6  O   UNL     1       6.302  -1.160   1.028  0.00  0.00    -0.424 OA
ATOM      7  C   UNL     1       7.048  -1.372  -0.099  0.00  0.00    +0.308 A 
ATOM      8  N   UNL     1       8.187  -2.191  -0.128  0.00  0.00    -0.169 N 
ATOM      9  H   UNL     1       8.193  -2.912   0.588  0.00  0.00    +0.178 HD
ATOM     10  C   UNL     1       4.228   0.153   1.344  0.00  0.00    +0.050 A 
ATOM     11  N   UNL     1       6.557  -0.847  -1.199  0.00  0.00    -0.194 NA
ATOM     12  C   UNL     1       3.251   0.848   0.617  0.00  0.00    +0.024 A 
ENDROOT
BRANCH   8  13
ATOM     13  S   UNL     1       9.599  -1.295   0.058  0.00  0.00    +0.077 S 
ATOM     14  O   UNL     1      10.648  -2.227   0.410  0.00  0.00    -0.150 OA
ATOM     15  O   UNL     1       9.325  -0.174   0.933  0.00  0.00    -0.150 OA
BRANCH  13  16
ATOM     16  C   UNL     1       9.962  -0.667  -1.553  0.00  0.00    +0.128 A 
ATOM     17  C   UNL     1      10.149  -1.506  -2.653  0.00  0.00    +0.068 A 
ATOM     18 CL   UNL     1      10.056  -3.227  -2.584  0.00  0.00    -0.082 Cl
ATOM     19  C   UNL     1      10.430  -0.940  -3.903  0.00  0.00    +0.023 A 
ATOM     20  C   UNL     1      10.533   0.446  -4.051  0.00  0.00    +0.021 A 
ATOM     21  C   UNL     1      10.362   1.273  -2.944  0.00  0.00    +0.043 A 
ATOM     22 CL   UNL     1      10.499   2.977  -3.120  0.00  0.00    -0.083 Cl
ATOM     23  C   UNL     1      10.081   0.726  -1.696  0.00  0.00    +0.050 A 
ENDBRANCH  13  16
ENDBRANCH   8  13
TORSDOF 2
