REMARK  Name = 
REMARK  2 active torsions:
REMARK  status: ('A' for Active; 'I' for Inactive)
REMARK    1  A    between atoms: C_3  and  N_4
REMARK    2  A    between atoms: C_7  and  C_11
REMARK                            x       y       z     vdW  Elec       q    Type
REMARK                         _______ _______ _______ _____ _____    ______ ____
ROOT
ATOM      1  N   UNL     1       1.560  -0.689   1.261  0.00  0.00    -0.311 N 
ATOM      2  H   UNL     1       1.321  -1.659   1.076  0.00  0.00    +0.149 HD
ATOM      3  C   UNL     1       2.958  -0.642   1.217  0.00  0.00    +0.216 A 
ATOM      4  N   UNL     1       3.571  -1.834   1.204  0.00  0.00    -0.223 NA
ATOM      5  C   UNL     1       4.903  -1.829   1.039  0.00  0.00    +0.116 A 
ATOM      6  C   UNL     1       5.641  -0.683   0.904  0.00  0.00    +0.048 A 
ATOM      7  C   UNL     1       4.937   0.498   0.998  0.00  0.00    +0.080 A 
ATOM      8  N   UNL     1       3.598   0.534   1.125  0.00  0.00    -0.214 NA
ENDROOT
BRANCH   7   9
ATOM      9  C   UNL     1       5.595   1.791   0.944  0.00  0.00    +0.047 A 
ATOM     10  C   UNL     1       5.094   3.026   0.469  0.00  0.00    +0.147 A 
ATOM     11  N   UNL     1       5.981   4.019   0.557  0.00  0.00    -0.156 NA
ATOM     12  N   UNL     1       7.050   3.448   1.132  0.00  0.00    -0.150 N 
ATOM     13  N   UNL     1       8.159   4.187   1.364  0.00  0.00    -0.157 NA
ATOM     14  C   UNL     1       9.104   3.513   1.930  0.00  0.00    +0.135 A 
ATOM     15  C   UNL     1       9.052   2.088   2.324  0.00  0.00    +0.024 A 
ATOM     16  C   UNL     1       7.917   1.427   2.066  0.00  0.00    +0.032 A 
ATOM     17  C   UNL     1       6.861   2.105   1.410  0.00  0.00    +0.097 A 
ENDBRANCH   7   9
BRANCH   1  19
ATOM     18  C   UNL     1       0.125   1.445   1.326  0.00  0.00    +0.024 C 
ATOM     19  C   UNL     1       0.817   0.354   0.562  0.00  0.00    +0.073 C 
ATOM     20  C   UNL     1      -0.684   0.393   0.624  0.00  0.00    +0.024 C 
ENDBRANCH   1  19
TORSDOF 2
