REMARK  Name = 
REMARK  9 active torsions:
REMARK  status: ('A' for Active; 'I' for Inactive)
REMARK    1  A    between atoms: C_1  and  C_2
REMARK    2  A    between atoms: C_4  and  O_5
REMARK    3  A    between atoms: O_5  and  C_6
REMARK    4  A    between atoms: C_6  and  C_7
REMARK    5  A    between atoms: C_7  and  N_8
REMARK    6  A    between atoms: N_8  and  C_9
REMARK    7  A    between atoms: C_17  and  N_18
REMARK    8  A    between atoms: N_18  and  S_19
REMARK    9  A    between atoms: S_19  and  C_22
REMARK                            x       y       z     vdW  Elec       q    Type
REMARK                         _______ _______ _______ _____ _____    ______ ____
ROOT
ATOM      1  C   UNL     1       0.961   0.119   0.026  0.00  0.00    +0.044 C 
ATOM      2  C   UNL     1       2.462   0.089   0.025  0.00  0.00    -0.045 A 
ATOM      3  C   UNL     1       3.141  -1.135   0.033  0.00  0.00    +0.028 A 
ATOM      4  C   UNL     1       4.536  -1.158   0.018  0.00  0.00    +0.052 A 
ATOM      5  C   UNL     1       5.265   0.030   0.004  0.00  0.00    +0.070 A 
ATOM      6  C   UNL     1       4.600   1.253  -0.022  0.00  0.00    +0.123 A 
ATOM      7  C   UNL     1       3.202   1.278   0.008  0.00  0.00    +0.049 A 
ENDROOT
BRANCH   4   8
ATOM      8  N   UNL     1       5.243  -2.388  -0.016  0.00  0.00    -0.216 N 
ATOM      9  H   UNL     1       5.079  -3.071   0.723  0.00  0.00    +0.174 HD
BRANCH   8  10
ATOM     10  S   UNL     1       5.688  -3.052  -1.500  0.00  0.00    +0.072 S 
ATOM     11  O   UNL     1       6.272  -4.345  -1.220  0.00  0.00    -0.150 OA
ATOM     12  O   UNL     1       6.415  -2.053  -2.264  0.00  0.00    -0.150 OA
BRANCH  10  13
ATOM     13  C   UNL     1       4.130  -3.326  -2.317  0.00  0.00    +0.108 A 
ATOM     14  C   UNL     1       3.427  -4.514  -2.088  0.00  0.00    +0.029 A 
ATOM     15  C   UNL     1       2.207  -4.722  -2.732  0.00  0.00    +0.002 A 
ATOM     16  C   UNL     1       1.702  -3.759  -3.607  0.00  0.00    +0.000 A 
ATOM     17  C   UNL     1       2.418  -2.586  -3.850  0.00  0.00    +0.002 A 
ATOM     18  C   UNL     1       3.639  -2.369  -3.212  0.00  0.00    +0.029 A 
ENDBRANCH  10  13
ENDBRANCH   8  10
ENDBRANCH   4   8
BRANCH   6  19
ATOM     19  O   UNL     1       5.203   2.478  -0.028  0.00  0.00    -0.490 OA
BRANCH  19  20
ATOM     20  C   UNL     1       6.475   2.577  -0.670  0.00  0.00    +0.247 C 
BRANCH  20  21
ATOM     21  C   UNL     1       6.379   3.643  -1.767  0.00  0.00    +0.142 C 
BRANCH  21  22
ATOM     22  N   UNL     1       7.633   3.756  -2.524  0.00  0.00    -0.340 N 
ATOM     23  H   UNL     1       8.420   3.970  -1.913  0.00  0.00    +0.146 HD
BRANCH  22  24
ATOM     24  C   UNL     1       7.932   2.909  -3.584  0.00  0.00    +0.038 A 
ATOM     25  C   UNL     1       9.273   2.696  -3.920  0.00  0.00    +0.092 A 
ATOM     26  C   UNL     1       9.607   1.915  -5.021  0.00  0.00    +0.309 A 
ATOM     27  N   UNL     1       8.640   1.387  -5.783  0.00  0.00    -0.217 N 
ATOM     28  H   UNL     1       8.899   0.819  -6.591  0.00  0.00    +0.452 HD
ATOM     29  C   UNL     1       7.341   1.591  -5.523  0.00  0.00    +0.309 A 
ATOM     30  C   UNL     1       6.964   2.359  -4.426  0.00  0.00    +0.092 A 
ENDBRANCH  22  24
ENDBRANCH  21  22
ENDBRANCH  20  21
ENDBRANCH  19  20
ENDBRANCH   6  19
TORSDOF 8
