REMARK  Name = 
REMARK  8 active torsions:
REMARK  status: ('A' for Active; 'I' for Inactive)
REMARK    1  A    between atoms: C_2  and  C_3
REMARK    2  A    between atoms: C_2  and  N_10
REMARK    3  A    between atoms: C_2  and  C_14
REMARK    4  A    between atoms: C_3  and  C_4
REMARK    5  A    between atoms: C_11  and  C_12
REMARK    6  A    between atoms: C_14  and  O_15
REMARK    7  A    between atoms: C_14  and  O_16
REMARK    8  A    between atoms: C_14  and  C_17
REMARK                            x       y       z     vdW  Elec       q    Type
REMARK                         _______ _______ _______ _____ _____    ______ ____
ROOT
ATOM      1  C   UNL     1       2.210  -0.048   0.145  0.00  0.00    +0.170 C 
ENDROOT
BRANCH   1   2
ATOM      2  N   UNL     1       2.632  -1.408  -0.284  0.00  0.00    -0.305 N 
ATOM      3  H   UNL     1       3.556  -1.716  -0.002  0.00  0.00    +0.149 HD
ATOM      4  C   UNL     1       1.930  -2.161  -1.184  0.00  0.00    +0.210 C 
ATOM      5  O   UNL     1       0.943  -1.718  -1.763  0.00  0.00    -0.276 OA
ATOM      6  C   UNL     1       2.502  -3.524  -1.456  0.00  0.00    +0.109 C 
ENDBRANCH   1   2
BRANCH   1   7
ATOM      7  C   UNL     1       2.755   1.056  -0.828  0.00  0.00    +0.355 C 
BRANCH   7   8
ATOM      8  C   UNL     1       2.139   2.464  -0.490  0.00  0.00    +0.470 C 
ATOM      9  F   UNL     1       1.391   2.958  -1.503  0.00  0.00    -0.164 F 
ATOM     10  F   UNL     1       3.139   3.361  -0.273  0.00  0.00    -0.164 F 
ATOM     11  F   UNL     1       1.356   2.464   0.610  0.00  0.00    -0.164 F 
ENDBRANCH   7   8
BRANCH   7  12
ATOM     12  O   UNL     1       2.486   0.719  -2.198  0.00  0.00    -0.498 OA
ATOM     13  H   UNL     1       1.944  -0.095  -2.210  0.00  0.00    +0.288 HD
ENDBRANCH   7  12
BRANCH   7  14
ATOM     14  O   UNL     1       4.196   1.043  -0.704  0.00  0.00    -0.498 OA
ATOM     15  H   UNL     1       4.488   1.940  -0.960  0.00  0.00    +0.288 HD
ENDBRANCH   7  14
ENDBRANCH   1   7
BRANCH   1  16
ATOM     16  C   UNL     1       2.675   0.156   1.614  0.00  0.00    +0.065 C 
BRANCH  16  17
ATOM     17  C   UNL     1       2.142  -0.859   2.606  0.00  0.00    -0.045 A 
ATOM     18  C   UNL     1       0.890  -1.472   2.461  0.00  0.00    +0.004 A 
ATOM     19  C   UNL     1       0.454  -2.437   3.372  0.00  0.00    +0.000 A 
ATOM     20  C   UNL     1       1.253  -2.780   4.452  0.00  0.00    +0.000 A 
ATOM     21  C   UNL     1       2.479  -2.148   4.644  0.00  0.00    +0.000 A 
ATOM     22  C   UNL     1       2.921  -1.188   3.728  0.00  0.00    +0.004 A 
ENDBRANCH  16  17
ENDBRANCH   1  16
TORSDOF 7
