REMARK  Name = 
REMARK  3 active torsions:
REMARK  status: ('A' for Active; 'I' for Inactive)
REMARK    1  A    between atoms: C_11  and  C_14
REMARK    2  A    between atoms: C_14  and  C_16
REMARK    3  A    between atoms: C_16  and  N_17
REMARK                            x       y       z     vdW  Elec       q    Type
REMARK                         _______ _______ _______ _____ _____    ______ ____
ROOT
ATOM      1  C   UNL     1       2.110   0.102  -0.015  0.00  0.00    -0.010 C 
ATOM      2  C   UNL     1       2.621  -1.341   0.138  0.00  0.00    +0.018 C 
ATOM      3  C   UNL     1       4.168  -1.371   0.147  0.00  0.00    +0.032 C 
ATOM      4  C   UNL     1       4.687  -0.491   1.306  0.00  0.00    +0.018 C 
ATOM      5  C   UNL     1       4.177   0.955   1.154  0.00  0.00    -0.010 C 
ATOM      6  C   UNL     1       4.679   1.538  -0.177  0.00  0.00    +0.007 C 
ATOM      7  C   UNL     1       4.162   0.690  -1.349  0.00  0.00    -0.010 C 
ATOM      8  C   UNL     1       4.669  -0.752  -1.186  0.00  0.00    +0.018 C 
ATOM      9  C   UNL     1       2.625   0.685  -1.340  0.00  0.00    +0.007 C 
ATOM     10  C   UNL     1       2.638   0.952   1.153  0.00  0.00    +0.007 C 
ENDROOT
BRANCH   3  11
ATOM     11  C   UNL     1       4.673  -2.820   0.267  0.00  0.00    +0.159 C 
ATOM     12  O   UNL     1       5.335  -3.342  -0.636  0.00  0.00    -0.295 OA
BRANCH  11  13
ATOM     13  C   UNL     1       4.310  -3.623   1.501  0.00  0.00    +0.197 C 
BRANCH  13  14
ATOM     14  N   UNL     1       5.474  -4.024   2.265  0.00  0.00    -0.330 N 
ATOM     15  C   UNL     1       6.468  -4.858   1.840  0.00  0.00    +0.199 A 
ATOM     16  N   UNL     1       7.354  -5.067   2.788  0.00  0.00    -0.244 NA
ATOM     17  C   UNL     1       6.909  -4.349   3.866  0.00  0.00    +0.130 A 
ATOM     18  C   UNL     1       5.735  -3.698   3.567  0.00  0.00    +0.107 A 
ENDBRANCH  13  14
ENDBRANCH  11  13
ENDBRANCH   3  11
TORSDOF 3
