REMARK  Name = 
REMARK  6 active torsions:
REMARK  status: ('A' for Active; 'I' for Inactive)
REMARK    1  A    between atoms: C_4  and  O_6
REMARK    2  A    between atoms: C_7  and  O_9
REMARK    3  A    between atoms: C_15  and  C_17
REMARK    4  A    between atoms: C_22  and  O_23
REMARK    5  A    between atoms: C_25  and  O_26
REMARK    6  A    between atoms: O_26  and  C_27
REMARK                            x       y       z     vdW  Elec       q    Type
REMARK                         _______ _______ _______ _____ _____    ______ ____
ROOT
ATOM      1  C   UNL     1      -0.000  -0.000  -0.000  0.00  0.00    +0.155 C 
ATOM      2  O   UNL     1      -0.000  -0.000  -0.000  0.00  0.00    -0.363 OA
ATOM      3  C   UNL     1      -0.000  -0.000   0.000  0.00  0.00    +0.179 C 
ATOM      4  C   UNL     1      -0.000  -0.000   0.000  0.00  0.00    +0.005 A 
ATOM      5  C   UNL     1      -0.000  -0.000  -0.000  0.00  0.00    +0.106 A 
ATOM      6  C   UNL     1      -0.000  -0.000   0.000  0.00  0.00    +0.135 A 
ATOM      7  C   UNL     1      -0.000  -0.000  -0.000  0.00  0.00    +0.091 A 
ATOM      8  C   UNL     1      -0.000  -0.000   0.000  0.00  0.00    +0.124 A 
ATOM      9  C   UNL     1      -0.000  -0.000   0.000  0.00  0.00    +0.343 C 
ATOM     10  O   UNL     1      -0.000  -0.000   0.000  0.00  0.00    -0.245 OA
ATOM     11  O   UNL     1      -0.000  -0.000  -0.000  0.00  0.00    -0.458 OA
ATOM     12  C   UNL     1      -0.000  -0.000   0.000  0.00  0.00    +0.177 C 
ATOM     13  C   UNL     1      -0.000  -0.000  -0.000  0.00  0.00    +0.052 C 
ATOM     14  C   UNL     1      -0.000  -0.000   0.000  0.00  0.00    +0.071 C 
ATOM     15  C   UNL     1      -0.000  -0.000   0.000  0.00  0.00    -0.020 C 
ATOM     16  C   UNL     1      -0.000  -0.000  -0.000  0.00  0.00    +0.045 C 
ATOM     17  C   UNL     1      -0.000  -0.000  -0.000  0.00  0.00    +0.187 C 
ATOM     18  O   UNL     1      -0.000  -0.000   0.000  0.00  0.00    -0.290 OA
ATOM     19  C   UNL     1      -0.000  -0.000  -0.000  0.00  0.00    +0.213 C 
ATOM     20  C   UNL     1      -0.000  -0.000   0.000  0.00  0.00    +0.153 C 
ATOM     21  C   UNL     1      -0.000  -0.000  -0.000  0.00  0.00    +0.053 A 
ATOM     22  C   UNL     1      -0.000  -0.000   0.000  0.00  0.00    +0.069 C 
ENDROOT
BRANCH   8  23
ATOM     23  O   UNL     1      -0.000  -0.000   0.000  0.00  0.00    -0.495 OA
ATOM     24  C   UNL     1      -0.000  -0.000  -0.000  0.00  0.00    +0.277 C 
ENDBRANCH   8  23
BRANCH   6  25
ATOM     25  O   UNL     1      -0.000  -0.000   0.000  0.00  0.00    -0.506 OA
ATOM     26  H   UNL     1       0.000   0.000   0.000  0.00  0.00    +0.292 HD
ENDBRANCH   6  25
BRANCH  19  27
ATOM     27  O   UNL     1      -0.000  -0.000  -0.000  0.00  0.00    -0.381 OA
ATOM     28  H   UNL     1       0.000   0.000   0.000  0.00  0.00    +0.210 HD
ENDBRANCH  19  27
BRANCH  20  29
ATOM     29  O   UNL     1      -0.000  -0.000  -0.000  0.00  0.00    -0.389 OA
ATOM     30  H   UNL     1       0.000   0.000   0.000  0.00  0.00    +0.210 HD
ENDBRANCH  20  29
TORSDOF 4
