REMARK  Name = 
REMARK  0 active torsions:
REMARK  status: ('A' for Active; 'I' for Inactive)
REMARK                            x       y       z     vdW  Elec       q    Type
REMARK                         _______ _______ _______ _____ _____    ______ ____
ROOT
ATOM      1 CL   UNL     1       1.224   0.315  -1.406  0.00  0.00    -0.081 Cl
ATOM      2  C   UNL     1       2.823   0.069  -0.880  0.00  0.00    +0.071 A 
ATOM      3  C   UNL     1       3.430  -1.148  -0.433  0.00  0.00    +0.077 A 
ATOM      4  C   UNL     1       3.054  -2.496  -0.185  0.00  0.00    +0.136 A 
ATOM      5  N   UNL     1       1.752  -2.971  -0.259  0.00  0.00    -0.308 N 
ATOM      6  C   UNL     1       0.728  -2.257   0.546  0.00  0.00    +0.163 C 
ATOM      7  C   UNL     1      -0.060  -3.128   1.469  0.00  0.00    +0.079 A 
ATOM      8  N   UNL     1      -1.024  -2.713   2.348  0.00  0.00    -0.239 NA
ATOM      9  C   UNL     1      -1.452  -3.819   2.919  0.00  0.00    +0.197 A 
ATOM     10  N   UNL     1      -0.812  -4.932   2.434  0.00  0.00    -0.348 N 
ATOM     11  H   UNL     1      -0.982  -5.886   2.721  0.00  0.00    +0.166 HD
ATOM     12  C   UNL     1       0.086  -4.492   1.507  0.00  0.00    +0.042 A 
ATOM     13  C   UNL     1       1.056  -5.258   0.690  0.00  0.00    +0.074 C 
ATOM     14  C   UNL     1       1.522  -4.411  -0.529  0.00  0.00    +0.113 C 
ATOM     15  N   UNL     1       4.060  -3.373   0.097  0.00  0.00    -0.220 NA
ATOM     16  C   UNL     1       5.325  -2.925   0.205  0.00  0.00    +0.225 A 
ATOM     17  N   UNL     1       5.772  -1.671   0.066  0.00  0.00    -0.218 NA
ATOM     18  C   UNL     1       4.776  -0.836  -0.260  0.00  0.00    +0.145 A 
ATOM     19  N   UNL     1       4.959   0.498  -0.489  0.00  0.00    -0.344 N 
ATOM     20  H   UNL     1       5.853   0.963  -0.417  0.00  0.00    +0.167 HD
ATOM     21  C   UNL     1       3.779   1.066  -0.874  0.00  0.00    +0.105 A 
ENDROOT
TORSDOF 0
