REMARK  Name = 
REMARK  11 active torsions:
REMARK  status: ('A' for Active; 'I' for Inactive)
REMARK    1  A    between atoms: C_2  and  C_3
REMARK    2  A    between atoms: C_2  and  P_19
REMARK    3  A    between atoms: C_2  and  S_23
REMARK    4  A    between atoms: C_3  and  C_4
REMARK    5  A    between atoms: C_4  and  C_5
REMARK    6  A    between atoms: C_5  and  C_6
REMARK    7  A    between atoms: C_10  and  O_11
REMARK    8  A    between atoms: O_11  and  C_12
REMARK    9  A    between atoms: P_19  and  O_20
REMARK   10  A    between atoms: P_19  and  O_21
REMARK   11  A    between atoms: S_23  and  O_24
REMARK                            x       y       z     vdW  Elec       q    Type
REMARK                         _______ _______ _______ _____ _____    ______ ____
ROOT
ATOM      1  C   UNL     1       2.217  -1.544  -1.804  0.00  0.00    +0.007 C 
ENDROOT
BRANCH   1   2
ATOM      2  C   UNL     1       2.517  -2.440  -0.606  0.00  0.00    +0.041 C 
BRANCH   2   3
ATOM      3  C   UNL     1       1.968  -1.934   0.722  0.00  0.00    +0.272 C 
BRANCH   3   4
ATOM      4  S   UNL     1       0.209  -2.001   0.908  0.00  0.00    +0.094 S 
ATOM      5  O   UNL     1      -0.397  -1.093  -0.033  0.00  0.00    -0.147 OA
ATOM      6  O   UNL     1      -0.124  -1.929   2.322  0.00  0.00    -0.147 OA
BRANCH   4   7
ATOM      7  O   UNL     1      -0.094  -3.509   0.420  0.00  0.00    -0.253 OA
ATOM      8  H   UNL     1      -0.118  -4.135   1.183  0.00  0.00    +0.244 HD
ENDBRANCH   4   7
ENDBRANCH   3   4
BRANCH   3   9
ATOM      9  P   UNL     1       2.496  -2.952   2.056  0.00  0.00    +0.354 P 
ATOM     10  O   UNL     1       2.014  -4.368   2.069  0.00  0.00    -0.257 OA
BRANCH   9  11
ATOM     11  O   UNL     1       2.261  -2.174   3.442  0.00  0.00    -0.323 OA
ATOM     12  H   UNL     1       1.321  -1.902   3.585  0.00  0.00    +0.220 HD
ENDBRANCH   9  11
BRANCH   9  13
ATOM     13  O   UNL     1       4.096  -2.866   1.922  0.00  0.00    -0.323 OA
ATOM     14  H   UNL     1       4.498  -3.677   1.558  0.00  0.00    +0.220 HD
ENDBRANCH   9  13
ENDBRANCH   3   9
ENDBRANCH   2   3
ENDBRANCH   1   2
BRANCH   1  15
ATOM     15  C   UNL     1       2.708  -2.175  -3.115  0.00  0.00    +0.035 C 
BRANCH  15  16
ATOM     16  C   UNL     1       2.082  -3.506  -3.469  0.00  0.00    -0.044 A 
ATOM     17  C   UNL     1       0.780  -3.813  -3.062  0.00  0.00    +0.050 A 
ATOM     18  C   UNL     1       0.071  -4.868  -3.632  0.00  0.00    +0.129 A 
ATOM     19  C   UNL     1       0.737  -5.773  -4.450  0.00  0.00    +0.046 A 
ATOM     20  C   UNL     1       2.077  -5.549  -4.779  0.00  0.00    +0.004 A 
ATOM     21  C   UNL     1       2.733  -4.399  -4.325  0.00  0.00    +0.004 A 
BRANCH  18  22
ATOM     22  O   UNL     1      -1.285  -5.021  -3.434  0.00  0.00    -0.456 OA
BRANCH  22  23
ATOM     23  C   UNL     1      -2.082  -3.885  -3.400  0.00  0.00    +0.128 A 
ATOM     24  C   UNL     1      -3.297  -4.002  -2.724  0.00  0.00    +0.046 A 
ATOM     25  C   UNL     1      -4.154  -2.901  -2.620  0.00  0.00    +0.004 A 
ATOM     26  C   UNL     1      -3.790  -1.671  -3.170  0.00  0.00    +0.000 A 
ATOM     27  C   UNL     1      -2.587  -1.549  -3.856  0.00  0.00    +0.004 A 
ATOM     28  C   UNL     1      -1.759  -2.662  -4.008  0.00  0.00    +0.046 A 
ENDBRANCH  22  23
ENDBRANCH  18  22
ENDBRANCH  15  16
ENDBRANCH   1  15
TORSDOF 11
