REMARK  Name = 
REMARK  6 active torsions:
REMARK  status: ('A' for Active; 'I' for Inactive)
REMARK    1  A    between atoms: O_1  and  C_2
REMARK    2  A    between atoms: C_2  and  C_4
REMARK    3  A    between atoms: C_4  and  O_5
REMARK    4  A    between atoms: C_6  and  C_8
REMARK    5  A    between atoms: C_9  and  C_10
REMARK    6  A    between atoms: C_10  and  C_12
REMARK                            x       y       z     vdW  Elec       q    Type
REMARK                         _______ _______ _______ _____ _____    ______ ____
ROOT
ATOM      1  C   UNL     1       5.396  -0.093  -0.053  0.00  0.00    +0.027 C 
ATOM      2  C   UNL     1       6.736  -0.048  -0.034  0.00  0.00    +0.053 C 
ENDROOT
BRANCH   1   4
ATOM      3  C   UNL     1       4.513   1.733  -1.540  0.00  0.00    +0.220 C 
ATOM      4  C   UNL     1       4.574   0.456  -1.113  0.00  0.00    +0.090 C 
ATOM      5 CL   UNL     1       3.529  -0.738  -1.853  0.00  0.00    -0.080 Cl
BRANCH   3   6
ATOM      6  C   UNL     1       5.309   2.834  -0.915  0.00  0.00    +0.373 C 
ATOM      7  O   UNL     1       5.794   2.846   0.200  0.00  0.00    -0.242 OA
BRANCH   6   8
ATOM      8  O   UNL     1       5.386   3.886  -1.768  0.00  0.00    -0.475 OA
ATOM      9  H   UNL     1       5.134   3.642  -2.683  0.00  0.00    +0.296 HD
ENDBRANCH   6   8
ENDBRANCH   3   6
BRANCH   3  10
ATOM     10  O   UNL     1       3.677   2.106  -2.597  0.00  0.00    -0.500 OA
ATOM     11  H   UNL     1       3.184   2.895  -2.298  0.00  0.00    +0.292 HD
ENDBRANCH   3  10
ENDBRANCH   1   4
BRANCH   2  12
ATOM     12  C   UNL     1       7.489  -0.649   1.102  0.00  0.00    +0.186 C 
ATOM     13  O   UNL     1       7.015  -1.537   1.799  0.00  0.00    -0.287 OA
BRANCH  12  14
ATOM     14  C   UNL     1       8.881  -0.158   1.323  0.00  0.00    +0.022 A 
ATOM     15  C   UNL     1       9.825  -1.027   1.880  0.00  0.00    +0.012 A 
ATOM     16  C   UNL     1      11.138  -0.595   2.082  0.00  0.00    +0.001 A 
ATOM     17  C   UNL     1      11.508   0.705   1.736  0.00  0.00    +0.000 A 
ATOM     18  C   UNL     1      10.564   1.581   1.203  0.00  0.00    +0.001 A 
ATOM     19  C   UNL     1       9.250   1.155   1.003  0.00  0.00    +0.012 A 
ENDBRANCH  12  14
ENDBRANCH   2  12
TORSDOF 6
