REMARK  Name = 
REMARK  8 active torsions:
REMARK  status: ('A' for Active; 'I' for Inactive)
REMARK    1  A    between atoms: O_1  and  C_2
REMARK    2  A    between atoms: C_5  and  C_6
REMARK    3  A    between atoms: C_6  and  C_7
REMARK    4  A    between atoms: C_7  and  C_8
REMARK    5  A    between atoms: C_8  and  C_10
REMARK    6  A    between atoms: C_11  and  O_12
REMARK    7  A    between atoms: C_14  and  O_15
REMARK    8  A    between atoms: C_17  and  O_18
REMARK                            x       y       z     vdW  Elec       q    Type
REMARK                         _______ _______ _______ _____ _____    ______ ____
ROOT
ATOM      1  C   UNL     1       8.733  -1.318  -0.936  0.00  0.00    +0.170 C 
ATOM      2  O   UNL     1       9.342  -0.290  -1.249  0.00  0.00    -0.292 OA
ENDROOT
BRANCH   1   3
ATOM      3  C   UNL     1       9.470  -2.618  -1.031  0.00  0.00    +0.100 A 
ATOM      4  C   UNL     1       9.117  -3.770  -0.310  0.00  0.00    +0.134 A 
ATOM      5  C   UNL     1       9.844  -4.956  -0.454  0.00  0.00    +0.091 A 
ATOM      6  C   UNL     1      10.929  -5.001  -1.321  0.00  0.00    +0.124 A 
ATOM      7  C   UNL     1      11.308  -3.879  -2.043  0.00  0.00    +0.091 A 
ATOM      8  C   UNL     1      10.586  -2.694  -1.888  0.00  0.00    +0.134 A 
BRANCH   4   9
ATOM      9  O   UNL     1       8.076  -3.765   0.574  0.00  0.00    -0.506 OA
ATOM     10  H   UNL     1       7.983  -4.647   0.976  0.00  0.00    +0.292 HD
ENDBRANCH   4   9
BRANCH   6  11
ATOM     11  O   UNL     1      11.602  -6.180  -1.425  0.00  0.00    -0.507 OA
ATOM     12  H   UNL     1      12.336  -6.067  -2.052  0.00  0.00    +0.292 HD
ENDBRANCH   6  11
BRANCH   8  13
ATOM     13  O   UNL     1      11.037  -1.633  -2.632  0.00  0.00    -0.506 OA
ATOM     14  H   UNL     1      10.566  -0.826  -2.322  0.00  0.00    +0.292 HD
ENDBRANCH   8  13
ENDBRANCH   1   3
BRANCH   1  15
ATOM     15  C   UNL     1       7.262  -1.301  -0.559  0.00  0.00    +0.084 C 
BRANCH  15  16
ATOM     16  C   UNL     1       6.690   0.116  -0.536  0.00  0.00    +0.043 C 
BRANCH  16  20
ATOM     17  C   UNL     1       2.513   0.144   0.509  0.00  0.00    +0.117 A 
ATOM     18  C   UNL     1       2.888   0.111  -0.828  0.00  0.00    +0.045 A 
ATOM     19  C   UNL     1       4.241   0.096  -1.169  0.00  0.00    +0.007 A 
ATOM     20  C   UNL     1       5.224   0.118  -0.169  0.00  0.00    -0.047 A 
ATOM     21  C   UNL     1       4.826   0.122   1.176  0.00  0.00    +0.007 A 
ATOM     22  C   UNL     1       3.471   0.139   1.517  0.00  0.00    +0.045 A 
BRANCH  17  23
ATOM     23  O   UNL     1       1.180   0.186   0.795  0.00  0.00    -0.507 OA
ATOM     24  H   UNL     1       1.075   0.308   1.753  0.00  0.00    +0.292 HD
ENDBRANCH  17  23
ENDBRANCH  16  20
ENDBRANCH  15  16
ENDBRANCH   1  15
TORSDOF 8
