REMARK  Name = 
REMARK  11 active torsions:
REMARK  status: ('A' for Active; 'I' for Inactive)
REMARK    1  A    between atoms: C_2  and  O_3
REMARK    2  A    between atoms: C_2  and  C_4
REMARK    3  A    between atoms: C_2  and  C_28
REMARK    4  A    between atoms: C_4  and  O_5
REMARK    5  A    between atoms: O_5  and  C_6
REMARK    6  A    between atoms: C_9  and  N_10
REMARK    7  A    between atoms: C_15  and  N_16
REMARK    8  A    between atoms: N_16  and  C_17
REMARK    9  A    between atoms: C_28  and  N_29
REMARK   10  A    between atoms: N_29  and  C_30
REMARK   11  A    between atoms: N_29  and  C_31
REMARK                            x       y       z     vdW  Elec       q    Type
REMARK                         _______ _______ _______ _____ _____    ______ ____
ROOT
ATOM      1  N   UNL     1       3.443  -7.914  -0.596  0.00  0.00    -0.299 N 
ATOM      2  H   UNL     1       3.328  -8.442   0.258  0.00  0.00    +0.154 HD
ATOM      3  C   UNL     1       4.144  -8.631  -1.595  0.00  0.00    +0.128 A 
ATOM      4  C   UNL     1       3.922  -9.994  -1.670  0.00  0.00    +0.087 A 
ATOM      5  C   UNL     1       4.491 -10.704  -2.712  0.00  0.00    +0.128 A 
ATOM      6  N   UNL     1       5.281 -10.109  -3.614  0.00  0.00    -0.221 NA
ATOM      7  C   UNL     1       5.466  -8.794  -3.452  0.00  0.00    +0.225 A 
ATOM      8  N   UNL     1       4.932  -8.021  -2.488  0.00  0.00    -0.221 NA
ENDROOT
BRANCH   1  12
ATOM      9  C   UNL     1       2.394  -3.832  -0.146  0.00  0.00    +0.121 A 
ATOM     10  C   UNL     1       2.341  -4.707   0.936  0.00  0.00    +0.047 A 
ATOM     11  C   UNL     1       2.723  -6.049   0.780  0.00  0.00    +0.027 A 
ATOM     12  C   UNL     1       3.192  -6.537  -0.451  0.00  0.00    +0.033 A 
ATOM     13  C   UNL     1       3.306  -5.626  -1.503  0.00  0.00    +0.027 A 
ATOM     14  C   UNL     1       2.921  -4.287  -1.352  0.00  0.00    +0.047 A 
BRANCH   9  15
ATOM     15  O   UNL     1       1.930  -2.558   0.066  0.00  0.00    -0.489 OA
BRANCH  15  16
ATOM     16  C   UNL     1       1.303  -1.972  -1.089  0.00  0.00    +0.261 C 
BRANCH  16  17
ATOM     17  C   UNL     1       0.675  -0.617  -0.724  0.00  0.00    +0.166 C 
BRANCH  17  18
ATOM     18  O   UNL     1      -0.318  -0.723   0.303  0.00  0.00    -0.387 OA
ATOM     19  H   UNL     1      -0.647  -1.638   0.293  0.00  0.00    +0.210 HD
ENDBRANCH  17  18
BRANCH  17  20
ATOM     20  C   UNL     1       0.095   0.096  -1.972  0.00  0.00    +0.118 C 
BRANCH  20  21
ATOM     21  N   UNL     1      -0.930  -0.633  -2.762  0.00  0.00    -0.306 NA
ATOM     22  C   UNL     1      -1.243   0.135  -3.975  0.00  0.00    +0.104 C 
ATOM     23  C   UNL     1      -2.165  -0.844  -2.000  0.00  0.00    +0.104 C 
ENDBRANCH  20  21
ENDBRANCH  17  20
ENDBRANCH  16  17
ENDBRANCH  15  16
ENDBRANCH   9  15
ENDBRANCH   1  12
BRANCH   5  24
ATOM     24  N   UNL     1       4.223 -12.085  -2.776  0.00  0.00    -0.295 N 
ATOM     25  H   UNL     1       4.567 -12.573  -1.955  0.00  0.00    +0.154 HD
BRANCH  24  26
ATOM     26  C   UNL     1       4.114 -12.923  -3.906  0.00  0.00    +0.104 A 
ATOM     27  C   UNL     1       3.622 -12.502  -5.147  0.00  0.00    +0.147 A 
ATOM     28  F   UNL     1       3.300 -11.218  -5.362  0.00  0.00    -0.203 F 
ATOM     29  C   UNL     1       3.367 -13.413  -6.178  0.00  0.00    +0.040 A 
ATOM     30  C   UNL     1       3.616 -14.773  -5.994  0.00  0.00    +0.006 A 
ATOM     31  C   UNL     1       4.145 -15.213  -4.785  0.00  0.00    +0.040 A 
ATOM     32  C   UNL     1       4.382 -14.294  -3.762  0.00  0.00    +0.147 A 
ATOM     33  F   UNL     1       4.866 -14.745  -2.593  0.00  0.00    -0.203 F 
ENDBRANCH  24  26
ENDBRANCH   5  24
TORSDOF 9
