REMARK  Name = 
REMARK  11 active torsions:
REMARK  status: ('A' for Active; 'I' for Inactive)
REMARK    1  A    between atoms: C_2  and  O_3
REMARK    2  A    between atoms: C_2  and  C_4
REMARK    3  A    between atoms: C_2  and  C_28
REMARK    4  A    between atoms: C_4  and  O_5
REMARK    5  A    between atoms: O_5  and  C_6
REMARK    6  A    between atoms: C_9  and  N_10
REMARK    7  A    between atoms: C_13  and  N_14
REMARK    8  A    between atoms: N_14  and  C_15
REMARK    9  A    between atoms: C_28  and  N_29
REMARK   10  A    between atoms: N_29  and  C_30
REMARK   11  A    between atoms: N_29  and  C_31
REMARK                            x       y       z     vdW  Elec       q    Type
REMARK                         _______ _______ _______ _____ _____    ______ ____
ROOT
ATOM      1  N   UNL     1       3.720   7.406   2.239  0.00  0.00    -0.284 N 
ATOM      2  H   UNL     1       4.722   7.440   2.362  0.00  0.00    +0.155 HD
ATOM      3  C   UNL     1       3.198   8.701   2.241  0.00  0.00    +0.221 A 
ATOM      4  N   UNL     1       1.884   8.930   2.092  0.00  0.00    -0.223 NA
ATOM      5  C   UNL     1       1.464  10.204   2.129  0.00  0.00    +0.118 A 
ATOM      6  C   UNL     1       2.306  11.265   2.322  0.00  0.00    +0.063 A 
ATOM      7  C   UNL     1       3.644  10.954   2.424  0.00  0.00    +0.128 A 
ATOM      8  N   UNL     1       4.088   9.683   2.408  0.00  0.00    -0.199 NA
ENDROOT
BRANCH   1  12
ATOM      9  C   UNL     1       2.086   3.782   0.763  0.00  0.00    +0.121 A 
ATOM     10  C   UNL     1       3.214   3.769   1.586  0.00  0.00    +0.047 A 
ATOM     11  C   UNL     1       3.765   4.976   2.060  0.00  0.00    +0.027 A 
ATOM     12  C   UNL     1       3.200   6.215   1.719  0.00  0.00    +0.034 A 
ATOM     13  C   UNL     1       2.057   6.199   0.923  0.00  0.00    +0.027 A 
ATOM     14  C   UNL     1       1.510   5.012   0.455  0.00  0.00    +0.047 A 
BRANCH   9  15
ATOM     15  O   UNL     1       1.609   2.570   0.305  0.00  0.00    -0.489 OA
BRANCH  15  16
ATOM     16  C   UNL     1       0.503   2.722  -0.604  0.00  0.00    +0.261 C 
BRANCH  16  17
ATOM     17  C   UNL     1       0.030   1.394  -1.192  0.00  0.00    +0.166 C 
BRANCH  17  18
ATOM     18  O   UNL     1      -0.405   0.526  -0.134  0.00  0.00    -0.387 OA
ATOM     19  H   UNL     1       0.270   0.594   0.568  0.00  0.00    +0.210 HD
ENDBRANCH  17  18
BRANCH  17  20
ATOM     20  C   UNL     1      -1.170   1.642  -2.143  0.00  0.00    +0.118 C 
BRANCH  20  21
ATOM     21  N   UNL     1      -0.953   2.582  -3.265  0.00  0.00    -0.306 NA
ATOM     22  C   UNL     1      -2.208   2.776  -3.999  0.00  0.00    +0.104 C 
ATOM     23  C   UNL     1       0.090   2.114  -4.179  0.00  0.00    +0.104 C 
ENDBRANCH  20  21
ENDBRANCH  17  20
ENDBRANCH  16  17
ENDBRANCH  15  16
ENDBRANCH   9  15
ENDBRANCH   1  12
BRANCH   7  24
ATOM     24  N   UNL     1       4.574  12.009   2.472  0.00  0.00    -0.298 N 
ATOM     25  H   UNL     1       4.480  12.572   3.312  0.00  0.00    +0.154 HD
BRANCH  24  26
ATOM     26  C   UNL     1       5.885  11.982   1.942  0.00  0.00    +0.052 A 
ATOM     27  C   UNL     1       6.187  11.170   0.833  0.00  0.00    +0.044 A 
ATOM     28  C   UNL     1       7.448  11.196   0.242  0.00  0.00    +0.043 A 
ATOM     29 CL   UNL     1       7.780  10.171  -1.099  0.00  0.00    -0.083 Cl
ATOM     30  C   UNL     1       8.430  12.054   0.724  0.00  0.00    +0.021 A 
ATOM     31  C   UNL     1       8.152  12.876   1.818  0.00  0.00    +0.023 A 
ATOM     32  C   UNL     1       6.890  12.838   2.423  0.00  0.00    +0.062 A 
ATOM     33 CL   UNL     1       6.599  13.862   3.786  0.00  0.00    -0.082 Cl
ENDBRANCH  24  26
ENDBRANCH   7  24
TORSDOF 9
