REMARK  Name = 
REMARK  4 active torsions:
REMARK  status: ('A' for Active; 'I' for Inactive)
REMARK    1  A    between atoms: C_8  and  C_9
REMARK    2  A    between atoms: C_8  and  C_10
REMARK    3  A    between atoms: C_14  and  C_15
REMARK    4  A    between atoms: C_23  and  C_30
REMARK                            x       y       z     vdW  Elec       q    Type
REMARK                         _______ _______ _______ _____ _____    ______ ____
ROOT
ATOM      1  C   UNL     1      -0.000  -0.000  -0.000  0.00  0.00    +0.003 C 
ATOM      2  C   UNL     1      -0.000  -0.000   0.000  0.00  0.00    +0.000 C 
ATOM      3  C   UNL     1      -0.000  -0.000   0.000  0.00  0.00    +0.023 C 
ATOM      4  C   UNL     1      -0.000  -0.000  -0.000  0.00  0.00    -0.041 A 
ATOM      5  C   UNL     1      -0.000  -0.000   0.000  0.00  0.00    -0.043 A 
ATOM      6  C   UNL     1      -0.000  -0.000   0.000  0.00  0.00    +0.036 C 
ATOM      7  C   UNL     1      -0.000  -0.000   0.000  0.00  0.00    +0.017 A 
ATOM      8  C   UNL     1      -0.000  -0.000   0.000  0.00  0.00    +0.037 A 
ATOM      9  C   UNL     1      -0.000  -0.000   0.000  0.00  0.00    +0.013 A 
ATOM     10  C   UNL     1      -0.000  -0.000   0.000  0.00  0.00    +0.005 A 
ATOM     11  C   UNL     1      -0.000  -0.000   0.000  0.00  0.00    +0.009 C 
ATOM     12  C   UNL     1      -0.000  -0.000  -0.000  0.00  0.00    +0.011 C 
ATOM     13  C   UNL     1      -0.000  -0.000   0.000  0.00  0.00    +0.009 C 
ATOM     14  C   UNL     1      -0.000  -0.000   0.000  0.00  0.00    +0.011 C 
ATOM     15  C   UNL     1      -0.000  -0.000   0.000  0.00  0.00    +0.015 C 
ATOM     16  C   UNL     1      -0.000  -0.000   0.000  0.00  0.00    +0.119 C 
ATOM     17  O   UNL     1      -0.000  -0.000  -0.000  0.00  0.00    -0.457 OA
ATOM     18  C   UNL     1      -0.000  -0.000  -0.000  0.00  0.00    +0.313 C 
ATOM     19  O   UNL     1      -0.000  -0.000   0.000  0.00  0.00    -0.250 OA
ATOM     20  C   UNL     1      -0.000  -0.000   0.000  0.00  0.00    +0.062 C 
ATOM     21  C   UNL     1      -0.000  -0.000  -0.000  0.00  0.00    +0.022 C 
ATOM     22  C   UNL     1      -0.000  -0.000   0.000  0.00  0.00    +0.022 C 
ATOM     23  C   UNL     1      -0.000  -0.000   0.000  0.00  0.00    +0.021 C 
ATOM     24  C   UNL     1      -0.000  -0.000   0.000  0.00  0.00    +0.050 C 
ATOM     25  C   UNL     1      -0.000  -0.000   0.000  0.00  0.00    +0.049 C 
ATOM     26  C   UNL     1      -0.000  -0.000   0.000  0.00  0.00    +0.008 C 
ENDROOT
BRANCH   8  27
ATOM     27  C   UNL     1      -0.000  -0.000  -0.000  0.00  0.00    +0.242 C 
ATOM     28  O   UNL     1      -0.000  -0.000  -0.000  0.00  0.00    -0.270 OA
ATOM     29  N   UNL     1      -0.000  -0.000  -0.000  0.00  0.00    -0.325 N 
ATOM     30  H   UNL     1      -0.000  -0.000   0.000  0.00  0.00    +0.145 HD
ATOM     31  H   UNL     1      -0.000  -0.000   0.000  0.00  0.00    +0.145 HD
ENDBRANCH   8  27
TORSDOF 1
