REMARK  Name = 
REMARK  4 active torsions:
REMARK  status: ('A' for Active; 'I' for Inactive)
REMARK    1  A    between atoms: C_6  and  C_8
REMARK    2  A    between atoms: C_15  and  N_16
REMARK    3  A    between atoms: N_16  and  C_17
REMARK    4  A    between atoms: C_17  and  C_18
REMARK                            x       y       z     vdW  Elec       q    Type
REMARK                         _______ _______ _______ _____ _____    ______ ____
ROOT
ATOM      1  C   UNL     1       5.729  -2.604  -0.542  0.00  0.00    +0.085 A 
ATOM      2  C   UNL     1       5.056  -3.795  -0.226  0.00  0.00    +0.127 A 
ATOM      3  C   UNL     1       5.613  -5.045  -0.479  0.00  0.00    +0.305 A 
ATOM      4  N   UNL     1       6.992  -4.999  -1.000  0.00  0.00    -0.038 N 
ATOM      5  N   UNL     1       7.819  -5.993  -1.303  0.00  0.00    -0.162 N 
ATOM      6  H   UNL     1       7.601  -6.983  -1.201  0.00  0.00    +0.236 HD
ATOM      7  C   UNL     1       9.026  -5.435  -1.762  0.00  0.00    +0.155 A 
ATOM      8  C   UNL     1       8.933  -3.996  -1.740  0.00  0.00    +0.126 A 
ATOM      9  C   UNL     1       7.604  -3.757  -1.241  0.00  0.00    +0.337 A 
ATOM     10  N   UNL     1       6.992  -2.558  -1.033  0.00  0.00    -0.184 NA
ENDROOT
BRANCH   1  14
ATOM     11 BR   UNL     1       1.163   0.216  -0.606  0.00  0.00    -0.050 Br
ATOM     12  C   UNL     1       3.039   0.092  -0.399  0.00  0.00    +0.019 A 
ATOM     13  C   UNL     1       3.664  -1.150  -0.537  0.00  0.00    +0.025 A 
ATOM     14  C   UNL     1       5.059  -1.288  -0.386  0.00  0.00    +0.002 A 
ATOM     15  C   UNL     1       5.793  -0.120  -0.107  0.00  0.00    +0.010 A 
ATOM     16  C   UNL     1       5.163   1.124   0.027  0.00  0.00    +0.002 A 
ATOM     17  C   UNL     1       3.783   1.231  -0.117  0.00  0.00    +0.015 A 
ENDBRANCH   1  14
BRANCH   3  18
ATOM     18  N   UNL     1       5.008  -6.253  -0.242  0.00  0.00    -0.285 N 
ATOM     19  H   UNL     1       5.500  -7.098  -0.489  0.00  0.00    +0.152 HD
BRANCH  18  20
ATOM     20  C   UNL     1       3.556  -6.392  -0.319  0.00  0.00    +0.142 C 
BRANCH  20  21
ATOM     21  C   UNL     1       2.976  -6.859   0.991  0.00  0.00    -0.027 A 
ATOM     22  C   UNL     1       1.779  -7.588   0.988  0.00  0.00    +0.025 A 
ATOM     23  C   UNL     1       1.232  -7.984   2.198  0.00  0.00    +0.111 A 
ATOM     24  N   UNL     1       1.783  -7.700   3.394  0.00  0.00    -0.263 NA
ATOM     25  C   UNL     1       2.921  -6.979   3.387  0.00  0.00    +0.111 A 
ATOM     26  C   UNL     1       3.542  -6.535   2.230  0.00  0.00    +0.025 A 
ENDBRANCH  20  21
ENDBRANCH  18  20
ENDBRANCH   3  18
TORSDOF 4
