REMARK  Name = 
REMARK  15 active torsions:
REMARK  status: ('A' for Active; 'I' for Inactive)
REMARK    1  A    between atoms: C_2  and  C_3
REMARK    2  A    between atoms: C_2  and  N_4
REMARK    3  A    between atoms: C_2  and  C_15
REMARK    4  A    between atoms: C_5  and  O_7
REMARK    5  A    between atoms: O_7  and  C_8
REMARK    6  A    between atoms: C_8  and  C_9
REMARK    7  A    between atoms: N_17  and  C_18
REMARK    8  A    between atoms: C_18  and  P_19
REMARK    9  A    between atoms: P_19  and  O_20
REMARK   10  A    between atoms: P_19  and  O_22
REMARK   11  A    between atoms: O_22  and  C_23
REMARK   12  A    between atoms: C_23  and  C_25
REMARK   13  A    between atoms: C_23  and  C_32
REMARK   14  A    between atoms: C_25  and  C_26
REMARK   15  A    between atoms: C_32  and  O_33
REMARK                            x       y       z     vdW  Elec       q    Type
REMARK                         _______ _______ _______ _____ _____    ______ ____
ROOT
ATOM      1  C   UNL     1       6.821  -3.062  -6.233  0.00  0.00    +0.234 C 
ATOM      2  N   UNL     1       6.749  -1.980  -5.390  0.00  0.00    -0.303 N 
ATOM      3  H   UNL     1       6.847  -1.039  -5.756  0.00  0.00    +0.149 HD
ATOM      4  O   UNL     1       6.665  -4.215  -5.834  0.00  0.00    -0.274 OA
ENDROOT
BRANCH   1   5
ATOM      5  C   UNL     1       7.350  -2.765  -7.651  0.00  0.00    +0.159 C 
ATOM      6  C   UNL     1       8.873  -2.717  -7.620  0.00  0.00    +0.038 C 
BRANCH   5   7
ATOM      7  N   UNL     1       6.804  -1.530  -8.204  0.00  0.00    -0.270 N 
ATOM      8  H   UNL     1       7.287  -0.648  -8.111  0.00  0.00    +0.153 HD
ATOM      9  C   UNL     1       5.719  -1.548  -9.033  0.00  0.00    +0.401 C 
ATOM     10  O   UNL     1       5.062  -2.544  -9.294  0.00  0.00    -0.226 OA
BRANCH   9  11
ATOM     11  O   UNL     1       5.543  -0.323  -9.581  0.00  0.00    -0.446 OA
BRANCH  11  12
ATOM     12  C   UNL     1       4.704  -0.301 -10.744  0.00  0.00    +0.269 C 
BRANCH  12  13
ATOM     13  C   UNL     1       3.402   0.415 -10.495  0.00  0.00    -0.010 A 
ATOM     14  C   UNL     1       2.269  -0.297 -10.075  0.00  0.00    +0.007 A 
ATOM     15  C   UNL     1       1.045   0.354  -9.908  0.00  0.00    +0.000 A 
ATOM     16  C   UNL     1       0.942   1.723 -10.148  0.00  0.00    +0.000 A 
ATOM     17  C   UNL     1       2.065   2.444 -10.549  0.00  0.00    +0.000 A 
ATOM     18  C   UNL     1       3.290   1.795 -10.717  0.00  0.00    +0.007 A 
ENDBRANCH  12  13
ENDBRANCH  11  12
ENDBRANCH   9  11
ENDBRANCH   5   7
ENDBRANCH   1   5
BRANCH   2  19
ATOM     19  C   UNL     1       6.311  -2.145  -4.015  0.00  0.00    +0.231 C 
BRANCH  19  20
ATOM     20  P   UNL     1       7.072  -0.783  -2.917  0.00  0.00    +0.348 P 
ATOM     21  O   UNL     1       7.885   0.158  -3.814  0.00  0.00    -0.257 OA
BRANCH  20  22
ATOM     22  O   UNL     1       5.694   0.221  -3.213  0.00  0.00    -0.323 OA
ATOM     23  H   UNL     1       6.052   1.092  -3.489  0.00  0.00    +0.220 HD
ENDBRANCH  20  22
BRANCH  20  24
ATOM     24  O   UNL     1       8.449  -1.787  -2.620  0.00  0.00    -0.292 OA
BRANCH  24  25
ATOM     25  C   UNL     1       9.170  -1.321  -1.460  0.00  0.00    +0.240 C 
BRANCH  25  26
ATOM     26  C   UNL     1      10.472  -2.103  -1.304  0.00  0.00    +0.335 C 
ATOM     27  O   UNL     1      11.150  -2.136  -0.288  0.00  0.00    -0.248 OA
BRANCH  26  28
ATOM     28  O   UNL     1      10.851  -2.701  -2.460  0.00  0.00    -0.479 OA
ATOM     29  H   UNL     1      10.156  -2.562  -3.142  0.00  0.00    +0.295 HD
ENDBRANCH  26  28
ENDBRANCH  25  26
BRANCH  25  30
ATOM     30  C   UNL     1       8.320  -1.321  -0.170  0.00  0.00    +0.078 C 
BRANCH  30  31
ATOM     31  C   UNL     1       7.830  -2.688   0.241  0.00  0.00    -0.044 A 
ATOM     32  C   UNL     1       6.655  -3.235  -0.292  0.00  0.00    +0.004 A 
ATOM     33  C   UNL     1       6.301  -4.555  -0.010  0.00  0.00    +0.000 A 
ATOM     34  C   UNL     1       7.100  -5.329   0.828  0.00  0.00    +0.000 A 
ATOM     35  C   UNL     1       8.234  -4.774   1.415  0.00  0.00    +0.000 A 
ATOM     36  C   UNL     1       8.592  -3.459   1.129  0.00  0.00    +0.004 A 
ENDBRANCH  30  31
ENDBRANCH  25  30
ENDBRANCH  24  25
ENDBRANCH  20  24
ENDBRANCH  19  20
ENDBRANCH   2  19
TORSDOF 14
