REMARK  Name = 
REMARK  2 active torsions:
REMARK  status: ('A' for Active; 'I' for Inactive)
REMARK    1  A    between atoms: C_1  and  C_2
REMARK    2  A    between atoms: C_2  and  C_3
REMARK                            x       y       z     vdW  Elec       q    Type
REMARK                         _______ _______ _______ _____ _____    ______ ____
ROOT
ATOM      1  C   UNL     1       0.906   0.011   0.064  0.00  0.00    +0.011 C 
ATOM      2  C   UNL     1       2.446  -0.096   0.023  0.00  0.00    -0.022 C 
ATOM      3  C   UNL     1       2.963   0.213  -1.408  0.00  0.00    +0.087 C 
ATOM      4  C   UNL     1       2.572  -0.838  -2.440  0.00  0.00    +0.172 C 
ATOM      5  O   UNL     1       2.355  -0.526  -3.610  0.00  0.00    -0.291 OA
ATOM      6  C   UNL     1       2.580  -2.182  -1.930  0.00  0.00    +0.079 A 
ATOM      7  S   UNL     1       2.392  -3.556  -2.889  0.00  0.00    -0.049 S 
ATOM      8  C   UNL     1       2.625  -4.568  -1.490  0.00  0.00    +0.162 A 
ATOM      9  N   UNL     1       2.606  -5.929  -1.588  0.00  0.00    -0.305 N 
ATOM     10  C   UNL     1       3.313  -6.579  -2.708  0.00  0.00    +0.135 C 
ATOM     11  C   UNL     1       2.786  -8.011  -2.887  0.00  0.00    +0.179 C 
ATOM     12  O   UNL     1       2.924  -8.773  -1.679  0.00  0.00    -0.377 OA
ATOM     13  C   UNL     1       2.203  -8.143  -0.605  0.00  0.00    +0.179 C 
ATOM     14  C   UNL     1       2.707  -6.712  -0.344  0.00  0.00    +0.135 C 
ATOM     15  N   UNL     1       2.748  -3.890  -0.362  0.00  0.00    -0.229 NA
ATOM     16  C   UNL     1       2.735  -2.528  -0.608  0.00  0.00    +0.062 A 
ATOM     17  C   UNL     1       2.902  -1.517   0.482  0.00  0.00    +0.063 C 
ATOM     18  C   UNL     1       3.021   0.967   0.976  0.00  0.00    +0.011 C 
ENDROOT
TORSDOF 0
