REMARK  Name = 
REMARK  5 active torsions:
REMARK  status: ('A' for Active; 'I' for Inactive)
REMARK    1  A    between atoms: C_1  and  O_2
REMARK    2  A    between atoms: O_2  and  C_3
REMARK    3  A    between atoms: C_5  and  C_10
REMARK    4  A    between atoms: C_8  and  O_9
REMARK    5  A    between atoms: C_16  and  C_19
REMARK                            x       y       z     vdW  Elec       q    Type
REMARK                         _______ _______ _______ _____ _____    ______ ____
ROOT
ATOM      1  C   UNL     1       4.993   2.473   3.367  0.00  0.00    -0.016 A 
ATOM      2  C   UNL     1       4.436   3.697   2.939  0.00  0.00    +0.009 A 
ATOM      3  C   UNL     1       4.868   4.937   3.426  0.00  0.00    +0.013 A 
ATOM      4  C   UNL     1       5.922   4.970   4.350  0.00  0.00    +0.030 A 
ATOM      5  C   UNL     1       6.629   5.977   5.053  0.00  0.00    +0.135 A 
ATOM      6  N   UNL     1       7.601   5.464   5.825  0.00  0.00    -0.170 NA
ATOM      7  N   UNL     1       7.483   4.135   5.628  0.00  0.00    -0.276 N 
ATOM      8  H   UNL     1       8.117   3.519   6.125  0.00  0.00    +0.189 HD
ATOM      9  C   UNL     1       6.493   3.771   4.756  0.00  0.00    +0.067 A 
ATOM     10  C   UNL     1       6.054   2.518   4.296  0.00  0.00    +0.036 A 
ENDROOT
BRANCH   5  11
ATOM     11  C   UNL     1       6.368   7.446   4.990  0.00  0.00    +0.160 A 
ATOM     12  N   UNL     1       7.118   8.365   5.678  0.00  0.00    -0.337 N 
ATOM     13  H   UNL     1       7.905   8.124   6.263  0.00  0.00    +0.167 HD
ATOM     14  C   UNL     1       6.602   9.611   5.441  0.00  0.00    +0.067 A 
ATOM     15  C   UNL     1       5.533   9.378   4.582  0.00  0.00    +0.090 A 
ATOM     16  C   UNL     1       4.763  10.462   4.135  0.00  0.00    +0.030 A 
ATOM     17  C   UNL     1       5.094  11.749   4.577  0.00  0.00    +0.002 A 
ATOM     18  C   UNL     1       6.175  11.952   5.439  0.00  0.00    +0.002 A 
ATOM     19  C   UNL     1       6.959  10.884   5.890  0.00  0.00    +0.028 A 
ATOM     20  N   UNL     1       5.409   8.038   4.303  0.00  0.00    -0.226 NA
ENDBRANCH   5  11
BRANCH   1  25
ATOM     21  C   UNL     1       2.549  -0.071   1.925  0.00  0.00    +0.162 A 
ATOM     22  C   UNL     1       3.394  -1.152   1.671  0.00  0.00    +0.158 A 
ATOM     23  C   UNL     1       4.741  -1.099   2.026  0.00  0.00    +0.050 A 
ATOM     24  C   UNL     1       5.267   0.066   2.601  0.00  0.00    +0.012 A 
ATOM     25  C   UNL     1       4.457   1.189   2.842  0.00  0.00    -0.014 A 
ATOM     26  C   UNL     1       3.087   1.074   2.522  0.00  0.00    +0.058 A 
BRANCH  21  28
ATOM     27  C   UNL     1       0.319   0.743   2.076  0.00  0.00    +0.277 C 
ATOM     28  O   UNL     1       1.243  -0.188   1.524  0.00  0.00    -0.491 OA
ENDBRANCH  21  28
BRANCH  22  29
ATOM     29  O   UNL     1       2.886  -2.275   1.075  0.00  0.00    -0.503 OA
ATOM     30  H   UNL     1       3.610  -2.892   0.889  0.00  0.00    +0.292 HD
ENDBRANCH  22  29
ENDBRANCH   1  25
TORSDOF 4
