REMARK  Name = 
REMARK  7 active torsions:
REMARK  status: ('A' for Active; 'I' for Inactive)
REMARK    1  A    between atoms: N_1  and  S_2
REMARK    2  A    between atoms: S_2  and  C_5
REMARK    3  A    between atoms: C_8  and  N_9
REMARK    4  A    between atoms: N_9  and  C_10
REMARK    5  A    between atoms: C_12  and  O_13
REMARK    6  A    between atoms: O_13  and  C_14
REMARK    7  A    between atoms: C_14  and  C_15
REMARK                            x       y       z     vdW  Elec       q    Type
REMARK                         _______ _______ _______ _____ _____    ______ ____
ROOT
ATOM      1  C   UNL     1       5.563   4.463   4.297  0.00  0.00    +0.133 A 
ATOM      2  N   UNL     1       6.231   5.633   4.731  0.00  0.00    -0.182 N 
ATOM      3  C   UNL     1       7.196   5.584   5.757  0.00  0.00    +0.258 A 
ATOM      4  N   UNL     1       7.618   6.805   6.008  0.00  0.00    -0.197 NA
ATOM      5  C   UNL     1       6.914   7.573   5.134  0.00  0.00    +0.247 A 
ATOM      6  N   UNL     1       7.569   4.408   6.347  0.00  0.00    -0.175 NA
ATOM      7  C   UNL     1       6.960   3.362   5.899  0.00  0.00    +0.221 A 
ATOM      8  N   UNL     1       6.083   6.923   4.321  0.00  0.00    -0.151 NA
ATOM      9  C   UNL     1       5.907   3.295   4.866  0.00  0.00    +0.111 A 
ENDROOT
BRANCH   1  10
ATOM     10  N   UNL     1       4.598   4.566   3.305  0.00  0.00    -0.299 N 
ATOM     11  H   UNL     1       4.966   4.704   2.368  0.00  0.00    +0.154 HD
BRANCH  10  15
ATOM     12  C   UNL     1       0.537   3.452   3.517  0.00  0.00    +0.105 A 
ATOM     13  C   UNL     1       1.254   3.277   2.332  0.00  0.00    +0.030 A 
ATOM     14  C   UNL     1       2.603   3.639   2.278  0.00  0.00    +0.025 A 
ATOM     15  C   UNL     1       3.254   4.166   3.403  0.00  0.00    +0.032 A 
ATOM     16  C   UNL     1       2.534   4.267   4.603  0.00  0.00    +0.025 A 
ATOM     17  C   UNL     1       1.179   3.922   4.664  0.00  0.00    +0.030 A 
BRANCH  12  18
ATOM     18  S   UNL     1      -1.182   3.035   3.551  0.00  0.00    +0.056 S 
ATOM     19  O   UNL     1      -1.463   2.086   2.501  0.00  0.00    -0.153 OA
ATOM     20  O   UNL     1      -1.593   2.820   4.921  0.00  0.00    -0.153 OA
BRANCH  18  21
ATOM     21  N   UNL     1      -1.892   4.477   3.068  0.00  0.00    -0.204 NA
ATOM     22  H   UNL     1      -2.146   4.440   2.081  0.00  0.00    +0.144 HD
ATOM     23  H   UNL     1      -2.676   4.696   3.684  0.00  0.00    +0.144 HD
ENDBRANCH  18  21
ENDBRANCH  12  18
ENDBRANCH  10  15
ENDBRANCH   1  10
BRANCH   7  24
ATOM     24  O   UNL     1       7.196   2.097   6.314  0.00  0.00    -0.476 OA
BRANCH  24  25
ATOM     25  C   UNL     1       7.865   1.883   7.572  0.00  0.00    +0.234 C 
BRANCH  25  26
ATOM     26  C   UNL     1       6.800   1.602   8.646  0.00  0.00    +0.027 C 
ATOM     27  C   UNL     1       7.426   1.408  10.033  0.00  0.00    +0.007 C 
ATOM     28  C   UNL     1       8.123   0.058  10.188  0.00  0.00    +0.000 C 
ATOM     29  C   UNL     1       7.185  -1.098   9.854  0.00  0.00    +0.000 C 
ATOM     30  C   UNL     1       6.577  -0.947   8.463  0.00  0.00    +0.000 C 
ATOM     31  C   UNL     1       5.893   0.407   8.288  0.00  0.00    +0.007 C 
ENDBRANCH  25  26
ENDBRANCH  24  25
ENDBRANCH   7  24
TORSDOF 7
