REMARK  Name = 
REMARK  13 active torsions:
REMARK  status: ('A' for Active; 'I' for Inactive)
REMARK    1  A    between atoms: C_2  and  O_12
REMARK    2  A    between atoms: C_5  and  C_6
REMARK    3  A    between atoms: C_5  and  C_9
REMARK    4  A    between atoms: C_9  and  O_10
REMARK    5  A    between atoms: O_12  and  C_13
REMARK    6  A    between atoms: N_15  and  C_16
REMARK    7  A    between atoms: C_16  and  C_17
REMARK    8  A    between atoms: C_17  and  N_18
REMARK    9  A    between atoms: C_19  and  O_21
REMARK   10  A    between atoms: O_21  and  C_22
REMARK   11  A    between atoms: C_26  and  C_27
REMARK   12  A    between atoms: C_26  and  C_30
REMARK   13  A    between atoms: C_30  and  O_31
REMARK                            x       y       z     vdW  Elec       q    Type
REMARK                         _______ _______ _______ _____ _____    ______ ____
ROOT
ATOM      1  C   UNL     1      -0.183  -1.326   3.440  0.00  0.00    +0.126 C 
ENDROOT
BRANCH   1   3
ATOM      2  C   UNL     1       1.058   0.370   2.154  0.00  0.00    +0.401 C 
ATOM      3  N   UNL     1       0.452  -0.843   2.234  0.00  0.00    -0.280 N 
ATOM      4  H   UNL     1       0.687  -1.488   1.492  0.00  0.00    +0.152 HD
ATOM      5  O   UNL     1       1.111   1.201   3.047  0.00  0.00    -0.226 OA
BRANCH   2   6
ATOM      6  O   UNL     1       1.705   0.452   0.971  0.00  0.00    -0.442 OA
BRANCH   6   7
ATOM      7  C   UNL     1       2.868   1.304   0.969  0.00  0.00    +0.229 C 
ATOM      8  C   UNL     1       3.233   1.626  -0.476  0.00  0.00    +0.210 C 
ATOM      9  O   UNL     1       3.558   0.435  -1.188  0.00  0.00    -0.336 OA
ATOM     10  C   UNL     1       4.616  -0.298  -0.592  0.00  0.00    +0.267 C 
ATOM     11  C   UNL     1       4.673  -1.619  -1.361  0.00  0.00    +0.087 C 
ATOM     12  O   UNL     1       4.343  -0.645   0.777  0.00  0.00    -0.336 OA
ATOM     13  C   UNL     1       4.018   0.502   1.581  0.00  0.00    +0.210 C 
BRANCH  10  14
ATOM     14  C   UNL     1       6.053   0.318  -0.692  0.00  0.00    +0.365 C 
ATOM     15  O   UNL     1       6.404   1.192  -1.469  0.00  0.00    -0.245 OA
BRANCH  14  16
ATOM     16  O   UNL     1       6.896  -0.209   0.242  0.00  0.00    -0.477 OA
ATOM     17  H   UNL     1       6.411  -0.845   0.815  0.00  0.00    +0.295 HD
ENDBRANCH  14  16
ENDBRANCH  10  14
ENDBRANCH   6   7
ENDBRANCH   2   6
ENDBRANCH   1   3
BRANCH   1  18
ATOM     18  C   UNL     1       0.807  -1.729   4.536  0.00  0.00    +0.126 C 
BRANCH  18  19
ATOM     19  N   UNL     1       0.137  -2.215   5.722  0.00  0.00    -0.280 N 
ATOM     20  H   UNL     1       0.020  -1.602   6.524  0.00  0.00    +0.152 HD
ATOM     21  C   UNL     1      -0.103  -3.536   5.949  0.00  0.00    +0.401 C 
ATOM     22  O   UNL     1       0.077  -4.436   5.146  0.00  0.00    -0.226 OA
BRANCH  21  23
ATOM     23  O   UNL     1      -0.487  -3.699   7.233  0.00  0.00    -0.442 OA
BRANCH  23  24
ATOM     24  C   UNL     1      -0.341  -5.050   7.737  0.00  0.00    +0.229 C 
ATOM     25  C   UNL     1      -1.023  -5.122   9.101  0.00  0.00    +0.210 C 
ATOM     26  O   UNL     1      -0.364  -4.307  10.076  0.00  0.00    -0.336 OA
ATOM     27  C   UNL     1       1.049  -4.574  10.185  0.00  0.00    +0.267 C 
ATOM     28  C   UNL     1       1.324  -5.890  10.913  0.00  0.00    +0.087 C 
ATOM     29  O   UNL     1       1.708  -4.503   8.927  0.00  0.00    -0.336 OA
ATOM     30  C   UNL     1       1.146  -5.354   7.929  0.00  0.00    +0.210 C 
BRANCH  27  31
ATOM     31  C   UNL     1       1.622  -3.427  11.080  0.00  0.00    +0.365 C 
ATOM     32  O   UNL     1       2.794  -3.293  11.405  0.00  0.00    -0.245 OA
BRANCH  31  33
ATOM     33  O   UNL     1       0.652  -2.564  11.498  0.00  0.00    -0.477 OA
ATOM     34  H   UNL     1      -0.197  -2.853  11.088  0.00  0.00    +0.295 HD
ENDBRANCH  31  33
ENDBRANCH  27  31
ENDBRANCH  23  24
ENDBRANCH  21  23
ENDBRANCH  18  19
ENDBRANCH   1  18
TORSDOF 11
