REMARK  Name = 
REMARK  4 active torsions:
REMARK  status: ('A' for Active; 'I' for Inactive)
REMARK    1  A    between atoms: O_1  and  N_2
REMARK    2  A    between atoms: C_3  and  C_5
REMARK    3  A    between atoms: C_8  and  C_10
REMARK    4  A    between atoms: C_20  and  C_21
REMARK                            x       y       z     vdW  Elec       q    Type
REMARK                         _______ _______ _______ _____ _____    ______ ____
ROOT
ATOM      1  C   UNL     1       7.715   1.695   1.015  0.00  0.00    +0.254 C 
ATOM      2  N   UNL     1       7.533   2.370   2.230  0.00  0.00    -0.288 N 
ATOM      3  C   UNL     1       6.642   3.513   2.431  0.00  0.00    +0.182 C 
ATOM      4  C   UNL     1       7.320   4.612   3.182  0.00  0.00    +0.128 A 
ATOM      5  N   UNL     1       6.829   5.812   3.389  0.00  0.00    -0.238 NA
ATOM      6  C   UNL     1       7.812   6.488   4.055  0.00  0.00    +0.139 A 
ATOM      7  C   UNL     1       8.931   5.700   4.288  0.00  0.00    +0.069 A 
ATOM      8  N   UNL     1       8.569   4.482   3.748  0.00  0.00    -0.325 N 
ATOM      9  C   UNL     1       9.306   3.230   3.710  0.00  0.00    +0.142 C 
ATOM     10  C   UNL     1       8.395   2.051   3.369  0.00  0.00    +0.130 C 
ATOM     11  O   UNL     1       8.711   0.987   0.857  0.00  0.00    -0.269 OA
ENDROOT
BRANCH   7  12
ATOM     12  C   UNL     1      10.193   6.080   4.938  0.00  0.00    +0.000 A 
ATOM     13  C   UNL     1      11.428   5.519   4.588  0.00  0.00    +0.010 A 
ATOM     14  C   UNL     1      12.614   5.953   5.191  0.00  0.00    +0.001 A 
ATOM     15  C   UNL     1      12.588   6.973   6.137  0.00  0.00    +0.000 A 
ATOM     16  C   UNL     1      11.375   7.552   6.490  0.00  0.00    +0.001 A 
ATOM     17  C   UNL     1      10.190   7.104   5.901  0.00  0.00    +0.010 A 
ENDBRANCH   7  12
BRANCH   1  20
ATOM     18  C   UNL     1       4.695   2.283  -1.403  0.00  0.00    +0.077 A 
ATOM     19  S   UNL     1       5.051   1.897   0.226  0.00  0.00    -0.079 S 
ATOM     20  C   UNL     1       6.739   1.856  -0.062  0.00  0.00    +0.075 A 
ATOM     21  C   UNL     1       6.987   1.837  -1.425  0.00  0.00    +0.021 A 
ATOM     22  C   UNL     1       5.815   2.102  -2.197  0.00  0.00    +0.021 A 
BRANCH  18  25
ATOM     23  N   UNL     1       2.500   2.974  -0.775  0.00  0.00    -0.193 N 
ATOM     24  H   UNL     1       2.800   2.918   0.191  0.00  0.00    +0.183 HD
ATOM     25  C   UNL     1       3.357   2.699  -1.822  0.00  0.00    +0.273 C 
ATOM     26  O   UNL     1       3.049   2.827  -3.002  0.00  0.00    -0.268 OA
BRANCH  23  27
ATOM     27  O   UNL     1       1.208   3.447  -1.068  0.00  0.00    -0.295 OA
ATOM     28  H   UNL     1       0.799   3.565  -0.192  0.00  0.00    +0.241 HD
ENDBRANCH  23  27
ENDBRANCH  18  25
ENDBRANCH   1  20
TORSDOF 4
