REMARK  Name = 
REMARK  5 active torsions:
REMARK  status: ('A' for Active; 'I' for Inactive)
REMARK    1  A    between atoms: C_1  and  S_2
REMARK    2  A    between atoms: S_2  and  C_4
REMARK    3  A    between atoms: C_7  and  C_10
REMARK    4  A    between atoms: C_12  and  C_22
REMARK    5  A    between atoms: C_13  and  C_15
REMARK                            x       y       z     vdW  Elec       q    Type
REMARK                         _______ _______ _______ _____ _____    ______ ____
ROOT
ATOM      1  C   UNL     1       3.905   5.682  -2.025  0.00  0.00    +0.139 A 
ATOM      2  N   UNL     1       4.171   6.029  -3.329  0.00  0.00    -0.337 N 
ATOM      3  H   UNL     1       4.304   5.378  -4.086  0.00  0.00    +0.167 HD
ATOM      4  C   UNL     1       4.146   7.407  -3.457  0.00  0.00    +0.074 A 
ATOM      5  C   UNL     1       3.921   7.843  -2.156  0.00  0.00    +0.097 A 
ATOM      6  N   UNL     1       3.760   6.775  -1.305  0.00  0.00    -0.227 NA
ENDROOT
BRANCH   4   7
ATOM      7  C   UNL     1       4.309   8.089  -4.745  0.00  0.00    +0.001 A 
ATOM      8  C   UNL     1       3.569   9.243  -5.044  0.00  0.00    +0.010 A 
ATOM      9  C   UNL     1       3.802   9.968  -6.215  0.00  0.00    +0.002 A 
ATOM     10  C   UNL     1       4.748   9.522  -7.133  0.00  0.00    +0.014 A 
ATOM     11  C   UNL     1       5.446   8.343  -6.879  0.00  0.00    +0.014 A 
ATOM     12  I   UNL     1       6.833   7.653  -8.266  0.00  0.00    -0.044 I 
ATOM     13  C   UNL     1       5.235   7.629  -5.694  0.00  0.00    +0.024 A 
ENDBRANCH   4   7
BRANCH   1  17
ATOM     14  C   UNL     1       3.289   1.736  -0.443  0.00  0.00    +0.039 A 
ATOM     15  C   UNL     1       3.707   1.895  -1.768  0.00  0.00    +0.018 A 
ATOM     16  C   UNL     1       3.940   3.172  -2.299  0.00  0.00    +0.012 A 
ATOM     17  C   UNL     1       3.757   4.315  -1.512  0.00  0.00    +0.017 A 
ATOM     18  C   UNL     1       3.385   4.138  -0.168  0.00  0.00    +0.012 A 
ATOM     19  C   UNL     1       3.159   2.867   0.365  0.00  0.00    +0.018 A 
BRANCH  14  21
ATOM     20  C   UNL     1       1.206   0.345   0.648  0.00  0.00    +0.127 C 
ATOM     21  S   UNL     1       2.952   0.091   0.231  0.00  0.00    +0.051 S 
ATOM     22  O   UNL     1       2.999  -0.848  -0.939  0.00  0.00    -0.252 OA
ENDBRANCH  14  21
ENDBRANCH   1  17
BRANCH   5  23
ATOM     23  C   UNL     1       3.816   9.204  -1.654  0.00  0.00    +0.005 A 
ATOM     24  C   UNL     1       2.935   9.470  -0.603  0.00  0.00    +0.030 A 
ATOM     25  C   UNL     1       2.830  10.766  -0.129  0.00  0.00    +0.111 A 
ATOM     26  N   UNL     1       3.532  11.803  -0.631  0.00  0.00    -0.263 NA
ATOM     27  C   UNL     1       4.394  11.523  -1.630  0.00  0.00    +0.111 A 
ATOM     28  C   UNL     1       4.582  10.255  -2.156  0.00  0.00    +0.030 A 
ENDBRANCH   5  23
TORSDOF 4
