REMARK  Name = 
REMARK  4 active torsions:
REMARK  status: ('A' for Active; 'I' for Inactive)
REMARK    1  A    between atoms: O_1  and  C_2
REMARK    2  A    between atoms: C_8  and  C_11
REMARK    3  A    between atoms: C_15  and  O_16
REMARK    4  A    between atoms: C_18  and  O_19
REMARK                            x       y       z     vdW  Elec       q    Type
REMARK                         _______ _______ _______ _____ _____    ______ ____
ROOT
ATOM      1  C   UNL     1       2.375  -0.081  -0.094  0.00  0.00    +0.120 A 
ATOM      2  C   UNL     1       2.942   1.185  -0.188  0.00  0.00    +0.046 A 
ATOM      3  C   UNL     1       4.336   1.349  -0.186  0.00  0.00    +0.017 A 
ATOM      4  C   UNL     1       5.159   0.214  -0.051  0.00  0.00    +0.049 A 
ATOM      5  C   UNL     1       6.557  -0.094   0.044  0.00  0.00    +0.125 A 
ATOM      6  N   UNL     1       6.727  -1.430   0.118  0.00  0.00    -0.077 NA
ATOM      7  O   UNL     1       5.473  -1.994   0.113  0.00  0.00    -0.354 OA
ATOM      8  C   UNL     1       4.535  -1.022   0.020  0.00  0.00    +0.171 A 
ATOM      9  C   UNL     1       3.155  -1.232   0.003  0.00  0.00    +0.095 A 
ENDROOT
BRANCH   5  10
ATOM     10  C   UNL     1       7.744   0.778   0.067  0.00  0.00    +0.047 A 
ATOM     11  C   UNL     1       7.760   2.060   0.644  0.00  0.00    +0.130 A 
ATOM     12  C   UNL     1       8.936   2.818   0.691  0.00  0.00    +0.092 A 
ATOM     13  C   UNL     1      10.118   2.289   0.191  0.00  0.00    +0.134 A 
ATOM     14  C   UNL     1      10.134   1.022  -0.385  0.00  0.00    +0.060 A 
ATOM     15 BR   UNL     1      11.744   0.280  -1.050  0.00  0.00    -0.047 Br
ATOM     16  C   UNL     1       8.954   0.275  -0.455  0.00  0.00    +0.032 A 
BRANCH  11  17
ATOM     17  O   UNL     1       6.638   2.584   1.222  0.00  0.00    -0.506 OA
ATOM     18  H   UNL     1       6.834   3.470   1.571  0.00  0.00    +0.292 HD
ENDBRANCH  11  17
BRANCH  13  19
ATOM     19  O   UNL     1      11.243   3.056   0.314  0.00  0.00    -0.506 OA
ATOM     20  H   UNL     1      11.996   2.522  -0.002  0.00  0.00    +0.292 HD
ENDBRANCH  13  19
ENDBRANCH   5  10
BRANCH   1  21
ATOM     21  O   UNL     1       1.012  -0.157  -0.100  0.00  0.00    -0.507 OA
ATOM     22  H   UNL     1       0.746  -1.088  -0.016  0.00  0.00    +0.292 HD
ENDBRANCH   1  21
TORSDOF 4
