REMARK  Name = 
REMARK  6 active torsions:
REMARK  status: ('A' for Active; 'I' for Inactive)
REMARK    1  A    between atoms: C_2  and  O_3
REMARK    2  A    between atoms: C_14  and  O_15
REMARK    3  A    between atoms: C_21  and  C_23
REMARK    4  A    between atoms: C_23  and  O_24
REMARK    5  A    between atoms: O_24  and  C_25
REMARK    6  A    between atoms: C_27  and  C_28
REMARK                            x       y       z     vdW  Elec       q    Type
REMARK                         _______ _______ _______ _____ _____    ______ ____
ROOT
ATOM      1  C   UNL     1       2.687  -2.188  -1.257  0.00  0.00    +0.121 C 
ATOM      2  C   UNL     1       4.236  -2.402  -1.527  0.00  0.00    -0.003 C 
ATOM      3  C   UNL     1       4.942  -2.770  -0.201  0.00  0.00    +0.014 C 
ATOM      4  C   UNL     1       4.605  -1.053  -2.192  0.00  0.00    +0.001 C 
ATOM      5  C   UNL     1       6.094  -0.841  -2.386  0.00  0.00    +0.001 C 
ATOM      6  C   UNL     1       6.634  -1.883  -3.422  0.00  0.00    +0.028 C 
ATOM      7  C   UNL     1       6.175  -3.353  -3.057  0.00  0.00    +0.023 C 
ATOM      8  C   UNL     1       8.127  -1.609  -3.701  0.00  0.00    -0.040 A 
ATOM      9  C   UNL     1       8.698  -0.350  -3.387  0.00  0.00    -0.040 A 
ATOM     10  C   UNL     1      10.081  -0.125  -3.535  0.00  0.00    +0.049 A 
ATOM     11  C   UNL     1      10.896  -1.131  -4.040  0.00  0.00    +0.117 A 
ATOM     12  C   UNL     1      10.338  -2.334  -4.452  0.00  0.00    +0.046 A 
ATOM     13  C   UNL     1       7.885   0.807  -2.866  0.00  0.00    +0.036 C 
ATOM     14  C   UNL     1       8.961  -2.561  -4.310  0.00  0.00    +0.008 A 
ATOM     15  C   UNL     1       6.390   0.560  -2.926  0.00  0.00    +0.009 C 
ATOM     16  C   UNL     1       3.764  -0.030  -1.456  0.00  0.00    +0.007 C 
ATOM     17  C   UNL     1       4.652  -3.442  -2.609  0.00  0.00    +0.015 C 
ATOM     18  C   UNL     1       2.399  -0.703  -1.573  0.00  0.00    +0.032 C 
ENDROOT
BRANCH  11  19
ATOM     19  O   UNL     1      12.242  -0.949  -4.160  0.00  0.00    -0.507 OA
ATOM     20  H   UNL     1      12.466  -0.081  -3.776  0.00  0.00    +0.292 HD
ENDBRANCH  11  19
BRANCH   1  21
ATOM     21  O   UNL     1       2.297  -2.417   0.104  0.00  0.00    -0.391 OA
ATOM     22  H   UNL     1       2.199  -1.569   0.574  0.00  0.00    +0.210 HD
ENDBRANCH   1  21
BRANCH   7  23
ATOM     23  C   UNL     1       7.167  -4.037  -2.095  0.00  0.00    +0.163 C 
BRANCH  23  24
ATOM     24  O   UNL     1       6.701  -5.312  -1.660  0.00  0.00    -0.383 OA
ATOM     25  C   UNL     1       7.637  -5.898  -0.759  0.00  0.00    +0.193 C 
ENDBRANCH  23  24
ENDBRANCH   7  23
TORSDOF 4
