REMARK  Name = 
REMARK  10 active torsions:
REMARK  status: ('A' for Active; 'I' for Inactive)
REMARK    1  A    between atoms: C_1  and  C_2
REMARK    2  A    between atoms: C_2  and  N_3
REMARK    3  A    between atoms: N_3  and  C_4
REMARK    4  A    between atoms: N_3  and  C_6
REMARK    5  A    between atoms: C_4  and  C_5
REMARK    6  A    between atoms: C_8  and  O_9
REMARK    7  A    between atoms: C_10  and  C_11
REMARK    8  A    between atoms: C_12  and  C_13
REMARK    9  A    between atoms: C_12  and  C_14
REMARK   10  A    between atoms: C_14  and  O_15
REMARK                            x       y       z     vdW  Elec       q    Type
REMARK                         _______ _______ _______ _____ _____    ______ ____
ROOT
ATOM      1  C   UNL     1       4.426  -1.137   1.176  0.00  0.00    +0.033 A 
ATOM      2  C   UNL     1       4.941  -2.414   1.435  0.00  0.00    +0.024 A 
ATOM      3  C   UNL     1       6.318  -2.672   1.438  0.00  0.00    +0.013 A 
ATOM      4  C   UNL     1       7.238  -1.667   1.138  0.00  0.00    +0.017 A 
ATOM      5  C   UNL     1       6.734  -0.369   0.957  0.00  0.00    +0.126 A 
ATOM      6  C   UNL     1       5.354  -0.105   0.977  0.00  0.00    +0.069 A 
ENDROOT
BRANCH   4   7
ATOM      7  C   UNL     1       8.694  -1.935   1.095  0.00  0.00    +0.022 C 
ATOM      8  C   UNL     1       9.335  -3.035   0.642  0.00  0.00    +0.034 C 
ATOM      9  C   UNL     1       8.709  -4.280   0.077  0.00  0.00    +0.051 C 
BRANCH   8  10
ATOM     10  C   UNL     1      10.824  -3.128   0.709  0.00  0.00    +0.333 C 
ATOM     11  O   UNL     1      11.413  -4.184   0.850  0.00  0.00    -0.245 OA
BRANCH  10  12
ATOM     12  O   UNL     1      11.469  -1.955   0.533  0.00  0.00    -0.477 OA
ATOM     13  H   UNL     1      10.897  -1.214   0.266  0.00  0.00    +0.295 HD
ENDBRANCH  10  12
ENDBRANCH   8  10
ENDBRANCH   4   7
BRANCH   5  14
ATOM     14  O   UNL     1       7.613   0.664   0.739  0.00  0.00    -0.506 OA
ATOM     15  H   UNL     1       7.108   1.493   0.706  0.00  0.00    +0.292 HD
ENDBRANCH   5  14
BRANCH   1  16
ATOM     16  N   UNL     1       3.046  -0.893   1.055  0.00  0.00    -0.330 N 
BRANCH  16  18
ATOM     17  C   UNL     1       0.890  -1.620   0.013  0.00  0.00    +0.024 C 
ATOM     18  C   UNL     1       2.231  -2.034   0.598  0.00  0.00    +0.102 C 
ENDBRANCH  16  18
BRANCH  16  19
ATOM     19  C   UNL     1       2.466   0.050   2.026  0.00  0.00    +0.102 C 
ATOM     20  C   UNL     1       2.254  -0.564   3.404  0.00  0.00    +0.024 C 
ENDBRANCH  16  19
ENDBRANCH   1  16
TORSDOF 7
