REMARK  Name = 
REMARK  4 active torsions:
REMARK  status: ('A' for Active; 'I' for Inactive)
REMARK    1  A    between atoms: C_2  and  C_22
REMARK    2  A    between atoms: C_9  and  O_10
REMARK    3  A    between atoms: O_10  and  C_11
REMARK    4  A    between atoms: C_11  and  C_12
REMARK                            x       y       z     vdW  Elec       q    Type
REMARK                         _______ _______ _______ _____ _____    ______ ____
ROOT
ATOM      1  C   UNL     1       1.971   0.011  -0.151  0.00  0.00    +0.200 C 
ATOM      2  N   UNL     1       2.481  -1.136  -0.875  0.00  0.00    -0.286 N 
ATOM      3  C   UNL     1       3.268  -0.795  -1.946  0.00  0.00    +0.083 A 
ATOM      4  C   UNL     1       3.842  -1.750  -2.693  0.00  0.00    +0.157 A 
ATOM      5  N   UNL     1       3.725  -3.098  -2.433  0.00  0.00    -0.195 NA
ATOM      6  C   UNL     1       3.040  -3.446  -1.380  0.00  0.00    +0.283 A 
ATOM      7 CL   UNL     1       4.866  -1.338  -4.028  0.00  0.00    -0.060 Cl
ATOM      8  C   UNL     1       3.319   0.642  -1.983  0.00  0.00    +0.027 C 
ATOM      9  C   UNL     1       2.304  -2.419  -0.458  0.00  0.00    +0.315 A 
ATOM     10  O   UNL     1       1.666  -2.720   0.540  0.00  0.00    -0.262 OA
ATOM     11  C   UNL     1       2.594   1.125  -0.957  0.00  0.00    +0.009 C 
ENDROOT
BRANCH   1  12
ATOM     12  C   UNL     1       0.422   0.067  -0.186  0.00  0.00    +0.243 C 
ATOM     13  N   UNL     1      -0.156   0.946   0.708  0.00  0.00    -0.300 N 
ATOM     14  C   UNL     1       0.514   1.630   1.795  0.00  0.00    +0.108 C 
ATOM     15  C   UNL     1      -0.486   2.661   2.298  0.00  0.00    +0.020 C 
ATOM     16  C   UNL     1      -1.721   2.503   1.408  0.00  0.00    +0.020 C 
ATOM     17  C   UNL     1      -1.588   1.113   0.812  0.00  0.00    +0.108 C 
ATOM     18  O   UNL     1      -0.250  -0.584  -0.984  0.00  0.00    -0.273 OA
ENDBRANCH   1  12
BRANCH   6  19
ATOM     19  O   UNL     1       2.981  -4.747  -1.061  0.00  0.00    -0.468 OA
BRANCH  19  20
ATOM     20  C   UNL     1       2.667  -5.118   0.289  0.00  0.00    +0.266 C 
BRANCH  20  21
ATOM     21  C   UNL     1       3.149  -6.518   0.547  0.00  0.00    -0.010 A 
ATOM     22  C   UNL     1       2.266  -7.480   1.057  0.00  0.00    +0.010 A 
ATOM     23  C   UNL     1       2.722  -8.767   1.334  0.00  0.00    +0.039 A 
ATOM     24  C   UNL     1       4.055  -9.084   1.109  0.00  0.00    +0.123 A 
ATOM     25  F   UNL     1       4.489 -10.324   1.378  0.00  0.00    -0.205 F 
ATOM     26  C   UNL     1       4.947  -8.141   0.616  0.00  0.00    +0.039 A 
ATOM     27  C   UNL     1       4.495  -6.854   0.336  0.00  0.00    +0.010 A 
ENDBRANCH  20  21
ENDBRANCH  19  20
ENDBRANCH   6  19
TORSDOF 4
