REMARK  Name = 
REMARK  5 active torsions:
REMARK  status: ('A' for Active; 'I' for Inactive)
REMARK    1  A    between atoms: CA_2  and  N_3
REMARK    2  A    between atoms: CA_2  and  C_4
REMARK    3  A    between atoms: CA_2  and  C_15
REMARK    4  A    between atoms: C_4  and  C_5
REMARK    5  A    between atoms: C_15  and  O_16
REMARK                            x       y       z     vdW  Elec       q    Type
REMARK                         _______ _______ _______ _____ _____    ______ ____
ROOT
ATOM      1  C   UNL     1       2.187  -0.076   2.425  0.00  0.00    -0.038 A 
ATOM      2  C   UNL     1       1.602  -0.901   3.439  0.00  0.00    -0.015 A 
ATOM      3  C   UNL     1       1.366  -2.293   3.309  0.00  0.00    +0.009 A 
ATOM      4  C   UNL     1       0.795  -3.049   4.339  0.00  0.00    +0.001 A 
ATOM      5  C   UNL     1       0.434  -2.438   5.531  0.00  0.00    +0.001 A 
ATOM      6  C   UNL     1       0.649  -1.073   5.695  0.00  0.00    +0.008 A 
ATOM      7  C   UNL     1       1.220  -0.301   4.671  0.00  0.00    -0.018 A 
ATOM      8  C   UNL     1       1.404   1.070   4.874  0.00  0.00    +0.008 A 
ATOM      9  C   UNL     1       1.934   1.871   3.873  0.00  0.00    +0.001 A 
ATOM     10  C   UNL     1       2.303   1.308   2.657  0.00  0.00    +0.004 A 
ENDROOT
BRANCH   1  11
ATOM     11  C   UNL     1       2.629  -0.650   1.083  0.00  0.00    +0.065 C 
BRANCH  11  12
ATOM     12  CA  UNL     1       3.797   0.058   0.359  0.00  0.00    +0.165 C 
BRANCH  12  13
ATOM     13  N   UNL     1       4.008  -0.519  -0.991  0.00  0.00    -0.318 NA
ATOM     14  H1  UNL     1       4.842  -0.127  -1.428  0.00  0.00    +0.119 HD
ATOM     15  H2  UNL     1       4.009  -1.531  -1.033  0.00  0.00    +0.119 HD
ENDBRANCH  12  13
BRANCH  12  16
ATOM     16  C   UNL     1       5.085  -0.011   1.202  0.00  0.00    +0.322 C 
ATOM     17  OXT UNL     1       5.430   0.846   2.001  0.00  0.00    -0.249 OA
BRANCH  16  18
ATOM     18  O   UNL     1       5.830  -1.120   0.977  0.00  0.00    -0.480 OA
ATOM     19  H   UNL     1       5.430  -1.690   0.299  0.00  0.00    +0.295 HD
ENDBRANCH  16  18
ENDBRANCH  12  16
ENDBRANCH  11  12
ENDBRANCH   1  11
TORSDOF 5
