REMARK  Name = 
REMARK  11 active torsions:
REMARK  status: ('A' for Active; 'I' for Inactive)
REMARK    1  A    between atoms: C_4  and  C_5
REMARK    2  A    between atoms: C_10  and  C_11
REMARK    3  A    between atoms: N_15  and  C_17
REMARK    4  A    between atoms: C_17  and  C_18
REMARK    5  A    between atoms: N_20  and  C_21
REMARK    6  A    between atoms: C_24  and  N_25
REMARK    7  A    between atoms: C_26  and  C_28
REMARK    8  A    between atoms: C_28  and  C_29
REMARK    9  A    between atoms: C_29  and  C_30
REMARK   10  A    between atoms: C_30  and  C_31
REMARK   11  A    between atoms: C_31  and  O_32
REMARK                            x       y       z     vdW  Elec       q    Type
REMARK                         _______ _______ _______ _____ _____    ______ ____
ROOT
ATOM      1  C   UNL     1       5.412   3.716  -0.219  0.00  0.00    +0.262 C 
ATOM      2  N   UNL     1       5.051   4.961   0.243  0.00  0.00    -0.281 N 
ATOM      3  H   UNL     1       4.909   5.031   1.255  0.00  0.00    +0.155 HD
ATOM      4  O   UNL     1       5.694   3.424  -1.383  0.00  0.00    -0.270 OA
ENDROOT
BRANCH   2   5
ATOM      5  C   UNL     1       4.999   6.138  -0.548  0.00  0.00    +0.034 A 
ATOM      6  C   UNL     1       4.944   7.388   0.069  0.00  0.00    +0.025 A 
ATOM      7  C   UNL     1       5.010   8.569  -0.695  0.00  0.00    +0.025 A 
ATOM      8  C   UNL     1       5.088   8.522  -2.093  0.00  0.00    +0.033 A 
ATOM      9  C   UNL     1       5.080   7.274  -2.704  0.00  0.00    +0.025 A 
ATOM     10  C   UNL     1       5.029   6.102  -1.942  0.00  0.00    +0.025 A 
BRANCH   8  11
ATOM     11  N   UNL     1       5.195   9.732  -2.820  0.00  0.00    -0.285 N 
ATOM     12  H   UNL     1       5.287  10.575  -2.269  0.00  0.00    +0.155 HD
ATOM     13  C   UNL     1       5.164   9.865  -4.201  0.00  0.00    +0.217 C 
ATOM     14  O   UNL     1       4.980   8.968  -5.021  0.00  0.00    -0.275 OA
BRANCH  13  15
ATOM     15  C   UNL     1       5.333  11.288  -4.700  0.00  0.00    +0.096 C 
BRANCH  15  16
ATOM     16  C   UNL     1       4.042  11.729  -5.388  0.00  0.00    +0.020 C 
BRANCH  16  17
ATOM     17  C   UNL     1       4.187  13.067  -6.100  0.00  0.00    +0.121 C 
BRANCH  17  18
ATOM     18  C   UNL     1       2.870  13.530  -6.673  0.00  0.00    +0.305 C 
ATOM     19  O   UNL     1       2.284  14.534  -6.296  0.00  0.00    -0.251 OA
BRANCH  18  20
ATOM     20  O   UNL     1       2.396  12.743  -7.662  0.00  0.00    -0.481 OA
ATOM     21  H   UNL     1       2.958  11.974  -7.876  0.00  0.00    +0.295 HD
ENDBRANCH  18  20
ENDBRANCH  17  18
ENDBRANCH  16  17
ENDBRANCH  15  16
ENDBRANCH  13  15
ENDBRANCH   8  11
ENDBRANCH   2   5
BRANCH   1  22
ATOM     22  C   UNL     1       5.614   2.656   0.825  0.00  0.00    +0.228 C 
BRANCH  22  28
ATOM     23  C   UNL     1       4.891  -1.360   2.954  0.00  0.00    +0.162 C 
ATOM     24  C   UNL     1       4.588  -0.180   2.065  0.00  0.00    +0.040 C 
ATOM     25  C   UNL     1       3.129  -0.227   1.580  0.00  0.00    +0.020 C 
ATOM     26  C   UNL     1       2.806   0.940   0.644  0.00  0.00    +0.052 C 
ATOM     27  C   UNL     1       3.129   2.300   1.246  0.00  0.00    +0.131 C 
ATOM     28  N   UNL     1       4.521   2.463   1.846  0.00  0.00    +0.226 N 
ATOM     29  O   UNL     1       4.503   3.624   2.620  0.00  0.00    -0.775 OA
ATOM     30  C   UNL     1       5.537  -0.473   0.857  0.00  0.00    +0.019 C 
ATOM     31  C   UNL     1       4.804   1.220   2.763  0.00  0.00    +0.073 C 
ATOM     32  C   UNL     1       6.144   1.348   3.522  0.00  0.00    +0.058 C 
ATOM     33  C   UNL     1       6.322   0.234   4.532  0.00  0.00    +0.043 C 
ATOM     34  C   UNL     1       6.037  -1.105   3.922  0.00  0.00    +0.094 C 
ATOM     35  C   UNL     1       7.186  -2.020   3.674  0.00  0.00    +0.044 C 
ATOM     36  O   UNL     1       4.729  -1.518   4.346  0.00  0.00    -0.364 OA
ENDBRANCH  22  28
ENDBRANCH   1  22
TORSDOF 9
