REMARK  Name = 
REMARK  8 active torsions:
REMARK  status: ('A' for Active; 'I' for Inactive)
REMARK    1  A    between atoms: C_2  and  C_3
REMARK    2  A    between atoms: C_2  and  N_10
REMARK    3  A    between atoms: C_2  and  C_19
REMARK    4  A    between atoms: C_3  and  C_4
REMARK    5  A    between atoms: C_4  and  C_5
REMARK    6  A    between atoms: C_5  and  N_6
REMARK    7  A    between atoms: C_7  and  C_8
REMARK    8  A    between atoms: C_11  and  C_13
REMARK                            x       y       z     vdW  Elec       q    Type
REMARK                         _______ _______ _______ _____ _____    ______ ____
ROOT
ATOM      1  C   UNL     1       2.027   0.018  -0.008  0.00  0.00    +0.159 C 
ENDROOT
BRANCH   1   2
ATOM      2  C   UNL     1       2.537   1.387   0.462  0.00  0.00    +0.231 C 
ATOM      3  O   UNL     1       3.723   1.703   0.451  0.00  0.00    -0.274 OA
ATOM      4  N   UNL     1       1.579   2.265   0.883  0.00  0.00    -0.328 N 
ATOM      5  H   UNL     1       1.893   3.201   1.108  0.00  0.00    +0.145 HD
ATOM      6  H   UNL     1       0.610   2.161   0.609  0.00  0.00    +0.145 HD
ENDBRANCH   1   2
BRANCH   1   7
ATOM      7  N   UNL     1       2.524  -0.191  -1.360  0.00  0.00    -0.300 N 
ATOM      8  H   UNL     1       3.387   0.277  -1.612  0.00  0.00    +0.150 HD
ATOM      9  C   UNL     1       1.763  -0.844  -2.304  0.00  0.00    +0.245 C 
ATOM     10  O   UNL     1       0.660  -1.323  -2.057  0.00  0.00    -0.270 OA
BRANCH   9  11
ATOM     11  C   UNL     1       2.318  -0.894  -3.682  0.00  0.00    +0.037 A 
ATOM     12  C   UNL     1       1.419  -0.944  -4.754  0.00  0.00    +0.013 A 
ATOM     13  C   UNL     1       1.893  -0.940  -6.066  0.00  0.00    +0.001 A 
ATOM     14  C   UNL     1       3.265  -0.897  -6.310  0.00  0.00    +0.000 A 
ATOM     15  C   UNL     1       4.166  -0.877  -5.245  0.00  0.00    +0.001 A 
ATOM     16  C   UNL     1       3.697  -0.881  -3.930  0.00  0.00    +0.013 A 
ENDBRANCH   9  11
ENDBRANCH   1   7
BRANCH   1  17
ATOM     17  C   UNL     1       2.512  -1.102   0.921  0.00  0.00    +0.035 C 
BRANCH  17  18
ATOM     18  C   UNL     1       1.986  -1.001   2.358  0.00  0.00    +0.046 C 
BRANCH  18  19
ATOM     19  C   UNL     1       0.463  -1.073   2.417  0.00  0.00    +0.223 C 
BRANCH  19  20
ATOM     20  N   UNL     1      -0.014  -0.982   3.779  0.00  0.00    -0.238 N 
ATOM     21  H   UNL     1       0.685  -0.948   4.510  0.00  0.00    +0.291 HD
ATOM     22  C   UNL     1      -1.331  -0.951   4.140  0.00  0.00    +0.275 C 
ATOM     23  N   UNL     1      -1.677  -0.830   5.379  0.00  0.00    -0.104 NA
ATOM     24  H   UNL     1      -0.844  -0.772   5.966  0.00  0.00    +0.363 HD
ATOM     25  C   UNL     1      -2.442  -1.052   3.120  0.00  0.00    +0.144 C 
ENDBRANCH  19  20
ENDBRANCH  18  19
ENDBRANCH  17  18
ENDBRANCH   1  17
TORSDOF 7
