REMARK  Name = 
REMARK  6 active torsions:
REMARK  status: ('A' for Active; 'I' for Inactive)
REMARK    1  A    between atoms: C_2  and  C_3
REMARK    2  A    between atoms: C_2  and  C_4
REMARK    3  A    between atoms: C_2  and  C_20
REMARK    4  A    between atoms: C_4  and  O_5
REMARK    5  A    between atoms: O_5  and  N_6
REMARK    6  A    between atoms: C_20  and  O_21
REMARK                            x       y       z     vdW  Elec       q    Type
REMARK                         _______ _______ _______ _____ _____    ______ ____
ROOT
ATOM      1  N   UNL     1       2.313   3.723  -0.490  0.00  0.00    -0.084 NA
ATOM      2  C   UNL     1       1.947   4.548  -1.423  0.00  0.00    +0.118 C 
ATOM      3  C   UNL     1       1.250   4.325  -2.717  0.00  0.00    +0.012 A 
ATOM      4  C   UNL     1       0.760   3.171  -3.305  0.00  0.00    +0.011 A 
ATOM      5  C   UNL     1       0.174   3.279  -4.568  0.00  0.00    +0.001 A 
ATOM      6  C   UNL     1       0.090   4.521  -5.218  0.00  0.00    +0.001 A 
ATOM      7  C   UNL     1       0.592   5.680  -4.618  0.00  0.00    +0.009 A 
ATOM      8  C   UNL     1       1.173   5.575  -3.363  0.00  0.00    -0.008 A 
ATOM      9  C   UNL     1       1.776   6.590  -2.529  0.00  0.00    -0.008 A 
ATOM     10  C   UNL     1       1.938   7.952  -2.724  0.00  0.00    +0.009 A 
ATOM     11  C   UNL     1       2.573   8.698  -1.722  0.00  0.00    +0.001 A 
ATOM     12  C   UNL     1       3.039   8.083  -0.545  0.00  0.00    +0.001 A 
ATOM     13  C   UNL     1       2.880   6.711  -0.350  0.00  0.00    +0.011 A 
ATOM     14  C   UNL     1       2.248   5.996  -1.351  0.00  0.00    +0.012 A 
ENDROOT
BRANCH   1  15
ATOM     15  O   UNL     1       1.911   2.408  -0.724  0.00  0.00    -0.392 OA
BRANCH  15  16
ATOM     16  C   UNL     1       2.420   1.562   0.319  0.00  0.00    +0.277 C 
BRANCH  16  17
ATOM     17  C   UNL     1       3.391   0.558  -0.297  0.00  0.00    +0.134 C 
ATOM     18  C   UNL     1       3.721  -0.528   0.731  0.00  0.00    +0.023 C 
BRANCH  17  19
ATOM     19  C   UNL     1       4.685   1.191  -0.790  0.00  0.00    +0.311 C 
ATOM     20  O   UNL     1       5.763   0.610  -0.787  0.00  0.00    -0.251 OA
BRANCH  19  21
ATOM     21  O   UNL     1       4.568   2.418  -1.335  0.00  0.00    -0.480 OA
ATOM     22  H   UNL     1       3.674   2.821  -1.224  0.00  0.00    +0.295 HD
ENDBRANCH  19  21
ENDBRANCH  17  19
ENDBRANCH  16  17
ENDBRANCH  15  16
ENDBRANCH   1  15
TORSDOF 5
