REMARK  Name = 
REMARK  7 active torsions:
REMARK  status: ('A' for Active; 'I' for Inactive)
REMARK    1  A    between atoms: C_2  and  C_3
REMARK    2  A    between atoms: C_2  and  N_14
REMARK    3  A    between atoms: C_2  and  C_28
REMARK    4  A    between atoms: C_3  and  C_4
REMARK    5  A    between atoms: N_14  and  S_15
REMARK    6  A    between atoms: S_15  and  C_18
REMARK    7  A    between atoms: N_30  and  O_31
REMARK                            x       y       z     vdW  Elec       q    Type
REMARK                         _______ _______ _______ _____ _____    ______ ____
ROOT
ATOM      1  C   UNL     1       2.076   0.064  -0.012  0.00  0.00    +0.168 C 
ENDROOT
BRANCH   1   2
ATOM      2  C   UNL     1       2.591   0.395  -1.414  0.00  0.00    +0.254 C 
ATOM      3  N   UNL     1       2.576   1.740  -1.720  0.00  0.00    -0.196 N 
ATOM      4  H   UNL     1       1.992   2.419  -1.243  0.00  0.00    +0.182 HD
ATOM      5  O   UNL     1       2.938  -0.457  -2.231  0.00  0.00    -0.272 OA
BRANCH   3   6
ATOM      6  O   UNL     1       2.952   2.068  -3.043  0.00  0.00    -0.295 OA
ATOM      7  H   UNL     1       3.299   1.213  -3.383  0.00  0.00    +0.241 HD
ENDBRANCH   3   6
ENDBRANCH   1   2
BRANCH   1   8
ATOM      8  N   UNL     1       2.636  -1.206   0.508  0.00  0.00    -0.178 NA
ATOM      9  H   UNL     1       2.331  -2.057   0.030  0.00  0.00    +0.149 HD
BRANCH   8  10
ATOM     10  S   UNL     1       4.290  -1.288   0.821  0.00  0.00    +0.059 S 
ATOM     11  O   UNL     1       4.957  -0.287   0.018  0.00  0.00    -0.153 OA
ATOM     12  O   UNL     1       4.645  -2.687   0.773  0.00  0.00    -0.153 OA
BRANCH  10  13
ATOM     13  C   UNL     1       4.413  -0.780   2.517  0.00  0.00    +0.106 A 
ATOM     14  C   UNL     1       5.246   0.288   2.859  0.00  0.00    +0.029 A 
ATOM     15  C   UNL     1       5.386   0.653   4.199  0.00  0.00    +0.010 A 
ATOM     16  C   UNL     1       4.694  -0.041   5.205  0.00  0.00    -0.018 A 
ATOM     17  C   UNL     1       4.825   0.313   6.557  0.00  0.00    +0.008 A 
ATOM     18  C   UNL     1       4.130  -0.385   7.547  0.00  0.00    +0.001 A 
ATOM     19  C   UNL     1       3.304  -1.449   7.198  0.00  0.00    +0.001 A 
ATOM     20  C   UNL     1       3.168  -1.818   5.859  0.00  0.00    +0.008 A 
ATOM     21  C   UNL     1       3.852  -1.124   4.850  0.00  0.00    -0.016 A 
ATOM     22  C   UNL     1       3.721  -1.488   3.501  0.00  0.00    +0.037 A 
ENDBRANCH  10  13
ENDBRANCH   8  10
ENDBRANCH   1   8
BRANCH   1  23
ATOM     23  C   UNL     1       0.539  -0.041  -0.130  0.00  0.00    +0.065 C 
BRANCH  23  24
ATOM     24  C   UNL     1      -0.254  -0.248   1.141  0.00  0.00    -0.045 A 
ATOM     25  C   UNL     1      -1.506  -0.875   1.068  0.00  0.00    +0.004 A 
ATOM     26  C   UNL     1      -2.292  -1.040   2.213  0.00  0.00    +0.009 A 
ATOM     27  C   UNL     1      -1.853  -0.562   3.456  0.00  0.00    -0.018 A 
ATOM     28  C   UNL     1      -2.620  -0.716   4.622  0.00  0.00    +0.008 A 
ATOM     29  C   UNL     1      -2.167  -0.213   5.844  0.00  0.00    +0.001 A 
ATOM     30  C   UNL     1      -0.946   0.451   5.915  0.00  0.00    +0.001 A 
ATOM     31  C   UNL     1      -0.168   0.601   4.768  0.00  0.00    +0.008 A 
ATOM     32  C   UNL     1      -0.607   0.095   3.536  0.00  0.00    -0.018 A 
ATOM     33  C   UNL     1       0.176   0.242   2.380  0.00  0.00    +0.012 A 
ENDBRANCH  23  24
ENDBRANCH   1  23
TORSDOF 7
