REMARK  Name = 
REMARK  7 active torsions:
REMARK  status: ('A' for Active; 'I' for Inactive)
REMARK    1  A    between atoms: C_2  and  N_3
REMARK    2  A    between atoms: C_2  and  C_14
REMARK    3  A    between atoms: C_2  and  C_17
REMARK    4  A    between atoms: N_3  and  C_4
REMARK    5  A    between atoms: C_5  and  C_11
REMARK    6  A    between atoms: C_8  and  C_9
REMARK    7  A    between atoms: C_11  and  C_12
REMARK                            x       y       z     vdW  Elec       q    Type
REMARK                         _______ _______ _______ _____ _____    ______ ____
ROOT
ATOM      1  C   UNL     1       2.247   0.223  -0.095  0.00  0.00    +0.190 C 
ENDROOT
BRANCH   1   2
ATOM      2  C   UNL     1       3.497   1.079  -0.234  0.00  0.00    +0.018 A 
ATOM      3  C   UNL     1       3.445   2.468   0.010  0.00  0.00    +0.048 A 
ATOM      4 CL   UNL     1       2.086   3.239   0.757  0.00  0.00    -0.083 Cl
ATOM      5  C   UNL     1       4.503   3.314  -0.353  0.00  0.00    +0.020 A 
ATOM      6  C   UNL     1       5.648   2.795  -0.944  0.00  0.00    +0.003 A 
ATOM      7  C   UNL     1       5.755   1.421  -1.129  0.00  0.00    +0.020 A 
ATOM      8  C   UNL     1       4.698   0.572  -0.775  0.00  0.00    +0.048 A 
ATOM      9 CL   UNL     1       4.951  -1.118  -1.061  0.00  0.00    -0.083 Cl
ENDBRANCH   1   2
BRANCH   1  10
ATOM     10  C   UNL     1       1.675  -0.161  -1.491  0.00  0.00    +0.235 C 
ATOM     11  O   UNL     1       2.107   0.224  -2.574  0.00  0.00    -0.274 OA
ATOM     12  N   UNL     1       0.543  -0.940  -1.445  0.00  0.00    -0.328 N 
ATOM     13  H   UNL     1       0.170  -1.277  -2.323  0.00  0.00    +0.145 HD
ATOM     14  H   UNL     1       0.318  -1.436  -0.591  0.00  0.00    +0.145 HD
ENDBRANCH   1  10
BRANCH   1  15
ATOM     15  N   UNL     1       2.448  -1.009   0.708  0.00  0.00    -0.329 N 
ATOM     16  H   UNL     1       3.331  -1.463   0.475  0.00  0.00    +0.147 HD
BRANCH  15  17
ATOM     17  C   UNL     1       2.040  -1.211   2.020  0.00  0.00    +0.039 A 
ATOM     18  C   UNL     1       1.334  -0.228   2.740  0.00  0.00    +0.027 A 
ATOM     19  C   UNL     1       0.936  -0.400   4.078  0.00  0.00    -0.049 A 
ATOM     20  C   UNL     1       0.295   0.741   4.813  0.00  0.00    +0.044 C 
ATOM     21  C   UNL     1       1.207  -1.603   4.719  0.00  0.00    +0.004 A 
ATOM     22  C   UNL     1       1.841  -2.625   4.019  0.00  0.00    +0.013 A 
ATOM     23  C   UNL     1       2.239  -2.450   2.678  0.00  0.00    +0.038 A 
BRANCH  23  24
ATOM     24  C   UNL     1       2.884  -3.654   2.064  0.00  0.00    +0.162 C 
ATOM     25  O   UNL     1       3.568  -4.392   2.775  0.00  0.00    -0.292 OA
ATOM     26  C   UNL     1       2.651  -4.006   0.618  0.00  0.00    +0.091 C 
ENDBRANCH  23  24
ENDBRANCH  15  17
ENDBRANCH   1  15
TORSDOF 5
