REMARK  Name = 
REMARK  7 active torsions:
REMARK  status: ('A' for Active; 'I' for Inactive)
REMARK    1  A    between atoms: C_2  and  O_3
REMARK    2  A    between atoms: C_19  and  C_20
REMARK    3  A    between atoms: C_25  and  C_26
REMARK    4  A    between atoms: C_26  and  C_27
REMARK    5  A    between atoms: C_27  and  O_28
REMARK    6  A    between atoms: O_28  and  C_29
REMARK    7  A    between atoms: C_29  and  C_30
REMARK                            x       y       z     vdW  Elec       q    Type
REMARK                         _______ _______ _______ _____ _____    ______ ____
ROOT
ATOM      1  C   UNL     1      -0.000  -0.000  -0.000  0.00  0.00    +0.121 C 
ATOM      2  C   UNL     1      -0.000  -0.000  -0.000  0.00  0.00    +0.002 C 
ATOM      3  C   UNL     1      -0.000  -0.000  -0.000  0.00  0.00    +0.001 C 
ATOM      4  C   UNL     1      -0.000  -0.000  -0.000  0.00  0.00    -0.004 C 
ATOM      5  C   UNL     1      -0.000  -0.000  -0.000  0.00  0.00    -0.001 C 
ATOM      6  C   UNL     1      -0.000  -0.000  -0.000  0.00  0.00    +0.005 C 
ATOM      7  C   UNL     1      -0.000  -0.000  -0.000  0.00  0.00    -0.025 C 
ATOM      8  C   UNL     1      -0.000  -0.000  -0.000  0.00  0.00    +0.012 C 
ATOM      9  C   UNL     1      -0.000  -0.000  -0.000  0.00  0.00    +0.002 C 
ATOM     10  C   UNL     1      -0.000  -0.000  -0.000  0.00  0.00    +0.078 C 
ATOM     11  C   UNL     1      -0.000  -0.000  -0.000  0.00  0.00    +0.134 C 
ATOM     12  O   UNL     1      -0.000  -0.000  -0.000  0.00  0.00    -0.297 OA
ATOM     13  C   UNL     1      -0.000  -0.000  -0.000  0.00  0.00    +0.075 C 
ATOM     14  C   UNL     1      -0.000  -0.000  -0.000  0.00  0.00    +0.005 C 
ATOM     15  C   UNL     1      -0.000  -0.000  -0.000  0.00  0.00    +0.015 C 
ATOM     16  C   UNL     1      -0.000  -0.000  -0.000  0.00  0.00    +0.004 C 
ATOM     17  C   UNL     1      -0.000  -0.000  -0.000  0.00  0.00    +0.007 C 
ATOM     18  C   UNL     1      -0.000  -0.000  -0.000  0.00  0.00    +0.010 C 
ATOM     19  C   UNL     1      -0.000  -0.000  -0.000  0.00  0.00    +0.032 C 
ENDROOT
BRANCH   1  20
ATOM     20  O   UNL     1      -0.000  -0.000  -0.000  0.00  0.00    -0.391 OA
ATOM     21  H   UNL     1       0.000   0.000   0.000  0.00  0.00    +0.210 HD
ENDBRANCH   1  20
BRANCH   2  22
ATOM     22  C   UNL     1      -0.000  -0.000  -0.000  0.00  0.00    +0.038 C 
BRANCH  22  23
ATOM     23  C   UNL     1      -0.000  -0.000  -0.000  0.00  0.00    +0.161 C 
BRANCH  23  24
ATOM     24  O   UNL     1      -0.000  -0.000  -0.000  0.00  0.00    -0.375 OA
BRANCH  24  25
ATOM     25  C   UNL     1      -0.000  -0.000  -0.000  0.00  0.00    +0.195 C 
BRANCH  25  26
ATOM     26  C   UNL     1      -0.000  -0.000  -0.000  0.00  0.00    -0.017 A 
ATOM     27  C   UNL     1      -0.000  -0.000  -0.000  0.00  0.00    +0.044 A 
ATOM     28  C   UNL     1      -0.000  -0.000  -0.000  0.00  0.00    +0.126 A 
ATOM     29  F   UNL     1      -0.000  -0.000  -0.000  0.00  0.00    -0.205 F 
ATOM     30  C   UNL     1      -0.000  -0.000  -0.000  0.00  0.00    +0.076 A 
ATOM     31  C   UNL     1      -0.000  -0.000  -0.000  0.00  0.00    +0.126 A 
ATOM     32  F   UNL     1      -0.000  -0.000  -0.000  0.00  0.00    -0.205 F 
ATOM     33  C   UNL     1      -0.000  -0.000  -0.000  0.00  0.00    +0.044 A 
ENDBRANCH  25  26
ENDBRANCH  24  25
ENDBRANCH  23  24
ENDBRANCH  22  23
ENDBRANCH   2  22
TORSDOF 6
