REMARK  Name = 
REMARK  4 active torsions:
REMARK  status: ('A' for Active; 'I' for Inactive)
REMARK    1  A    between atoms: C_7  and  C_11
REMARK    2  A    between atoms: N_13  and  C_14
REMARK    3  A    between atoms: N_23  and  C_24
REMARK    4  A    between atoms: C_24  and  C_25
REMARK                            x       y       z     vdW  Elec       q    Type
REMARK                         _______ _______ _______ _____ _____    ______ ____
ROOT
ATOM      1  C   UNL     1       8.877   5.281  -0.894  0.00  0.00    +0.164 C 
ATOM      2  C   UNL     1      10.125   4.682  -0.245  0.00  0.00    +0.241 C 
ATOM      3  O   UNL     1      10.114   3.585   0.323  0.00  0.00    -0.273 OA
ATOM      4  N   UNL     1      11.298   5.394  -0.474  0.00  0.00    -0.261 N 
ATOM      5  C   UNL     1      11.284   6.818  -0.571  0.00  0.00    +0.040 A 
ATOM      6  C   UNL     1      12.465   7.576  -0.566  0.00  0.00    +0.024 A 
ATOM      7  C   UNL     1      12.424   8.974  -0.544  0.00  0.00    +0.002 A 
ATOM      8  C   UNL     1      11.203   9.638  -0.541  0.00  0.00    +0.000 A 
ATOM      9  C   UNL     1      10.023   8.903  -0.573  0.00  0.00    +0.005 A 
ATOM     10  C   UNL     1      10.053   7.497  -0.589  0.00  0.00    -0.024 A 
ATOM     11  C   UNL     1       8.741   6.759  -0.564  0.00  0.00    +0.068 C 
ENDROOT
BRANCH   1  13
ATOM     12  C   UNL     1       6.521   4.606  -1.248  0.00  0.00    +0.263 C 
ATOM     13  N   UNL     1       7.684   4.517  -0.537  0.00  0.00    -0.298 N 
ATOM     14  H   UNL     1       7.753   3.801   0.185  0.00  0.00    +0.150 HD
ATOM     15  O   UNL     1       6.345   5.371  -2.189  0.00  0.00    -0.269 OA
BRANCH  12  21
ATOM     16  C   UNL     1       2.178   1.167   0.681  0.00  0.00    +0.167 C 
ATOM     17  C   UNL     1       2.309   2.149  -0.448  0.00  0.00    +0.014 C 
ATOM     18  C   UNL     1       3.511   2.704  -0.568  0.00  0.00    +0.007 C 
ATOM     19  C   UNL     1       4.482   2.214   0.402  0.00  0.00    +0.106 C 
ATOM     20  N   UNL     1       5.647   2.780   0.301  0.00  0.00    -0.235 NA
ATOM     21  C   UNL     1       5.455   3.678  -0.766  0.00  0.00    +0.127 C 
ATOM     22  C   UNL     1       4.223   3.668  -1.326  0.00  0.00    +0.043 C 
ATOM     23  S   UNL     1       3.851   1.002   1.429  0.00  0.00    -0.082 S 
ATOM     24 CL   UNL     1       1.036   1.809   1.879  0.00  0.00    -0.105 Cl
ENDBRANCH  12  21
ENDBRANCH   1  13
BRANCH   4  25
ATOM     25  C   UNL     1      12.546   4.636  -0.541  0.00  0.00    +0.209 C 
BRANCH  25  26
ATOM     26  C   UNL     1      13.241   4.432   0.799  0.00  0.00    +0.228 C 
ATOM     27  O   UNL     1      14.341   4.908   1.064  0.00  0.00    -0.274 OA
ATOM     28  N   UNL     1      12.593   3.611   1.675  0.00  0.00    -0.328 N 
ATOM     29  H   UNL     1      12.996   3.460   2.589  0.00  0.00    +0.145 HD
ATOM     30  H   UNL     1      11.623   3.341   1.513  0.00  0.00    +0.145 HD
ENDBRANCH  25  26
ENDBRANCH   4  25
TORSDOF 4
