REMARK  Name = 
REMARK  9 active torsions:
REMARK  status: ('A' for Active; 'I' for Inactive)
REMARK    1  A    between atoms: C_2  and  O_3
REMARK    2  A    between atoms: C_2  and  C_4
REMARK    3  A    between atoms: C_2  and  C_9
REMARK    4  A    between atoms: C_4  and  N_5
REMARK    5  A    between atoms: N_5  and  C_6
REMARK    6  A    between atoms: C_6  and  C_7
REMARK    7  A    between atoms: C_6  and  C_8
REMARK    8  A    between atoms: C_9  and  O_10
REMARK    9  A    between atoms: O_10  and  C_11
REMARK                            x       y       z     vdW  Elec       q    Type
REMARK                         _______ _______ _______ _____ _____    ______ ____
ROOT
ATOM      1  C   UNL     1       4.527   2.311  -1.529  0.00  0.00    +0.130 A 
ATOM      2  C   UNL     1       5.827   2.158  -2.084  0.00  0.00    +0.049 A 
ATOM      3  C   UNL     1       6.803   1.096  -2.128  0.00  0.00    +0.011 A 
ATOM      4  C   UNL     1       6.861  -0.219  -1.618  0.00  0.00    +0.011 A 
ATOM      5  C   UNL     1       7.998  -1.008  -1.848  0.00  0.00    +0.001 A 
ATOM      6  C   UNL     1       9.074  -0.510  -2.577  0.00  0.00    +0.002 A 
ATOM      7  C   UNL     1       9.048   0.789  -3.091  0.00  0.00    +0.026 A 
ATOM      8  C   UNL     1       7.906   1.560  -2.848  0.00  0.00    +0.048 A 
ATOM      9  N   UNL     1       7.625   2.847  -3.226  0.00  0.00    -0.354 N 
ATOM     10  H   UNL     1       8.249   3.434  -3.758  0.00  0.00    +0.166 HD
ATOM     11  C   UNL     1       6.390   3.240  -2.771  0.00  0.00    +0.051 A 
ATOM     12  C   UNL     1       5.751   4.473  -2.925  0.00  0.00    +0.026 A 
ATOM     13  C   UNL     1       4.499   4.622  -2.341  0.00  0.00    +0.006 A 
ATOM     14  C   UNL     1       3.902   3.568  -1.654  0.00  0.00    +0.046 A 
ENDROOT
BRANCH   1  15
ATOM     15  O   UNL     1       3.952   1.249  -0.860  0.00  0.00    -0.489 OA
BRANCH  15  16
ATOM     16  C   UNL     1       2.514   1.235  -0.849  0.00  0.00    +0.261 C 
BRANCH  16  17
ATOM     17  C   UNL     1       1.990   0.068   0.003  0.00  0.00    +0.166 C 
BRANCH  17  18
ATOM     18  O   UNL     1       2.401  -1.180  -0.565  0.00  0.00    -0.387 OA
ATOM     19  H   UNL     1       3.369  -1.120  -0.677  0.00  0.00    +0.210 HD
ENDBRANCH  17  18
BRANCH  17  20
ATOM     20  C   UNL     1       2.468   0.135   1.467  0.00  0.00    +0.115 C 
BRANCH  20  21
ATOM     21  N   UNL     1       2.058   1.372   2.142  0.00  0.00    -0.311 NA
ATOM     22  H   UNL     1       1.040   1.437   2.134  0.00  0.00    +0.122 HD
BRANCH  21  23
ATOM     23  C   UNL     1       2.529   1.462   3.531  0.00  0.00    +0.048 C 
ATOM     24  C   UNL     1       1.991   2.766   4.129  0.00  0.00    +0.023 C 
ATOM     25  C   UNL     1       4.055   1.445   3.650  0.00  0.00    +0.023 C 
ENDBRANCH  21  23
ENDBRANCH  20  21
ENDBRANCH  17  20
ENDBRANCH  16  17
ENDBRANCH  15  16
ENDBRANCH   1  15
TORSDOF 7
