REMARK  Name = 
REMARK  6 active torsions:
REMARK  status: ('A' for Active; 'I' for Inactive)
REMARK    1  A    between atoms: C_2  and  C_3
REMARK    2  A    between atoms: C_6  and  C_7
REMARK    3  A    between atoms: C_7  and  O_8
REMARK    4  A    between atoms: C_11  and  C_13
REMARK    5  A    between atoms: C_16  and  O_17
REMARK    6  A    between atoms: C_22  and  C_24
REMARK                            x       y       z     vdW  Elec       q    Type
REMARK                         _______ _______ _______ _____ _____    ______ ____
ROOT
ATOM      1  C   UNL     1       2.692  -0.103   0.349  0.00  0.00    -0.008 C 
ATOM      2  C   UNL     1       3.464  -1.266   0.990  0.00  0.00    +0.008 C 
ATOM      3  C   UNL     1       2.995  -0.025  -1.174  0.00  0.00    +0.029 C 
ATOM      4  C   UNL     1       4.285   0.805  -1.404  0.00  0.00    +0.003 C 
ATOM      5  C   UNL     1       4.840   0.630  -2.822  0.00  0.00    +0.008 C 
ATOM      6  C   UNL     1       3.995   2.278  -1.015  0.00  0.00    +0.020 C 
ATOM      7  C   UNL     1       2.719   2.785  -1.734  0.00  0.00    +0.170 C 
ATOM      8  O   UNL     1       1.596   1.941  -1.498  0.00  0.00    -0.371 OA
ATOM      9  C   UNL     1       3.784   2.306   0.520  0.00  0.00    +0.012 C 
ATOM     10  C   UNL     1       1.818   0.606  -1.961  0.00  0.00    +0.152 C 
ATOM     11  C   UNL     1       2.892   1.213   1.125  0.00  0.00    +0.004 C 
ENDROOT
BRANCH  10  12
ATOM     12  C   UNL     1       0.516  -0.184  -1.918  0.00  0.00    -0.018 A 
ATOM     13  C   UNL     1       0.390  -1.373  -2.656  0.00  0.00    +0.010 A 
ATOM     14  C   UNL     1      -0.838  -2.037  -2.734  0.00  0.00    +0.046 A 
ATOM     15  C   UNL     1      -1.943  -1.522  -2.069  0.00  0.00    +0.117 A 
ATOM     16  C   UNL     1      -1.830  -0.387  -1.279  0.00  0.00    +0.046 A 
ATOM     17  C   UNL     1      -0.603   0.276  -1.202  0.00  0.00    +0.010 A 
BRANCH  15  18
ATOM     18  O   UNL     1      -3.142  -2.152  -2.236  0.00  0.00    -0.507 OA
ATOM     19  H   UNL     1      -3.838  -1.575  -1.880  0.00  0.00    +0.292 HD
ENDBRANCH  15  18
ENDBRANCH  10  12
BRANCH   6  20
ATOM     20  C   UNL     1       5.163   3.223  -1.390  0.00  0.00    +0.165 C 
BRANCH  20  21
ATOM     21  O   UNL     1       4.913   4.566  -0.990  0.00  0.00    -0.394 OA
ATOM     22  H   UNL     1       5.145   4.646  -0.049  0.00  0.00    +0.209 HD
ENDBRANCH  20  21
ENDBRANCH   6  20
TORSDOF 4
