REMARK  Name = 
REMARK  6 active torsions:
REMARK  status: ('A' for Active; 'I' for Inactive)
REMARK    1  A    between atoms: O_1  and  C_2
REMARK    2  A    between atoms: C_2  and  C_4
REMARK    3  A    between atoms: N_10  and  C_11
REMARK    4  A    between atoms: C_11  and  C_12
REMARK    5  A    between atoms: C_20  and  C_28
REMARK    6  A    between atoms: C_21  and  C_22
REMARK                            x       y       z     vdW  Elec       q    Type
REMARK                         _______ _______ _______ _____ _____    ______ ____
ROOT
ATOM      1  C   UNL     1       2.871  -1.372   0.320  0.00  0.00    +0.061 A 
ATOM      2  C   UNL     1       2.404  -2.664   0.038  0.00  0.00    +0.041 A 
ATOM      3  C   UNL     1       3.110  -3.784   0.555  0.00  0.00    +0.051 A 
ATOM      4  N   UNL     1       2.892  -5.150   0.404  0.00  0.00    -0.331 N 
ATOM      5  C   UNL     1       3.844  -5.898   1.121  0.00  0.00    +0.054 A 
ATOM      6  C   UNL     1       4.823  -4.961   1.549  0.00  0.00    -0.011 A 
ATOM      7  C   UNL     1       4.256  -3.638   1.330  0.00  0.00    +0.004 A 
ATOM      8  C   UNL     1       4.631  -2.312   1.672  0.00  0.00    +0.011 A 
ATOM      9  C   UNL     1       3.971  -1.197   1.142  0.00  0.00    +0.016 A 
ENDROOT
BRANCH   5  10
ATOM     10  C   UNL     1       3.755  -7.387   1.327  0.00  0.00    -0.001 A 
ATOM     11  C   UNL     1       4.018  -7.984   2.568  0.00  0.00    +0.010 A 
ATOM     12  C   UNL     1       3.977  -9.384   2.739  0.00  0.00    +0.001 A 
ATOM     13  C   UNL     1       3.596 -10.222   1.693  0.00  0.00    +0.000 A 
ATOM     14  C   UNL     1       3.298  -9.661   0.469  0.00  0.00    +0.001 A 
ATOM     15  C   UNL     1       3.424  -8.278   0.298  0.00  0.00    +0.010 A 
ENDBRANCH   5  10
BRANCH   6  16
ATOM     16  C   UNL     1       6.219  -5.220   2.181  0.00  0.00    +0.022 C 
ATOM     17  C   UNL     1       7.290  -4.125   1.908  0.00  0.00    +0.008 C 
ATOM     18  C   UNL     1       7.669  -4.025   0.429  0.00  0.00    +0.001 C 
ATOM     19  C   UNL     1       8.222  -5.354  -0.077  0.00  0.00    +0.000 C 
ATOM     20  C   UNL     1       7.302  -6.520   0.265  0.00  0.00    +0.001 C 
ATOM     21  C   UNL     1       6.920  -6.525   1.746  0.00  0.00    +0.008 C 
ENDBRANCH   6  16
BRANCH   1  22
ATOM     22  C   UNL     1       2.254  -0.168  -0.291  0.00  0.00    +0.337 C 
ATOM     23  O   UNL     1       2.906   0.780  -0.681  0.00  0.00    -0.245 OA
BRANCH  22  24
ATOM     24  O   UNL     1       0.910  -0.223  -0.346  0.00  0.00    -0.477 OA
ATOM     25  H   UNL     1       0.512  -0.939   0.180  0.00  0.00    +0.295 HD
ENDBRANCH  22  24
ENDBRANCH   1  22
BRANCH   4  26
ATOM     26  C   UNL     1       1.704  -5.649  -0.300  0.00  0.00    +0.218 C 
BRANCH  26  27
ATOM     27  C   UNL     1       1.897  -6.347  -1.642  0.00  0.00    +0.235 C 
ATOM     28  N   UNL     1       3.112  -6.285  -2.303  0.00  0.00    -0.296 N 
ATOM     29  C   UNL     1       3.752  -5.017  -2.640  0.00  0.00    +0.136 C 
ATOM     30  C   UNL     1       3.354  -4.616  -4.065  0.00  0.00    +0.179 C 
ATOM     31  O   UNL     1       3.675  -5.647  -5.013  0.00  0.00    -0.377 OA
ATOM     32  C   UNL     1       3.018  -6.883  -4.684  0.00  0.00    +0.179 C 
ATOM     33  C   UNL     1       3.421  -7.332  -3.286  0.00  0.00    +0.136 C 
ATOM     34  O   UNL     1       0.974  -7.052  -2.078  0.00  0.00    -0.274 OA
ENDBRANCH  26  27
ENDBRANCH   4  26
TORSDOF 6
