REMARK  Name = 
REMARK  7 active torsions:
REMARK  status: ('A' for Active; 'I' for Inactive)
REMARK    1  A    between atoms: C_2  and  C_16
REMARK    2  A    between atoms: C_7  and  C_9
REMARK    3  A    between atoms: C_9  and  C_10
REMARK    4  A    between atoms: C_10  and  C_11
REMARK    5  A    between atoms: N_18  and  C_19
REMARK    6  A    between atoms: C_19  and  C_20
REMARK    7  A    between atoms: C_23  and  C_26
REMARK                            x       y       z     vdW  Elec       q    Type
REMARK                         _______ _______ _______ _____ _____    ______ ____
ROOT
ATOM      1  C   UNL     1       2.600   0.077  -1.540  0.00  0.00    +0.234 C 
ATOM      2  N   UNL     1       2.440   1.338  -2.088  0.00  0.00    -0.310 N 
ATOM      3  H   UNL     1       2.327   2.145  -1.496  0.00  0.00    +0.149 HD
ATOM      4  O   UNL     1       2.964  -0.883  -2.218  0.00  0.00    -0.274 OA
ENDROOT
BRANCH   1   5
ATOM      5  C   UNL     1       2.130  -0.074  -0.069  0.00  0.00    +0.162 C 
ATOM      6  N   UNL     1       2.680  -1.290   0.540  0.00  0.00    -0.290 N 
ATOM      7  C   UNL     1       2.228  -2.588   0.439  0.00  0.00    +0.216 C 
ATOM      8  O   UNL     1       2.759  -3.495   1.085  0.00  0.00    -0.276 OA
ATOM      9  C   UNL     1       3.786  -0.978   1.431  0.00  0.00    +0.108 C 
ATOM     10  C   UNL     1       4.002   0.518   1.291  0.00  0.00    +0.021 C 
ATOM     11  C   UNL     1       2.630   1.027   0.873  0.00  0.00    +0.033 C 
BRANCH   7  12
ATOM     12  C   UNL     1       1.071  -2.879  -0.504  0.00  0.00    +0.096 C 
BRANCH  12  13
ATOM     13  C   UNL     1       0.164  -4.004   0.011  0.00  0.00    +0.013 C 
BRANCH  13  14
ATOM     14  C   UNL     1      -0.540  -3.675   1.334  0.00  0.00    -0.011 C 
ATOM     15  C   UNL     1      -1.501  -4.782   1.788  0.00  0.00    +0.003 C 
ATOM     16  C   UNL     1      -2.624  -4.080   2.557  0.00  0.00    +0.000 C 
ATOM     17  C   UNL     1      -2.309  -2.591   2.507  0.00  0.00    +0.000 C 
ATOM     18  C   UNL     1      -1.423  -2.431   1.283  0.00  0.00    +0.003 C 
ENDBRANCH  13  14
ENDBRANCH  12  13
ENDBRANCH   7  12
ENDBRANCH   1   5
BRANCH   2  19
ATOM     19  C   UNL     1       2.658   1.585  -3.500  0.00  0.00    +0.139 C 
BRANCH  19  20
ATOM     20  C   UNL     1       1.604   0.947  -4.375  0.00  0.00    -0.030 A 
ATOM     21  C   UNL     1       1.944   0.500  -5.660  0.00  0.00    +0.006 A 
ATOM     22  C   UNL     1       1.014  -0.190  -6.442  0.00  0.00    +0.016 A 
ATOM     23  C   UNL     1      -0.270  -0.435  -5.949  0.00  0.00    +0.065 A 
ATOM     24  C   UNL     1      -0.644   0.071  -4.702  0.00  0.00    +0.016 A 
ATOM     25  C   UNL     1       0.284   0.769  -3.928  0.00  0.00    +0.006 A 
BRANCH  23  26
ATOM     26  C   UNL     1      -1.228  -1.247  -6.744  0.00  0.00    +0.308 C 
ATOM     27  N   UNL     1      -2.128  -2.007  -6.200  0.00  0.00    -0.099 NA
ATOM     28  H   UNL     1      -2.040  -2.015  -5.180  0.00  0.00    +0.363 HD
ATOM     29  N   UNL     1      -1.193  -1.223  -8.107  0.00  0.00    -0.247 N 
ATOM     30  H   UNL     1      -2.025  -1.658  -8.497  0.00  0.00    +0.288 HD
ATOM     31  H   UNL     1      -0.975  -0.333  -8.533  0.00  0.00    +0.288 HD
ENDBRANCH  23  26
ENDBRANCH  19  20
ENDBRANCH   2  19
TORSDOF 7
