REMARK  Name = 
REMARK  2 active torsions:
REMARK  status: ('A' for Active; 'I' for Inactive)
REMARK    1  A    between atoms: O_1  and  C_2
REMARK    2  A    between atoms: C_6  and  O_7
REMARK                            x       y       z     vdW  Elec       q    Type
REMARK                         _______ _______ _______ _____ _____    ______ ____
ROOT
ATOM      1  C   UNL     1       2.187   0.034   0.111  0.00  0.00    +0.117 A 
ATOM      2  C   UNL     1       2.913  -1.150   0.092  0.00  0.00    +0.054 A 
ATOM      3  C   UNL     1       4.315  -1.127   0.028  0.00  0.00    -0.011 A 
ATOM      4  C   UNL     1       4.999   0.114   0.007  0.00  0.00    +0.024 A 
ATOM      5  C   UNL     1       6.413   0.085  -0.047  0.00  0.00    +0.125 A 
ATOM      6  C   UNL     1       7.119  -1.113  -0.125  0.00  0.00    +0.046 A 
ATOM      7  C   UNL     1       6.434  -2.322  -0.113  0.00  0.00    +0.004 A 
ATOM      8  C   UNL     1       4.227   1.301   0.020  0.00  0.00    +0.015 A 
ATOM      9  C   UNL     1       5.042  -2.328  -0.026  0.00  0.00    +0.009 A 
ATOM     10  C   UNL     1       2.831   1.262   0.072  0.00  0.00    +0.046 A 
ENDROOT
BRANCH   1  11
ATOM     11  O   UNL     1       0.827  -0.054   0.154  0.00  0.00    -0.507 OA
ATOM     12  H   UNL     1       0.454   0.841   0.100  0.00  0.00    +0.292 HD
ENDBRANCH   1  11
BRANCH   5  13
ATOM     13  O   UNL     1       7.180   1.220  -0.016  0.00  0.00    -0.506 OA
ATOM     14  H   UNL     1       6.683   1.905   0.457  0.00  0.00    +0.292 HD
ENDBRANCH   5  13
TORSDOF 2
