REMARK  Name = 
REMARK  5 active torsions:
REMARK  status: ('A' for Active; 'I' for Inactive)
REMARK    1  A    between atoms: C_1  and  S_2
REMARK    2  A    between atoms: S_2  and  C_5
REMARK    3  A    between atoms: C_7  and  N_8
REMARK    4  A    between atoms: C_11  and  N_12
REMARK    5  A    between atoms: N_12  and  C_13
REMARK                            x       y       z     vdW  Elec       q    Type
REMARK                         _______ _______ _______ _____ _____    ______ ____
ROOT
ATOM      1  N   UNL     1       4.875   1.451   4.514  0.00  0.00    -0.284 N 
ATOM      2  H   UNL     1       5.813   1.152   4.755  0.00  0.00    +0.155 HD
ATOM      3  C   UNL     1       4.965   2.823   4.243  0.00  0.00    +0.221 A 
ATOM      4  N   UNL     1       3.919   3.511   3.763  0.00  0.00    -0.223 NA
ATOM      5  C   UNL     1       4.123   4.796   3.442  0.00  0.00    +0.118 A 
ATOM      6  C   UNL     1       5.339   5.414   3.560  0.00  0.00    +0.063 A 
ATOM      7  C   UNL     1       6.376   4.633   4.026  0.00  0.00    +0.128 A 
ATOM      8  N   UNL     1       6.181   3.363   4.424  0.00  0.00    -0.199 NA
ENDROOT
BRANCH   1  13
ATOM      9  C   UNL     1       2.177  -0.252   2.564  0.00  0.00    +0.090 A 
ATOM     10  C   UNL     1       2.635  -1.567   2.556  0.00  0.00    +0.027 A 
ATOM     11  C   UNL     1       3.811  -1.874   3.235  0.00  0.00    +0.004 A 
ATOM     12  C   UNL     1       4.527  -0.864   3.889  0.00  0.00    +0.023 A 
ATOM     13  C   UNL     1       4.094   0.473   3.871  0.00  0.00    +0.035 A 
ATOM     14  C   UNL     1       2.877   0.752   3.242  0.00  0.00    +0.050 A 
BRANCH   9  16
ATOM     15  C   UNL     1       1.278   1.322   0.438  0.00  0.00    +0.200 C 
ATOM     16  S   UNL     1       0.703   0.188   1.677  0.00  0.00    -0.006 S 
ATOM     17  O   UNL     1       0.230  -1.000   0.990  0.00  0.00    -0.170 OA
ATOM     18  O   UNL     1      -0.158   0.908   2.595  0.00  0.00    -0.170 OA
ENDBRANCH   9  16
ENDBRANCH   1  13
BRANCH   7  19
ATOM     19  N   UNL     1       7.669   5.200   4.006  0.00  0.00    -0.295 N 
ATOM     20  H   UNL     1       7.712   6.023   4.602  0.00  0.00    +0.154 HD
BRANCH  19  21
ATOM     21  C   UNL     1       8.924   4.557   3.911  0.00  0.00    +0.097 A 
ATOM     22  C   UNL     1      10.032   5.200   4.464  0.00  0.00    +0.189 A 
ATOM     23  O   UNL     1      10.001   6.405   5.113  0.00  0.00    -0.451 OA
ATOM     24  C   UNL     1      11.405   6.617   5.367  0.00  0.00    +0.466 C 
ATOM     25  O   UNL     1      12.233   5.506   4.972  0.00  0.00    -0.453 OA
ATOM     26  C   UNL     1      11.312   4.693   4.391  0.00  0.00    +0.168 A 
ATOM     27  C   UNL     1      11.586   3.502   3.765  0.00  0.00    +0.051 A 
ATOM     28  C   UNL     1      10.519   2.842   3.155  0.00  0.00    +0.025 A 
ATOM     29  C   UNL     1       9.209   3.375   3.197  0.00  0.00    +0.066 A 
ATOM     30 CL   UNL     1       8.057   2.558   2.190  0.00  0.00    -0.081 Cl
ENDBRANCH  19  21
ENDBRANCH   7  19
TORSDOF 4
