REMARK  Name = 
REMARK  5 active torsions:
REMARK  status: ('A' for Active; 'I' for Inactive)
REMARK    1  A    between atoms: C_1  and  C_2
REMARK    2  A    between atoms: C_2  and  C_3
REMARK    3  A    between atoms: C_3  and  C_4
REMARK    4  A    between atoms: C_3  and  N_6
REMARK    5  A    between atoms: C_4  and  C_5
REMARK                            x       y       z     vdW  Elec       q    Type
REMARK                         _______ _______ _______ _____ _____    ______ ____
ROOT
ATOM      1  N   UNL     1       4.580  -0.861   1.212  0.00  0.00    -0.344 N 
ATOM      2  C   UNL     1       5.445  -1.947   1.212  0.00  0.00    +0.050 A 
ATOM      3  C   UNL     1       5.200  -3.322   1.161  0.00  0.00    +0.028 A 
ATOM      4  C   UNL     1       6.302  -4.186   1.147  0.00  0.00    +0.030 A 
ATOM      5  C   UNL     1       7.612  -3.739   1.178  0.00  0.00    +0.079 A 
ATOM      6  N   UNL     1       8.590  -4.652   1.126  0.00  0.00    -0.215 NA
ATOM      7  C   UNL     1       9.848  -4.213   1.139  0.00  0.00    +0.215 A 
ATOM      8  N   UNL     1      10.853  -5.155   1.048  0.00  0.00    -0.327 N 
ATOM      9  H   UNL     1      10.516  -6.049   1.376  0.00  0.00    +0.145 HD
ATOM     10  H   UNL     1      11.700  -4.794   1.464  0.00  0.00    +0.145 HD
ATOM     11  N   UNL     1      10.212  -2.940   1.255  0.00  0.00    -0.199 NA
ATOM     12  C   UNL     1       9.228  -2.031   1.301  0.00  0.00    +0.130 A 
ATOM     13  N   UNL     1       9.688  -0.714   1.409  0.00  0.00    -0.343 N 
ATOM     14  H   UNL     1      10.704  -0.757   1.384  0.00  0.00    +0.144 HD
ATOM     15  H   UNL     1       9.326  -0.148   0.650  0.00  0.00    +0.144 HD
ATOM     16  C   UNL     1       7.863  -2.363   1.256  0.00  0.00    +0.049 A 
ATOM     17  C   UNL     1       6.755  -1.442   1.275  0.00  0.00    +0.012 A 
ATOM     18  C   UNL     1       6.635  -0.025   1.351  0.00  0.00    +0.028 A 
ATOM     19  C   UNL     1       5.305   0.302   1.287  0.00  0.00    +0.087 A 
ENDROOT
BRANCH   1  20
ATOM     20  C   UNL     1       3.107  -0.901   1.164  0.00  0.00    +0.087 C 
BRANCH  20  22
ATOM     21  C   UNL     1       1.023  -0.348   2.590  0.00  0.00    +0.006 C 
ATOM     22  C   UNL     1       2.538  -0.279   2.462  0.00  0.00    +0.022 C 
ENDBRANCH  20  22
BRANCH  20  23
ATOM     23  C   UNL     1       2.549  -0.217  -0.105  0.00  0.00    +0.022 C 
ATOM     24  C   UNL     1       3.009  -0.854  -1.411  0.00  0.00    +0.006 C 
ENDBRANCH  20  23
ENDBRANCH   1  20
TORSDOF 3
