REMARK  Name = 
REMARK  5 active torsions:
REMARK  status: ('A' for Active; 'I' for Inactive)
REMARK    1  A    between atoms: O_1  and  C_2
REMARK    2  A    between atoms: C_2  and  C_4
REMARK    3  A    between atoms: C_4  and  N_5
REMARK    4  A    between atoms: C_7  and  C_8
REMARK    5  A    between atoms: C_8  and  C_9
REMARK                            x       y       z     vdW  Elec       q    Type
REMARK                         _______ _______ _______ _____ _____    ______ ____
ROOT
ATOM      1  N   UNL     1       4.498  -0.962  -0.245  0.00  0.00    -0.336 N 
ATOM      2  C   UNL     1       5.073   0.292  -0.273  0.00  0.00    +0.050 A 
ATOM      3  C   UNL     1       4.507   1.566  -0.451  0.00  0.00    +0.026 A 
ATOM      4  C   UNL     1       5.347   2.679  -0.368  0.00  0.00    +0.002 A 
ATOM      5  C   UNL     1       6.703   2.529  -0.099  0.00  0.00    +0.001 A 
ATOM      6  C   UNL     1       7.263   1.255   0.046  0.00  0.00    +0.010 A 
ATOM      7  C   UNL     1       6.444   0.110  -0.062  0.00  0.00    +0.003 A 
ATOM      8  C   UNL     1       6.700  -1.303  -0.064  0.00  0.00    -0.016 A 
ATOM      9  C   UNL     1       5.469  -1.924  -0.165  0.00  0.00    +0.091 A 
ENDROOT
BRANCH   1  10
ATOM     10  C   UNL     1       3.070  -1.243  -0.287  0.00  0.00    +0.242 C 
BRANCH  10  11
ATOM     11  C   UNL     1       2.421  -1.330   1.073  0.00  0.00    +0.325 C 
ATOM     12  O   UNL     1       1.425  -2.015   1.276  0.00  0.00    -0.249 OA
BRANCH  11  13
ATOM     13  O   UNL     1       2.929  -0.544   2.049  0.00  0.00    -0.479 OA
ATOM     14  H   UNL     1       3.722  -0.022   1.814  0.00  0.00    +0.295 HD
ENDBRANCH  11  13
ENDBRANCH  10  11
ENDBRANCH   1  10
BRANCH   8  15
ATOM     15  C   UNL     1       8.044  -1.971  -0.088  0.00  0.00    +0.100 C 
BRANCH  15  16
ATOM     16  C   UNL     1       8.255  -3.044   0.943  0.00  0.00    +0.084 A 
ATOM     17  S   UNL     1       8.873  -2.656   2.499  0.00  0.00    -0.069 S 
ATOM     18  C   UNL     1       9.046  -4.334   2.856  0.00  0.00    +0.077 A 
ATOM     19  C   UNL     1       9.578  -4.961   3.995  0.00  0.00    +0.142 A 
ATOM     20  C   UNL     1       9.646  -6.350   4.053  0.00  0.00    +0.081 A 
ATOM     21  C   UNL     1       9.175  -7.102   2.989  0.00  0.00    +0.163 A 
ATOM     22  C   UNL     1       8.633  -6.492   1.858  0.00  0.00    +0.185 A 
ATOM     23  F   UNL     1       8.194  -7.253   0.843  0.00  0.00    -0.200 F 
ATOM     24  F   UNL     1       9.263  -8.438   3.049  0.00  0.00    -0.202 F 
ATOM     25  F   UNL     1      10.048  -4.241   5.023  0.00  0.00    -0.204 F 
ATOM     26  C   UNL     1       8.569  -5.084   1.777  0.00  0.00    +0.119 A 
ATOM     27  N   UNL     1       8.102  -4.332   0.707  0.00  0.00    -0.241 NA
ENDBRANCH  15  16
ENDBRANCH   8  15
TORSDOF 5
