REMARK  Name = 
REMARK  10 active torsions:
REMARK  status: ('A' for Active; 'I' for Inactive)
REMARK    1  A    between atoms: C_2  and  C_3
REMARK    2  A    between atoms: C_2  and  N_4
REMARK    3  A    between atoms: C_2  and  C_30
REMARK    4  A    between atoms: C_7  and  C_8
REMARK    5  A    between atoms: C_7  and  C_11
REMARK    6  A    between atoms: C_14  and  O_15
REMARK    7  A    between atoms: O_15  and  C_16
REMARK    8  A    between atoms: C_16  and  C_17
REMARK    9  A    between atoms: C_19  and  C_20
REMARK   10  A    between atoms: N_32  and  O_33
REMARK                            x       y       z     vdW  Elec       q    Type
REMARK                         _______ _______ _______ _____ _____    ______ ____
ROOT
ATOM      1  C   UNL     1       2.700  -4.037   2.811  0.00  0.00    -0.032 A 
ATOM      2  C   UNL     1       1.408  -4.401   3.246  0.00  0.00    +0.008 A 
ATOM      3  C   UNL     1       1.195  -4.928   4.526  0.00  0.00    +0.046 A 
ATOM      4  C   UNL     1       2.264  -5.087   5.403  0.00  0.00    +0.121 A 
ATOM      5  C   UNL     1       3.551  -4.767   4.972  0.00  0.00    +0.046 A 
ATOM      6  C   UNL     1       3.764  -4.233   3.699  0.00  0.00    +0.008 A 
ENDROOT
BRANCH   1  10
ATOM      7  N   UNL     1       4.745  -4.321   0.202  0.00  0.00    -0.289 N 
ATOM      8  C   UNL     1       4.375  -3.247   1.002  0.00  0.00    +0.226 C 
ATOM      9  O   UNL     1       5.093  -2.289   1.255  0.00  0.00    -0.275 OA
ATOM     10  C   UNL     1       2.907  -3.428   1.422  0.00  0.00    +0.071 C 
ATOM     11  C   UNL     1       2.226  -2.058   1.327  0.00  0.00    +0.026 C 
ATOM     12  C   UNL     1       2.427  -4.380   0.302  0.00  0.00    +0.039 C 
ATOM     13  C   UNL     1       3.646  -5.234   0.007  0.00  0.00    +0.110 C 
BRANCH   7  14
ATOM     14  C   UNL     1       5.920  -4.324  -0.672  0.00  0.00    +0.161 C 
ATOM     15  C   UNL     1       7.243  -4.058   0.040  0.00  0.00    +0.038 C 
BRANCH  14  16
ATOM     16  C   UNL     1       5.672  -3.356  -1.845  0.00  0.00    +0.256 C 
ATOM     17  N   UNL     1       5.932  -2.027  -1.585  0.00  0.00    -0.196 N 
ATOM     18  H   UNL     1       5.859  -1.672  -0.628  0.00  0.00    +0.182 HD
ATOM     19  O   UNL     1       5.182  -3.719  -2.917  0.00  0.00    -0.272 OA
BRANCH  17  20
ATOM     20  O   UNL     1       5.564  -1.126  -2.614  0.00  0.00    -0.295 OA
ATOM     21  H   UNL     1       5.247  -1.728  -3.322  0.00  0.00    +0.241 HD
ENDBRANCH  17  20
ENDBRANCH  14  16
ENDBRANCH   7  14
ENDBRANCH   1  10
BRANCH   4  22
ATOM     22  O   UNL     1       1.956  -5.546   6.658  0.00  0.00    -0.487 OA
BRANCH  22  23
ATOM     23  C   UNL     1       2.924  -5.210   7.657  0.00  0.00    +0.265 C 
BRANCH  23  24
ATOM     24  C   UNL     1       2.346  -5.293   9.052  0.00  0.00    +0.000 A 
ATOM     25  C   UNL     1       1.265  -4.486   9.481  0.00  0.00    +0.007 A 
ATOM     26  C   UNL     1       0.879  -4.587  10.837  0.00  0.00    +0.072 A 
ATOM     27  C   UNL     1      -0.175  -3.806  11.292  0.00  0.00    +0.028 A 
ATOM     28  C   UNL     1      -0.859  -2.918  10.458  0.00  0.00    +0.002 A 
ATOM     29  C   UNL     1      -0.480  -2.803   9.128  0.00  0.00    +0.001 A 
ATOM     30  N   UNL     1       1.505  -5.387  11.719  0.00  0.00    -0.252 NA
ATOM     31  C   UNL     1       2.548  -6.133  11.298  0.00  0.00    +0.039 A 
ATOM     32  C   UNL     1       3.246  -6.961  12.334  0.00  0.00    +0.065 C 
ATOM     33  C   UNL     1       0.571  -3.578   8.644  0.00  0.00    +0.010 A 
ATOM     34  C   UNL     1       2.986  -6.122   9.982  0.00  0.00    +0.030 A 
ENDBRANCH  23  24
ENDBRANCH  22  23
ENDBRANCH   4  22
TORSDOF 7
