REMARK  Name = 
REMARK  3 active torsions:
REMARK  status: ('A' for Active; 'I' for Inactive)
REMARK    1  A    between atoms: O_1  and  C_2
REMARK    2  A    between atoms: C_6  and  N_7
REMARK    3  A    between atoms: C_8  and  C_10
REMARK                            x       y       z     vdW  Elec       q    Type
REMARK                         _______ _______ _______ _____ _____    ______ ____
ROOT
ATOM      1  N   UNL     1       6.647  -0.035  -0.029  0.00  0.00    -0.281 N 
ATOM      2  H   UNL     1       7.061   0.847  -0.312  0.00  0.00    +0.155 HD
ATOM      3  C   UNL     1       7.500  -1.114   0.132  0.00  0.00    +0.250 C 
ATOM      4  O   UNL     1       7.142  -2.274   0.314  0.00  0.00    -0.270 OA
ENDROOT
BRANCH   1   9
ATOM      5  C   UNL     1       2.419  -0.058   0.032  0.00  0.00    +0.145 A 
ATOM      6  C   UNL     1       3.127   1.033  -0.473  0.00  0.00    +0.062 A 
ATOM      7 BR   UNL     1       2.231   2.538  -1.203  0.00  0.00    -0.046 Br
ATOM      8  C   UNL     1       4.529   1.032  -0.466  0.00  0.00    +0.042 A 
ATOM      9  C   UNL     1       5.234  -0.075   0.024  0.00  0.00    +0.036 A 
ATOM     10  C   UNL     1       4.518  -1.156   0.544  0.00  0.00    +0.042 A 
ATOM     11  C   UNL     1       3.122  -1.147   0.548  0.00  0.00    +0.062 A 
ATOM     12 BR   UNL     1       2.203  -2.642   1.270  0.00  0.00    -0.046 Br
BRANCH   5  13
ATOM     13  O   UNL     1       1.050  -0.050   0.017  0.00  0.00    -0.505 OA
ATOM     14  H   UNL     1       0.744  -0.896   0.394  0.00  0.00    +0.292 HD
ENDBRANCH   5  13
ENDBRANCH   1   9
BRANCH   3  15
ATOM     15  C   UNL     1       8.970  -0.858   0.092  0.00  0.00    +0.057 A 
ATOM     16  C   UNL     1       9.610   0.168  -0.617  0.00  0.00    +0.053 A 
ATOM     17 CL   UNL     1       8.776   1.329  -1.589  0.00  0.00    -0.083 Cl
ATOM     18  C   UNL     1      11.009   0.270  -0.592  0.00  0.00    +0.022 A 
ATOM     19  C   UNL     1      11.777  -0.644   0.133  0.00  0.00    +0.021 A 
ATOM     20  C   UNL     1      11.149  -1.667   0.832  0.00  0.00    +0.042 A 
ATOM     21 CL   UNL     1      12.088  -2.802   1.718  0.00  0.00    -0.084 Cl
ATOM     22  C   UNL     1       9.761  -1.779   0.812  0.00  0.00    +0.034 A 
ENDBRANCH   3  15
TORSDOF 3
