REMARK  Name = 
REMARK  9 active torsions:
REMARK  status: ('A' for Active; 'I' for Inactive)
REMARK    1  A    between atoms: C_2  and  N_3
REMARK    2  A    between atoms: C_2  and  C_4
REMARK    3  A    between atoms: C_2  and  C_18
REMARK    4  A    between atoms: C_4  and  S_5
REMARK    5  A    between atoms: S_5  and  C_6
REMARK    6  A    between atoms: C_6  and  C_7
REMARK    7  A    between atoms: C_7  and  C_8
REMARK    8  A    between atoms: C_8  and  C_10
REMARK    9  A    between atoms: C_18  and  O_19
REMARK                            x       y       z     vdW  Elec       q    Type
REMARK                         _______ _______ _______ _____ _____    ______ ____
ROOT
ATOM      1  C   UNK     1       2.605   4.065   1.299  0.00  0.00    +0.077 C 
ENDROOT
BRANCH   1   2
ATOM      2  S   UNK     1       2.048   2.801   0.102  0.00  0.00    -0.158 S 
BRANCH   2   3
ATOM      3  C   UNK     1       2.631   1.283   0.941  0.00  0.00    +0.099 C 
BRANCH   3   4
ATOM      4  C   UNK     1       2.096   1.037   2.359  0.00  0.00    +0.170 C 
BRANCH   4   5
ATOM      5  N   UNK     1       2.736  -0.159   2.960  0.00  0.00    -0.318 NA
ATOM      6  H   UNK     1       2.344  -0.360   3.880  0.00  0.00    +0.119 HD
ATOM      7  H   UNK     1       2.751  -0.985   2.374  0.00  0.00    +0.119 HD
ENDBRANCH   4   5
BRANCH   4   8
ATOM      8  C   UNK     1       0.563   0.921   2.371  0.00  0.00    +0.323 C 
ATOM      9  O   UNK     1      -0.194   1.869   2.522  0.00  0.00    -0.249 OA
BRANCH   8  10
ATOM     10  O   UNK     1       0.100  -0.340   2.197  0.00  0.00    -0.480 OA
ATOM     11  H   UNK     1       0.821  -0.985   2.110  0.00  0.00    +0.295 HD
ENDBRANCH   8  10
ENDBRANCH   4   8
ENDBRANCH   3   4
ENDBRANCH   2   3
ENDBRANCH   1   2
BRANCH   1  12
ATOM     12  C   UNK     1       2.132   5.435   0.840  0.00  0.00    +0.090 C 
BRANCH  12  13
ATOM     13  C   UNK     1       2.602   6.520   1.790  0.00  0.00    +0.164 C 
ATOM     14  O   UNK     1       3.263   6.273   2.798  0.00  0.00    -0.292 OA
BRANCH  13  15
ATOM     15  C   UNK     1       2.257   7.941   1.475  0.00  0.00    +0.019 A 
ATOM     16  C   UNK     1       2.745   8.952   2.318  0.00  0.00    +0.032 A 
ATOM     17  C   UNK     1       2.467  10.296   2.045  0.00  0.00    +0.060 A 
ATOM     18 CL   UNK     1       3.107  11.483   3.125  0.00  0.00    -0.082 Cl
ATOM     19  C   UNK     1       1.697  10.637   0.930  0.00  0.00    +0.059 A 
ATOM     20 CL   UNK     1       1.326  12.275   0.521  0.00  0.00    -0.082 Cl
ATOM     21  C   UNK     1       1.202   9.633   0.095  0.00  0.00    +0.022 A 
ATOM     22  C   UNK     1       1.478   8.289   0.366  0.00  0.00    +0.013 A 
ENDBRANCH  13  15
ENDBRANCH  12  13
ENDBRANCH   1  12
TORSDOF 9
