REMARK  Name = 
REMARK  6 active torsions:
REMARK  status: ('A' for Active; 'I' for Inactive)
REMARK    1  A    between atoms: O_1  and  C_2
REMARK    2  A    between atoms: C_2  and  C_4
REMARK    3  A    between atoms: C_4  and  O_5
REMARK    4  A    between atoms: C_6  and  C_8
REMARK    5  A    between atoms: C_9  and  C_10
REMARK    6  A    between atoms: C_10  and  C_12
REMARK                            x       y       z     vdW  Elec       q    Type
REMARK                         _______ _______ _______ _____ _____    ______ ____
ROOT
ATOM      1  C   UNL     1       5.251   0.193   0.024  0.00  0.00    +0.046 C 
ATOM      2  C   UNL     1       6.588   0.087  -0.031  0.00  0.00    +0.054 C 
ENDROOT
BRANCH   1   4
ATOM      3  C   UNL     1       3.063  -0.834   0.703  0.00  0.00    +0.238 C 
ATOM      4  C   UNL     1       4.406  -0.778   0.684  0.00  0.00    +0.172 C 
ATOM      5  F   UNL     1       5.069  -1.740   1.376  0.00  0.00    -0.201 F 
BRANCH   3   6
ATOM      6  C   UNL     1       2.190   0.119  -0.045  0.00  0.00    +0.375 C 
ATOM      7  O   UNL     1       2.474   0.714  -1.066  0.00  0.00    -0.242 OA
BRANCH   6   8
ATOM      8  O   UNL     1       0.962   0.158   0.528  0.00  0.00    -0.475 OA
ATOM      9  H   UNL     1       0.967  -0.190   1.444  0.00  0.00    +0.296 HD
ENDBRANCH   6   8
ENDBRANCH   3   6
BRANCH   3  10
ATOM     10  O   UNL     1       2.418  -1.832   1.436  0.00  0.00    -0.499 OA
ATOM     11  H   UNL     1       1.665  -2.136   0.891  0.00  0.00    +0.292 HD
ENDBRANCH   3  10
ENDBRANCH   1   4
BRANCH   2  12
ATOM     12  C   UNL     1       7.361   1.134  -0.756  0.00  0.00    +0.186 C 
ATOM     13  O   UNL     1       6.857   2.211  -1.060  0.00  0.00    -0.287 OA
BRANCH  12  14
ATOM     14  C   UNL     1       8.757   0.832  -1.174  0.00  0.00    +0.022 A 
ATOM     15  C   UNL     1       9.604  -0.030  -0.464  0.00  0.00    +0.014 A 
ATOM     16  C   UNL     1      10.892  -0.292  -0.943  0.00  0.00    +0.039 A 
ATOM     17  C   UNL     1      11.328   0.311  -2.119  0.00  0.00    +0.123 A 
ATOM     18  F   UNL     1      12.557   0.047  -2.578  0.00  0.00    -0.205 F 
ATOM     19  C   UNL     1      10.508   1.186  -2.822  0.00  0.00    +0.039 A 
ATOM     20  C   UNL     1       9.224   1.450  -2.345  0.00  0.00    +0.014 A 
ENDBRANCH  12  14
ENDBRANCH   2  12
TORSDOF 6
