REMARK  Name = 
REMARK  10 active torsions:
REMARK  status: ('A' for Active; 'I' for Inactive)
REMARK    1  A    between atoms: C_1  and  C_2
REMARK    2  A    between atoms: C_2  and  O_3
REMARK    3  A    between atoms: C_2  and  C_4
REMARK    4  A    between atoms: C_2  and  C_29
REMARK    5  A    between atoms: C_7  and  C_10
REMARK    6  A    between atoms: N_12  and  C_13
REMARK    7  A    between atoms: N_12  and  C_16
REMARK    8  A    between atoms: N_19  and  C_20
REMARK    9  A    between atoms: C_20  and  C_21
REMARK   10  A    between atoms: C_21  and  C_24
REMARK                            x       y       z     vdW  Elec       q    Type
REMARK                         _______ _______ _______ _____ _____    ______ ____
ROOT
ATOM      1  C   UNL     1       4.107   4.254   3.139  0.00  0.00    +0.247 C 
ATOM      2  N   UNL     1       5.074   4.107   4.149  0.00  0.00    -0.291 N 
ATOM      3  O   UNL     1       3.875   5.338   2.601  0.00  0.00    -0.270 OA
ENDROOT
BRANCH   1   7
ATOM      4  C   UNL     1       1.990   0.856   1.577  0.00  0.00    -0.008 A 
ATOM      5  C   UNL     1       2.568   0.800   2.857  0.00  0.00    +0.007 A 
ATOM      6  C   UNL     1       3.149   1.927   3.432  0.00  0.00    +0.013 A 
ATOM      7  C   UNL     1       3.286   3.098   2.694  0.00  0.00    +0.037 A 
ATOM      8  C   UNL     1       2.601   3.208   1.479  0.00  0.00    +0.013 A 
ATOM      9  C   UNL     1       1.951   2.102   0.932  0.00  0.00    +0.007 A 
BRANCH   4  11
ATOM     10  C   UNL     1       0.656  -0.185  -0.352  0.00  0.00    +0.056 C 
ATOM     11  C   UNL     1       1.470  -0.428   0.926  0.00  0.00    +0.183 C 
BRANCH  11  12
ATOM     12  C   UNL     1       2.644  -1.424   0.609  0.00  0.00    +0.422 C 
ATOM     13  F   UNL     1       2.618  -2.470   1.478  0.00  0.00    -0.167 F 
ATOM     14  F   UNL     1       3.870  -0.861   0.730  0.00  0.00    -0.167 F 
ATOM     15  F   UNL     1       2.573  -1.942  -0.640  0.00  0.00    -0.167 F 
ENDBRANCH  11  12
BRANCH  11  16
ATOM     16  O   UNL     1       0.509  -0.987   1.858  0.00  0.00    -0.376 OA
ATOM     17  H   UNL     1       1.007  -1.363   2.605  0.00  0.00    +0.211 HD
ENDBRANCH  11  16
ENDBRANCH   4  11
ENDBRANCH   1   7
BRANCH   2  18
ATOM     18  C   UNL     1       5.582   5.353   4.811  0.00  0.00    +0.079 C 
ATOM     19  C   UNL     1       6.329   5.070   6.130  0.00  0.00    +0.038 C 
ATOM     20  C   UNL     1       5.352   4.525   7.186  0.00  0.00    +0.086 C 
ATOM     21  N   UNL     1       4.276   5.454   7.535  0.00  0.00    -0.301 NA
ATOM     22  C   UNL     1       3.574   5.863   6.299  0.00  0.00    +0.086 C 
ATOM     23  C   UNL     1       4.501   6.396   5.200  0.00  0.00    +0.038 C 
BRANCH  21  24
ATOM     24  C   UNL     1       4.731   6.610   8.329  0.00  0.00    +0.100 C 
BRANCH  24  25
ATOM     25  C   UNL     1       5.437   6.206   9.627  0.00  0.00    +0.059 C 
ATOM     26  C   UNL     1       6.606   7.101  10.053  0.00  0.00    +0.018 C 
ATOM     27  C   UNL     1       6.900   5.731   9.555  0.00  0.00    +0.018 C 
BRANCH  25  28
ATOM     28  C   UNL     1       4.592   5.636  10.742  0.00  0.00    +0.218 C 
ATOM     29  O   UNL     1       4.934   5.697  11.915  0.00  0.00    -0.275 OA
ATOM     30  N   UNL     1       3.470   4.961  10.364  0.00  0.00    -0.329 N 
ATOM     31  H   UNL     1       2.908   4.527  11.071  0.00  0.00    +0.145 HD
ATOM     32  H   UNL     1       3.237   4.838   9.384  0.00  0.00    +0.145 HD
ENDBRANCH  25  28
ENDBRANCH  24  25
ENDBRANCH  21  24
ENDBRANCH   2  18
BRANCH   2  33
ATOM     33  C   UNL     1       5.772   2.868   4.489  0.00  0.00    +0.077 C 
ATOM     34  C   UNL     1       7.219   2.728   4.053  0.00  0.00    +0.024 C 
ATOM     35  C   UNL     1       6.223   1.693   3.673  0.00  0.00    +0.024 C 
ENDBRANCH   2  33
TORSDOF 9
