REMARK  Name = 
REMARK  10 active torsions:
REMARK  status: ('A' for Active; 'I' for Inactive)
REMARK    1  A    between atoms: C_1  and  C_2
REMARK    2  A    between atoms: C_2  and  C_3
REMARK    3  A    between atoms: C_4  and  C_11
REMARK    4  A    between atoms: C_16  and  C_17
REMARK    5  A    between atoms: C_16  and  C_18
REMARK    6  A    between atoms: N_21  and  C_22
REMARK    7  A    between atoms: C_22  and  C_23
REMARK    8  A    between atoms: C_23  and  C_24
REMARK    9  A    between atoms: C_24  and  O_25
REMARK   10  A    between atoms: O_25  and  C_26
REMARK                            x       y       z     vdW  Elec       q    Type
REMARK                         _______ _______ _______ _____ _____    ______ ____
ROOT
ATOM      1  C   UNL     1       2.695   2.956  -0.776  0.00  0.00    -0.011 A 
ATOM      2  C   UNL     1       1.990   2.681   0.421  0.00  0.00    +0.036 A 
ATOM      3  C   UNL     1       1.606   3.679   1.340  0.00  0.00    +0.079 A 
ATOM      4  C   UNL     1       2.013   4.995   1.103  0.00  0.00    +0.143 A 
ATOM      5  O   UNL     1       1.708   6.055   1.908  0.00  0.00    -0.475 OA
ATOM      6  C   UNL     1       0.644   5.811   2.825  0.00  0.00    +0.181 C 
ATOM      7  C   UNL     1       0.635   4.402   3.454  0.00  0.00    +0.263 C 
ATOM      8  O   UNL     1       0.293   4.187   4.613  0.00  0.00    -0.271 OA
ATOM      9  C   UNL     1       0.743   6.885   3.916  0.00  0.00    +0.065 C 
ATOM     10  C   UNL     1      -0.710   5.981   2.105  0.00  0.00    +0.065 C 
ATOM     11  C   UNL     1       2.770   5.293  -0.025  0.00  0.00    +0.048 A 
ATOM     12  N   UNL     1       0.854   3.392   2.517  0.00  0.00    -0.265 N 
ATOM     13  C   UNL     1       3.068   4.298  -0.963  0.00  0.00    +0.012 A 
ENDROOT
BRANCH   1  25
ATOM     14  C   UNL     1       2.145   0.841  -2.143  0.00  0.00    +0.056 A 
ATOM     15  N   UNL     1       2.496  -0.161  -2.991  0.00  0.00    -0.219 NA
ATOM     16  C   UNL     1       3.718  -0.155  -3.504  0.00  0.00    +0.214 A 
ATOM     17  N   UNL     1       4.075  -1.187  -4.341  0.00  0.00    -0.327 N 
ATOM     18  H   UNL     1       3.506  -1.996  -4.134  0.00  0.00    +0.145 HD
ATOM     19  H   UNL     1       5.078  -1.308  -4.324  0.00  0.00    +0.145 HD
ATOM     20  N   UNL     1       4.629   0.776  -3.242  0.00  0.00    -0.199 NA
ATOM     21  C   UNL     1       4.274   1.767  -2.407  0.00  0.00    +0.129 A 
ATOM     22  N   UNL     1       5.311   2.695  -2.274  0.00  0.00    -0.343 N 
ATOM     23  H   UNL     1       6.081   2.315  -2.824  0.00  0.00    +0.144 HD
ATOM     24  H   UNL     1       5.046   3.582  -2.683  0.00  0.00    +0.144 HD
ATOM     25  C   UNL     1       3.025   1.877  -1.769  0.00  0.00    +0.043 A 
BRANCH  14  27
ATOM     26  C   UNL     1      -0.203   1.817  -2.167  0.00  0.00    +0.010 C 
ATOM     27  C   UNL     1       0.711   0.701  -1.691  0.00  0.00    +0.053 C 
ENDBRANCH  14  27
ENDBRANCH   1  25
BRANCH  12  28
ATOM     28  C   UNL     1       0.222   2.104   2.749  0.00  0.00    +0.116 C 
BRANCH  28  29
ATOM     29  C   UNL     1       1.122   1.075   3.420  0.00  0.00    +0.047 C 
BRANCH  29  30
ATOM     30  C   UNL     1       0.366  -0.234   3.611  0.00  0.00    +0.161 C 
BRANCH  30  31
ATOM     31  O   UNL     1       1.257  -1.177   4.198  0.00  0.00    -0.383 OA
ATOM     32  C   UNL     1       0.625  -2.427   4.433  0.00  0.00    +0.193 C 
ENDBRANCH  30  31
ENDBRANCH  29  30
ENDBRANCH  28  29
ENDBRANCH  12  28
TORSDOF 6
