REMARK  Name = 
REMARK  12 active torsions:
REMARK  status: ('A' for Active; 'I' for Inactive)
REMARK    1  A    between atoms: C_2  and  C_3
REMARK    2  A    between atoms: C_2  and  N_14
REMARK    3  A    between atoms: C_2  and  C_29
REMARK    4  A    between atoms: C_3  and  C_4
REMARK    5  A    between atoms: C_10  and  C_11
REMARK    6  A    between atoms: N_14  and  S_15
REMARK    7  A    between atoms: S_15  and  C_18
REMARK    8  A    between atoms: C_21  and  O_22
REMARK    9  A    between atoms: O_22  and  C_23
REMARK   10  A    between atoms: C_23  and  C_24
REMARK   11  A    between atoms: C_25  and  C_26
REMARK   12  A    between atoms: C_29  and  O_30
REMARK                            x       y       z     vdW  Elec       q    Type
REMARK                         _______ _______ _______ _____ _____    ______ ____
ROOT
ATOM      1  C   UNL     1       2.186   0.096  -0.063  0.00  0.00    +0.189 C 
ENDROOT
BRANCH   1   2
ATOM      2  C   UNL     1       2.607   1.469  -0.588  0.00  0.00    +0.324 C 
ATOM      3  O   UNL     1       2.283   1.895  -1.689  0.00  0.00    -0.249 OA
BRANCH   2   4
ATOM      4  O   UNL     1       3.340   2.204   0.278  0.00  0.00    -0.479 OA
ATOM      5  H   UNL     1       3.733   1.692   1.010  0.00  0.00    +0.295 HD
ENDBRANCH   2   4
ENDBRANCH   1   2
BRANCH   1   6
ATOM      6  N   UNL     1       2.663  -0.960  -0.995  0.00  0.00    -0.176 NA
ATOM      7  H   UNL     1       2.255  -0.939  -1.934  0.00  0.00    +0.149 HD
BRANCH   6   8
ATOM      8  S   UNL     1       4.319  -1.261  -1.066  0.00  0.00    +0.059 S 
ATOM      9  O   UNL     1       5.015  -0.057  -0.676  0.00  0.00    -0.153 OA
ATOM     10  O   UNL     1       4.563  -1.925  -2.321  0.00  0.00    -0.153 OA
BRANCH   8  11
ATOM     11  C   UNL     1       4.545  -2.441   0.241  0.00  0.00    +0.105 A 
ATOM     12  C   UNL     1       4.715  -1.973   1.547  0.00  0.00    +0.032 A 
ATOM     13  C   UNL     1       4.860  -2.877   2.601  0.00  0.00    +0.047 A 
ATOM     14  C   UNL     1       4.866  -4.250   2.345  0.00  0.00    +0.122 A 
ATOM     15  C   UNL     1       4.749  -4.704   1.026  0.00  0.00    +0.047 A 
ATOM     16  C   UNL     1       4.600  -3.805  -0.034  0.00  0.00    +0.032 A 
BRANCH  14  17
ATOM     17  O   UNL     1       4.934  -5.235   3.292  0.00  0.00    -0.480 OA
BRANCH  17  18
ATOM     18  C   UNL     1       5.485  -4.878   4.559  0.00  0.00    +0.317 C 
BRANCH  18  19
ATOM     19  C   UNL     1       5.376  -6.019   5.480  0.00  0.00    -0.062 C 
ATOM     20  C   UNL     1       5.276  -6.925   6.264  0.00  0.00    -0.102 C 
ATOM     21  C   UNL     1       5.148  -8.012   7.235  0.00  0.00    +0.106 C 
ENDBRANCH  18  19
ENDBRANCH  17  18
ENDBRANCH  14  17
ENDBRANCH   8  11
ENDBRANCH   6   8
ENDBRANCH   1   6
BRANCH   1  22
ATOM     22  C   UNL     1       0.650   0.124   0.035  0.00  0.00    +0.069 C 
BRANCH  22  23
ATOM     23  C   UNL     1       0.036  -1.094   0.658  0.00  0.00    -0.020 A 
ATOM     24  C   UNL     1      -0.165  -1.342   2.056  0.00  0.00    +0.003 A 
ATOM     25  C   UNL     1       0.115  -0.618   3.235  0.00  0.00    +0.013 A 
ATOM     26  C   UNL     1      -0.212  -1.164   4.489  0.00  0.00    -0.050 A 
ATOM     27  C   UNL     1      -0.814  -2.422   4.562  0.00  0.00    +0.005 A 
ATOM     28  C   UNL     1      -1.119  -3.153   3.412  0.00  0.00    +0.026 A 
ATOM     29  C   UNL     1       0.085  -0.403   5.750  0.00  0.00    +0.044 C 
ATOM     30  C   UNL     1      -0.788  -2.585   2.175  0.00  0.00    +0.047 A 
ATOM     31  N   UNL     1      -0.987  -3.062   0.901  0.00  0.00    -0.360 N 
ATOM     32  H   UNL     1      -1.444  -3.937   0.683  0.00  0.00    +0.165 HD
ATOM     33  C   UNL     1      -0.501  -2.172  -0.018  0.00  0.00    +0.087 A 
ENDBRANCH  22  23
ENDBRANCH   1  22
TORSDOF 10
