REMARK  Name = 
REMARK  7 active torsions:
REMARK  status: ('A' for Active; 'I' for Inactive)
REMARK    1  A    between atoms: C_1  and  C_2
REMARK    2  A    between atoms: C_2  and  C_3
REMARK    3  A    between atoms: C_2  and  C_4
REMARK    4  A    between atoms: C_2  and  N_5
REMARK    5  A    between atoms: C_8  and  C_23
REMARK    6  A    between atoms: C_13  and  C_16
REMARK    7  A    between atoms: C_20  and  N_21
REMARK                            x       y       z     vdW  Elec       q    Type
REMARK                         _______ _______ _______ _____ _____    ______ ____
ROOT
ATOM      1  N   UNL     1       2.977  -0.786   1.386  0.00  0.00    -0.324 N 
ATOM      2  H   UNL     1       2.669   0.061   1.850  0.00  0.00    +0.148 HD
ATOM      3  C   UNL     1       4.361  -0.954   1.576  0.00  0.00    +0.131 A 
ATOM      4  C   UNL     1       5.213   0.163   1.659  0.00  0.00    +0.041 A 
ATOM      5  C   UNL     1       4.793   1.521   1.743  0.00  0.00    +0.022 A 
ATOM      6  C   UNL     1       5.686   2.608   1.714  0.00  0.00    -0.017 A 
ATOM      7  C   UNL     1       7.047   2.284   1.679  0.00  0.00    +0.010 A 
ATOM      8  C   UNL     1       7.476   0.948   1.666  0.00  0.00    +0.029 A 
ATOM      9  C   UNL     1       6.584  -0.114   1.651  0.00  0.00    +0.077 A 
ATOM     10  N   UNL     1       7.074  -1.353   1.612  0.00  0.00    -0.224 NA
ATOM     11  C   UNL     1       6.193  -2.375   1.563  0.00  0.00    +0.236 A 
ATOM     12  N   UNL     1       4.857  -2.195   1.545  0.00  0.00    -0.209 NA
ENDROOT
BRANCH   6  13
ATOM     13  C   UNL     1       5.196   4.009   1.646  0.00  0.00    -0.016 A 
ATOM     14  C   UNL     1       5.959   5.103   2.102  0.00  0.00    +0.031 A 
ATOM     15  C   UNL     1       5.540   6.430   1.919  0.00  0.00    +0.025 A 
ATOM     16  C   UNL     1       4.268   6.676   1.401  0.00  0.00    +0.023 A 
ATOM     17  C   UNL     1       3.475   5.619   0.970  0.00  0.00    +0.002 A 
ATOM     18  C   UNL     1       3.943   4.306   1.075  0.00  0.00    +0.008 A 
BRANCH  15  19
ATOM     19  N   UNL     1       6.293   7.490   2.446  0.00  0.00    -0.358 N 
ATOM     20  H   UNL     1       7.288   7.298   2.490  0.00  0.00    +0.142 HD
ATOM     21  H   UNL     1       6.097   8.380   1.997  0.00  0.00    +0.142 HD
ENDBRANCH  15  19
ENDBRANCH   6  13
BRANCH   1  23
ATOM     22  C   UNL     1       2.105  -2.175   3.221  0.00  0.00    +0.031 C 
ATOM     23  C   UNL     1       2.031  -1.879   1.715  0.00  0.00    +0.025 C 
ATOM     24  C   UNL     1       0.615  -1.344   1.398  0.00  0.00    +0.031 C 
ATOM     25  C   UNL     1       2.221  -3.146   0.869  0.00  0.00    +0.031 C 
ENDBRANCH   1  23
BRANCH  11  26
ATOM     26  C   UNL     1       6.732  -3.809   1.524  0.00  0.00    +0.452 C 
ATOM     27  F   UNL     1       7.435  -4.145   2.648  0.00  0.00    -0.163 F 
ATOM     28  F   UNL     1       7.577  -4.041   0.477  0.00  0.00    -0.163 F 
ATOM     29  F   UNL     1       5.756  -4.766   1.415  0.00  0.00    -0.163 F 
ENDBRANCH  11  26
TORSDOF 4
