REMARK  Name = 
REMARK  8 active torsions:
REMARK  status: ('A' for Active; 'I' for Inactive)
REMARK    1  A    between atoms: C_1  and  C_2
REMARK    2  A    between atoms: C_2  and  S_3
REMARK    3  A    between atoms: S_3  and  C_6
REMARK    4  A    between atoms: C_9  and  O_10
REMARK    5  A    between atoms: O_10  and  C_11
REMARK    6  A    between atoms: C_12  and  N_13
REMARK    7  A    between atoms: C_17  and  C_19
REMARK    8  A    between atoms: C_23  and  C_25
REMARK                            x       y       z     vdW  Elec       q    Type
REMARK                         _______ _______ _______ _____ _____    ______ ____
ROOT
ATOM      1  N   UNL     1       7.588  -3.274  -1.746  0.00  0.00    -0.266 N 
ATOM      2  H   UNL     1       8.542  -3.200  -2.082  0.00  0.00    +0.157 HD
ATOM      3  C   UNL     1       7.005  -4.489  -1.750  0.00  0.00    +0.292 A 
ATOM      4  O   UNL     1       7.673  -5.473  -2.435  0.00  0.00    -0.424 OA
ATOM      5  C   UNL     1       6.856  -6.581  -2.361  0.00  0.00    +0.157 A 
ATOM      6  C   UNL     1       5.782  -6.222  -1.578  0.00  0.00    +0.163 A 
ATOM      7  N   UNL     1       5.869  -4.899  -1.225  0.00  0.00    -0.203 NA
ENDROOT
BRANCH   1  10
ATOM      8  C   UNL     1       4.959  -0.617  -1.549  0.00  0.00    +0.090 A 
ATOM      9  C   UNL     1       5.561  -1.879  -1.551  0.00  0.00    +0.054 A 
ATOM     10  C   UNL     1       6.952  -2.010  -1.655  0.00  0.00    +0.079 A 
ATOM     11  C   UNL     1       7.735  -0.827  -1.659  0.00  0.00    +0.141 A 
ATOM     12  C   UNL     1       7.120   0.433  -1.579  0.00  0.00    +0.049 A 
ATOM     13  C   UNL     1       5.730   0.541  -1.541  0.00  0.00    +0.030 A 
BRANCH   8  14
ATOM     14  S   UNL     1       3.191  -0.508  -1.684  0.00  0.00    -0.003 S 
ATOM     15  O   UNL     1       2.632  -1.167  -0.522  0.00  0.00    -0.169 OA
ATOM     16  O   UNL     1       2.871   0.876  -1.988  0.00  0.00    -0.169 OA
BRANCH  14  18
ATOM     17  C   UNL     1       1.377  -1.392  -3.537  0.00  0.00    +0.028 C 
ATOM     18  C   UNL     1       2.834  -1.480  -3.142  0.00  0.00    +0.168 C 
ENDBRANCH  14  18
ENDBRANCH   8  14
BRANCH  11  19
ATOM     19  O   UNL     1       9.097  -1.010  -1.774  0.00  0.00    -0.493 OA
ATOM     20  C   UNL     1       9.900   0.168  -1.809  0.00  0.00    +0.277 C 
ENDBRANCH  11  19
ENDBRANCH   1  10
BRANCH   5  21
ATOM     21  C   UNL     1       7.260  -7.777  -3.099  0.00  0.00    +0.020 A 
ATOM     22  C   UNL     1       6.464  -8.943  -3.107  0.00  0.00    +0.021 A 
ATOM     23  C   UNL     1       6.796 -10.082  -3.881  0.00  0.00    +0.001 A 
ATOM     24  C   UNL     1       8.001 -10.034  -4.605  0.00  0.00    +0.010 A 
ATOM     25  C   UNL     1       8.803  -8.894  -4.608  0.00  0.00    +0.001 A 
ATOM     26  C   UNL     1       8.429  -7.772  -3.870  0.00  0.00    +0.011 A 
BRANCH  23  27
ATOM     27  C   UNL     1       5.888 -11.255  -3.968  0.00  0.00    +0.071 A 
ATOM     28  N   UNL     1       5.095 -11.492  -2.891  0.00  0.00    -0.255 NA
ATOM     29  C   UNL     1       4.223 -12.527  -2.963  0.00  0.00    +0.111 A 
ATOM     30  C   UNL     1       4.078 -13.346  -4.066  0.00  0.00    +0.020 A 
ATOM     31  C   UNL     1       4.888 -13.103  -5.166  0.00  0.00    +0.004 A 
ATOM     32  C   UNL     1       5.802 -12.051  -5.115  0.00  0.00    +0.028 A 
ENDBRANCH  23  27
ENDBRANCH   5  21
TORSDOF 6
