REMARK  Name = 
REMARK  9 active torsions:
REMARK  status: ('A' for Active; 'I' for Inactive)
REMARK    1  A    between atoms: C_2  and  C_3
REMARK    2  A    between atoms: C_2  and  O_4
REMARK    3  A    between atoms: C_2  and  C_5
REMARK    4  A    between atoms: C_5  and  C_7
REMARK    5  A    between atoms: C_5  and  N_20
REMARK    6  A    between atoms: C_7  and  C_8
REMARK    7  A    between atoms: C_8  and  O_9
REMARK    8  A    between atoms: O_9  and  C_10
REMARK    9  A    between atoms: C_23  and  C_25
REMARK                            x       y       z     vdW  Elec       q    Type
REMARK                         _______ _______ _______ _____ _____    ______ ____
ROOT
ATOM      1  C   UNL     1       2.638  -0.622  -1.322  0.00  0.00    +0.120 C 
ENDROOT
BRANCH   1   2
ATOM      2  N   UNL     1       2.384   0.153  -0.101  0.00  0.00    -0.330 N 
ATOM      3  C   UNL     1       3.119   1.236   0.307  0.00  0.00    +0.120 A 
ATOM      4  C   UNL     1       2.550   1.646   1.496  0.00  0.00    +0.143 A 
ATOM      5  N   UNL     1       1.473   0.833   1.808  0.00  0.00    -0.231 NA
ATOM      6  C   UNL     1       1.393  -0.033   0.823  0.00  0.00    +0.200 A 
BRANCH   4   7
ATOM      7  C   UNL     1       2.974   2.760   2.341  0.00  0.00    +0.261 C 
ATOM      8  O   UNL     1       3.914   3.501   2.093  0.00  0.00    -0.269 OA
ATOM      9  N   UNL     1       2.208   2.901   3.464  0.00  0.00    -0.324 N 
ATOM     10  H   UNL     1       2.406   3.642   4.115  0.00  0.00    +0.145 HD
ATOM     11  H   UNL     1       1.435   2.262   3.610  0.00  0.00    +0.145 HD
ENDBRANCH   4   7
ENDBRANCH   1   2
BRANCH   1  12
ATOM     12  C   UNL     1       2.265  -2.131  -1.182  0.00  0.00    +0.134 C 
ATOM     13  C   UNL     1       2.725  -2.968  -2.372  0.00  0.00    +0.040 C 
BRANCH  12  14
ATOM     14  O   UNL     1       0.857  -2.332  -1.041  0.00  0.00    -0.390 OA
ATOM     15  H   UNL     1       0.698  -3.288  -0.936  0.00  0.00    +0.210 HD
ENDBRANCH  12  14
ENDBRANCH   1  12
BRANCH   1  16
ATOM     16  C   UNL     1       2.074   0.108  -2.561  0.00  0.00    +0.068 C 
BRANCH  16  17
ATOM     17  C   UNL     1       0.556   0.094  -2.634  0.00  0.00    +0.231 C 
BRANCH  17  18
ATOM     18  O   UNL     1       0.106   0.867  -3.748  0.00  0.00    -0.492 OA
BRANCH  18  19
ATOM     19  C   UNL     1      -1.248   0.805  -3.966  0.00  0.00    +0.121 A 
ATOM     20  C   UNL     1      -1.773   1.813  -4.770  0.00  0.00    +0.046 A 
ATOM     21  C   UNL     1      -3.136   1.830  -5.081  0.00  0.00    +0.012 A 
ATOM     22  C   UNL     1      -3.990   0.816  -4.614  0.00  0.00    -0.018 A 
ATOM     23  C   UNL     1      -5.353   0.781  -4.948  0.00  0.00    +0.008 A 
ATOM     24  C   UNL     1      -6.173  -0.255  -4.493  0.00  0.00    +0.001 A 
ATOM     25  C   UNL     1      -5.648  -1.257  -3.682  0.00  0.00    +0.001 A 
ATOM     26  C   UNL     1      -4.302  -1.227  -3.328  0.00  0.00    +0.008 A 
ATOM     27  C   UNL     1      -3.463  -0.204  -3.796  0.00  0.00    -0.014 A 
ATOM     28  C   UNL     1      -2.101  -0.190  -3.474  0.00  0.00    +0.054 A 
ENDBRANCH  18  19
ENDBRANCH  17  18
ENDBRANCH  16  17
ENDBRANCH   1  16
TORSDOF 8
