REMARK  Name = 
REMARK  5 active torsions:
REMARK  status: ('A' for Active; 'I' for Inactive)
REMARK    1  A    between atoms: C_1  and  C_2
REMARK    2  A    between atoms: C_2  and  O_3
REMARK    3  A    between atoms: C_2  and  C_4
REMARK    4  A    between atoms: C_2  and  C_7
REMARK    5  A    between atoms: C_4  and  O_5
REMARK                            x       y       z     vdW  Elec       q    Type
REMARK                         _______ _______ _______ _____ _____    ______ ____
ROOT
ATOM      1  C   UNL     1       0.944  -0.211  -0.033  0.00  0.00    +0.059 C 
ATOM      2  C   UNL     1       2.464  -0.035  -0.043  0.00  0.00    +0.184 C 
ENDROOT
BRANCH   2   3
ATOM      3  C   UNL     1       2.869   1.169   0.801  0.00  0.00    -0.006 A 
ATOM      4  C   UNL     1       2.945   2.459   0.246  0.00  0.00    +0.007 A 
ATOM      5  C   UNL     1       3.277   3.561   1.037  0.00  0.00    +0.000 A 
ATOM      6  C   UNL     1       3.524   3.399   2.397  0.00  0.00    +0.000 A 
ATOM      7  C   UNL     1       3.441   2.133   2.969  0.00  0.00    +0.000 A 
ATOM      8  C   UNL     1       3.115   1.028   2.179  0.00  0.00    +0.007 A 
ENDBRANCH   2   3
BRANCH   2   9
ATOM      9  C   UNL     1       2.998   0.041  -1.492  0.00  0.00    +0.341 C 
ATOM     10  O   UNL     1       2.412   0.527  -2.447  0.00  0.00    -0.247 OA
BRANCH   9  11
ATOM     11  O   UNL     1       4.236  -0.520  -1.601  0.00  0.00    -0.478 OA
ATOM     12  H   UNL     1       4.505  -0.843  -0.709  0.00  0.00    +0.295 HD
ENDBRANCH   9  11
ENDBRANCH   2   9
BRANCH   2  13
ATOM     13  O   UNL     1       3.079  -1.223   0.514  0.00  0.00    -0.373 OA
ATOM     14  H   UNL     1       2.598  -1.989   0.146  0.00  0.00    +0.211 HD
ENDBRANCH   2  13
TORSDOF 4
