REMARK  Name = 
REMARK  12 active torsions:
REMARK  status: ('A' for Active; 'I' for Inactive)
REMARK    1  A    between atoms: C_1  and  C_2
REMARK    2  A    between atoms: C_2  and  C_3
REMARK    3  A    between atoms: C_4  and  C_5
REMARK    4  A    between atoms: C_9  and  N_10
REMARK    5  A    between atoms: N_10  and  C_11
REMARK    6  A    between atoms: N_10  and  C_12
REMARK    7  A    between atoms: C_12  and  C_13
REMARK    8  A    between atoms: C_13  and  O_14
REMARK    9  A    between atoms: O_14  and  C_15
REMARK   10  A    between atoms: C_16  and  C_17
REMARK   11  A    between atoms: C_17  and  C_18
REMARK   12  A    between atoms: C_22  and  C_23
REMARK                            x       y       z     vdW  Elec       q    Type
REMARK                         _______ _______ _______ _____ _____    ______ ____
ROOT
ATOM      1  C   UNL     1       3.118  -1.075   1.036  0.00  0.00    -0.023 A 
ATOM      2  C   UNL     1       2.706  -2.395   0.506  0.00  0.00    -0.012 A 
ATOM      3  C   UNL     1       2.994  -3.528   1.195  0.00  0.00    +0.099 A 
ATOM      4  C   UNL     1       3.809  -3.408   2.472  0.00  0.00    +0.270 A 
ATOM      5  O   UNL     1       3.960  -4.331   3.260  0.00  0.00    -0.266 OA
ATOM      6  N   UNL     1       4.332  -2.170   2.733  0.00  0.00    -0.325 N 
ATOM      7  H   UNL     1       4.878  -2.124   3.586  0.00  0.00    +0.169 HD
ATOM      8  C   UNL     1       3.976  -1.008   2.084  0.00  0.00    +0.020 A 
ATOM      9  C   UNL     1       4.498   0.246   2.731  0.00  0.00    +0.063 C 
ENDROOT
BRANCH   1  11
ATOM     10  C   UNL     1       1.118   0.352   1.297  0.00  0.00    +0.009 C 
ATOM     11  C   UNL     1       2.413   0.156   0.512  0.00  0.00    +0.034 C 
ENDBRANCH   1  11
BRANCH   3  12
ATOM     12  N   UNL     1       2.526  -4.801   0.819  0.00  0.00    -0.326 N 
ATOM     13  C   UNL     1       1.416  -5.367   1.597  0.00  0.00    +0.129 C 
BRANCH  12  14
ATOM     14  C   UNL     1       3.463  -5.861   0.350  0.00  0.00    +0.133 C 
BRANCH  14  15
ATOM     15  C   UNL     1       4.786  -5.366  -0.252  0.00  0.00    +0.178 C 
BRANCH  15  16
ATOM     16  O   UNL     1       5.692  -5.003   0.792  0.00  0.00    -0.381 OA
ATOM     17  C   UNL     1       6.910  -4.478   0.298  0.00  0.00    +0.194 C 
ENDBRANCH  15  16
ENDBRANCH  14  15
ENDBRANCH  12  14
ENDBRANCH   3  12
BRANCH   2  18
ATOM     18  C   UNL     1       1.830  -2.476  -0.745  0.00  0.00    +0.072 C 
BRANCH  18  19
ATOM     19  C   UNL     1       2.441  -2.275  -2.124  0.00  0.00    -0.043 A 
ATOM     20  C   UNL     1       3.817  -2.207  -2.375  0.00  0.00    +0.007 A 
ATOM     21  C   UNL     1       4.311  -2.296  -3.687  0.00  0.00    -0.050 A 
ATOM     22  C   UNL     1       5.785  -2.468  -3.919  0.00  0.00    +0.044 C 
ATOM     23  C   UNL     1       3.418  -2.357  -4.766  0.00  0.00    +0.003 A 
ATOM     24  C   UNL     1       2.047  -2.340  -4.534  0.00  0.00    +0.001 A 
ATOM     25  C   UNL     1       1.567  -2.313  -3.226  0.00  0.00    +0.004 A 
ENDBRANCH  18  19
ENDBRANCH   2  18
TORSDOF 7
