REMARK  Name = 
REMARK  6 active torsions:
REMARK  status: ('A' for Active; 'I' for Inactive)
REMARK    1  A    between atoms: O_1  and  C_2
REMARK    2  A    between atoms: C_2  and  C_4
REMARK    3  A    between atoms: C_5  and  N_6
REMARK    4  A    between atoms: C_7  and  C_9
REMARK    5  A    between atoms: C_9  and  O_10
REMARK    6  A    between atoms: O_10  and  C_11
REMARK                            x       y       z     vdW  Elec       q    Type
REMARK                         _______ _______ _______ _____ _____    ______ ____
ROOT
ATOM      1  N   UNL     1       1.578   2.689   0.846  0.00  0.00    -0.282 N 
ATOM      2  H   UNL     1       1.578   2.044   1.638  0.00  0.00    +0.155 HD
ATOM      3  C   UNL     1       0.922   3.896   1.028  0.00  0.00    +0.255 C 
ATOM      4  O   UNL     1       1.226   4.943   0.457  0.00  0.00    -0.272 OA
ENDROOT
BRANCH   1  10
ATOM      5  C   UNL     1       3.809   1.847   0.289  0.00  0.00    +0.080 A 
ATOM      6  C   UNL     1       4.829   1.627  -0.649  0.00  0.00    +0.017 A 
ATOM      7  C   UNL     1       4.672   2.071  -1.961  0.00  0.00    +0.001 A 
ATOM      8  C   UNL     1       3.506   2.736  -2.337  0.00  0.00    +0.002 A 
ATOM      9  C   UNL     1       2.492   2.967  -1.402  0.00  0.00    +0.024 A 
ATOM     10  C   UNL     1       2.630   2.515  -0.085  0.00  0.00    +0.048 A 
BRANCH   5  11
ATOM     11  C   UNL     1       3.991   1.425   1.699  0.00  0.00    +0.339 C 
ATOM     12  O   UNL     1       3.077   0.996   2.376  0.00  0.00    -0.245 OA
BRANCH  11  13
ATOM     13  O   UNL     1       5.231   1.650   2.179  0.00  0.00    -0.477 OA
ATOM     14  H   UNL     1       5.803   2.195   1.604  0.00  0.00    +0.295 HD
ENDBRANCH  11  13
ENDBRANCH   5  11
ENDBRANCH   1  10
BRANCH   3  15
ATOM     15  C   UNL     1      -0.228   3.832   2.029  0.00  0.00    +0.324 C 
BRANCH  15  16
ATOM     16  O   UNL     1      -1.408   3.678   1.248  0.00  0.00    -0.483 OA
BRANCH  16  17
ATOM     17  C   UNL     1      -2.609   3.643   1.892  0.00  0.00    +0.121 A 
ATOM     18  C   UNL     1      -3.709   3.536   1.035  0.00  0.00    +0.047 A 
ATOM     19  C   UNL     1      -5.007   3.464   1.543  0.00  0.00    +0.023 A 
ATOM     20  C   UNL     1      -5.205   3.505   2.920  0.00  0.00    +0.041 A 
ATOM     21 CL   UNL     1      -6.799   3.399   3.555  0.00  0.00    -0.084 Cl
ATOM     22  C   UNL     1      -4.116   3.619   3.784  0.00  0.00    +0.023 A 
ATOM     23  C   UNL     1      -2.814   3.691   3.271  0.00  0.00    +0.047 A 
ENDBRANCH  16  17
ENDBRANCH  15  16
ENDBRANCH   3  15
TORSDOF 6
