REMARK  Name = 
REMARK  7 active torsions:
REMARK  status: ('A' for Active; 'I' for Inactive)
REMARK    1  A    between atoms: O_1  and  C_2
REMARK    2  A    between atoms: C_2  and  C_4
REMARK    3  A    between atoms: C_5  and  C_9
REMARK    4  A    between atoms: N_11  and  C_12
REMARK    5  A    between atoms: C_16  and  C_20
REMARK    6  A    between atoms: C_22  and  O_23
REMARK    7  A    between atoms: O_23  and  C_24
REMARK                            x       y       z     vdW  Elec       q    Type
REMARK                         _______ _______ _______ _____ _____    ______ ____
ROOT
ATOM      1  C   UNL     1       5.194   3.276  -3.405  0.00  0.00    +0.105 A 
ATOM      2  C   UNL     1       6.469   3.701  -3.774  0.00  0.00    +0.148 A 
ATOM      3  F   UNL     1       7.448   2.812  -4.001  0.00  0.00    -0.203 F 
ATOM      4  C   UNL     1       6.794   5.062  -3.804  0.00  0.00    +0.049 A 
ATOM      5  C   UNL     1       5.833   6.043  -3.507  0.00  0.00    -0.012 A 
ATOM      6  C   UNL     1       4.544   5.594  -3.160  0.00  0.00    +0.049 A 
ATOM      7  C   UNL     1       4.250   4.238  -3.072  0.00  0.00    +0.148 A 
ATOM      8  F   UNL     1       3.010   3.865  -2.721  0.00  0.00    -0.203 F 
ENDROOT
BRANCH   5   9
ATOM      9  C   UNL     1       6.125   7.493  -3.567  0.00  0.00    -0.014 A 
ATOM     10  C   UNL     1       7.051   8.039  -4.473  0.00  0.00    +0.009 A 
ATOM     11  C   UNL     1       7.232   9.422  -4.575  0.00  0.00    +0.004 A 
ATOM     12  C   UNL     1       6.459  10.290  -3.805  0.00  0.00    +0.046 A 
ATOM     13  C   UNL     1       5.525   9.781  -2.907  0.00  0.00    +0.131 A 
ATOM     14  C   UNL     1       5.426   8.399  -2.742  0.00  0.00    +0.054 A 
BRANCH  13  15
ATOM     15  O   UNL     1       4.813  10.703  -2.204  0.00  0.00    -0.406 OA
BRANCH  15  16
ATOM     16  C   UNL     1       3.448  10.424  -1.901  0.00  0.00    +0.575 C 
ATOM     17  F   UNL     1       2.673  11.389  -2.446  0.00  0.00    -0.133 F 
ATOM     18  F   UNL     1       3.279  10.459  -0.560  0.00  0.00    -0.133 F 
ATOM     19  F   UNL     1       2.999   9.233  -2.355  0.00  0.00    -0.133 F 
ENDBRANCH  15  16
ENDBRANCH  13  15
ENDBRANCH   5   9
BRANCH   1  21
ATOM     20  C   UNL     1       5.163   0.949  -4.192  0.00  0.00    +0.250 C 
ATOM     21  N   UNL     1       4.830   1.923  -3.284  0.00  0.00    -0.277 N 
ATOM     22  H   UNL     1       4.134   1.709  -2.577  0.00  0.00    +0.155 HD
ATOM     23  O   UNL     1       5.641   1.170  -5.299  0.00  0.00    -0.270 OA
BRANCH  20  28
ATOM     24  C   UNL     1       4.906  -1.005  -2.565  0.00  0.00    +0.108 A 
ATOM     25  S   UNL     1       4.379  -2.643  -2.572  0.00  0.00    -0.090 S 
ATOM     26  C   UNL     1       3.938  -2.578  -4.213  0.00  0.00    +0.047 A 
ATOM     27  C   UNL     1       4.201  -1.345  -4.761  0.00  0.00    +0.021 A 
ATOM     28  C   UNL     1       4.756  -0.410  -3.814  0.00  0.00    +0.058 A 
BRANCH  24  29
ATOM     29  C   UNL     1       5.416  -0.441  -1.327  0.00  0.00    +0.344 C 
ATOM     30  O   UNL     1       5.270   0.714  -0.954  0.00  0.00    -0.245 OA
BRANCH  29  31
ATOM     31  O   UNL     1       6.102  -1.348  -0.583  0.00  0.00    -0.477 OA
ATOM     32  H   UNL     1       6.134  -2.225  -1.014  0.00  0.00    +0.295 HD
ENDBRANCH  29  31
ENDBRANCH  24  29
ENDBRANCH  20  28
ENDBRANCH   1  21
TORSDOF 7
