REMARK  Name = 
REMARK  5 active torsions:
REMARK  status: ('A' for Active; 'I' for Inactive)
REMARK    1  A    between atoms: C_1  and  C_2
REMARK    2  A    between atoms: C_3  and  O_4
REMARK    3  A    between atoms: C_8  and  C_9
REMARK    4  A    between atoms: N_11  and  C_12
REMARK    5  A    between atoms: C_15  and  C_22
REMARK                            x       y       z     vdW  Elec       q    Type
REMARK                         _______ _______ _______ _____ _____    ______ ____
ROOT
ATOM      1  C   UNL     1       0.339  -3.773  -1.190  0.00  0.00    +0.041 A 
ATOM      2  C   UNL     1       0.967  -5.027  -1.117  0.00  0.00    +0.024 A 
ATOM      3  C   UNL     1       0.250  -6.201  -1.318  0.00  0.00    +0.002 A 
ATOM      4  C   UNL     1      -1.121  -6.141  -1.537  0.00  0.00    +0.008 A 
ATOM      5  C   UNL     1      -1.791  -4.911  -1.580  0.00  0.00    -0.016 A 
ATOM      6  C   UNL     1      -3.186  -4.900  -1.756  0.00  0.00    +0.009 A 
ATOM      7  C   UNL     1      -3.897  -3.703  -1.810  0.00  0.00    +0.016 A 
ATOM      8  C   UNL     1      -3.216  -2.498  -1.672  0.00  0.00    +0.065 A 
ATOM      9  C   UNL     1      -1.831  -2.502  -1.454  0.00  0.00    +0.026 A 
ATOM     10  C   UNL     1      -1.069  -3.695  -1.426  0.00  0.00    +0.004 A 
ENDROOT
BRANCH   8  11
ATOM     11  C   UNL     1      -3.933  -1.195  -1.792  0.00  0.00    +0.308 C 
ATOM     12  N   UNL     1      -5.170  -1.037  -1.446  0.00  0.00    -0.099 NA
ATOM     13  H   UNL     1      -5.555  -1.890  -1.035  0.00  0.00    +0.363 HD
ATOM     14  N   UNL     1      -3.293  -0.108  -2.311  0.00  0.00    -0.247 N 
ATOM     15  H   UNL     1      -3.943   0.623  -2.579  0.00  0.00    +0.288 HD
ATOM     16  H   UNL     1      -2.575  -0.292  -3.006  0.00  0.00    +0.288 HD
ENDBRANCH   8  11
BRANCH   1  18
ATOM     17  C   UNL     1       1.188  -1.435  -1.534  0.00  0.00    +0.249 C 
ATOM     18  N   UNL     1       1.178  -2.667  -0.898  0.00  0.00    -0.281 N 
ATOM     19  H   UNL     1       2.005  -2.877  -0.351  0.00  0.00    +0.155 HD
ATOM     20  O   UNL     1       0.616  -1.189  -2.588  0.00  0.00    -0.270 OA
BRANCH  17  23
ATOM     21  C   UNL     1       2.707   0.707  -3.041  0.00  0.00    +0.048 C 
ATOM     22  C   UNL     1       2.775   0.595  -1.542  0.00  0.00    +0.003 A 
ATOM     23  C   UNL     1       2.033  -0.393  -0.844  0.00  0.00    +0.043 A 
ATOM     24  C   UNL     1       2.041  -0.411   0.567  0.00  0.00    +0.013 A 
ATOM     25  C   UNL     1       2.824   0.482   1.291  0.00  0.00    +0.004 A 
ATOM     26  C   UNL     1       3.613   1.400   0.616  0.00  0.00    +0.046 A 
ATOM     27  C   UNL     1       3.588   1.457  -0.780  0.00  0.00    +0.120 A 
BRANCH  27  28
ATOM     28  O   UNL     1       4.414   2.409  -1.312  0.00  0.00    -0.506 OA
ATOM     29  H   UNL     1       4.472   2.316  -2.273  0.00  0.00    +0.292 HD
ENDBRANCH  27  28
ENDBRANCH  17  23
ENDBRANCH   1  18
TORSDOF 4
