REMARK  Name = 
REMARK  5 active torsions:
REMARK  status: ('A' for Active; 'I' for Inactive)
REMARK    1  A    between atoms: N_6  and  S_7
REMARK    2  A    between atoms: S_7  and  C_10
REMARK    3  A    between atoms: C_11  and  N_12
REMARK    4  A    between atoms: C_13  and  C_15
REMARK    5  A    between atoms: C_18  and  N_21
REMARK                            x       y       z     vdW  Elec       q    Type
REMARK                         _______ _______ _______ _____ _____    ______ ____
ROOT
ATOM      1  C   UNL     1      11.377   0.230  -0.726  0.00  0.00    +0.130 A 
ATOM      2  C   UNL     1      12.066  -0.954  -1.051  0.00  0.00    +0.031 A 
ATOM      3  C   UNL     1      11.465  -1.938  -1.838  0.00  0.00    +0.002 A 
ATOM      4  C   UNL     1      10.163  -1.761  -2.290  0.00  0.00    +0.002 A 
ATOM      5  C   UNL     1       9.467  -0.600  -1.957  0.00  0.00    +0.025 A 
ATOM      6  C   UNL     1      10.070   0.417  -1.197  0.00  0.00    +0.061 A 
ENDROOT
BRANCH   6   7
ATOM      7  N   UNL     1       9.244   1.528  -0.949  0.00  0.00    -0.280 N 
ATOM      8  H   UNL     1       8.271   1.314  -0.794  0.00  0.00    +0.155 HD
ATOM      9  C   UNL     1       9.610   2.850  -1.137  0.00  0.00    +0.248 C 
ATOM     10  O   UNL     1      10.711   3.205  -1.550  0.00  0.00    -0.270 OA
BRANCH   9  11
ATOM     11  C   UNL     1       8.560   3.867  -0.815  0.00  0.00    +0.037 A 
ATOM     12  C   UNL     1       7.200   3.557  -0.777  0.00  0.00    +0.015 A 
ATOM     13  C   UNL     1       6.264   4.505  -0.341  0.00  0.00    +0.027 A 
ATOM     14  C   UNL     1       6.639   5.799   0.064  0.00  0.00    +0.049 A 
ATOM     15  C   UNL     1       8.001   6.119  -0.076  0.00  0.00    +0.027 A 
ATOM     16  C   UNL     1       8.948   5.171  -0.510  0.00  0.00    +0.015 A 
BRANCH  14  17
ATOM     17  N   UNL     1       5.648   6.720   0.610  0.00  0.00    -0.284 N 
ATOM     18  C   UNL     1       5.914   8.109   0.689  0.00  0.00    +0.256 A 
ATOM     19  O   UNL     1       6.930   8.702   0.327  0.00  0.00    -0.267 OA
ATOM     20  C   UNL     1       4.826   8.972   1.239  0.00  0.00    +0.071 A 
ATOM     21  C   UNL     1       3.663   8.454   1.639  0.00  0.00    +0.007 A 
ATOM     22  C   UNL     1       3.461   7.039   1.577  0.00  0.00    +0.018 A 
ATOM     23  C   UNL     1       4.419   6.244   1.088  0.00  0.00    +0.095 A 
ENDBRANCH  14  17
ENDBRANCH   9  11
ENDBRANCH   6   7
BRANCH   1  24
ATOM     24  S   UNL     1      12.101   1.247   0.553  0.00  0.00    +0.075 S 
ATOM     25  O   UNL     1      11.033   1.873   1.302  0.00  0.00    -0.150 OA
ATOM     26  O   UNL     1      13.073   0.420   1.248  0.00  0.00    -0.150 OA
BRANCH  24  32
ATOM     27 CL   UNL     1      15.545   6.016   3.462  0.00  0.00    -0.082 Cl
ATOM     28  C   UNL     1      14.862   4.947   2.306  0.00  0.00    +0.059 A 
ATOM     29  C   UNL     1      15.533   3.791   1.924  0.00  0.00    +0.025 A 
ATOM     30  C   UNL     1      14.930   2.930   1.008  0.00  0.00    +0.046 A 
ATOM     31  C   UNL     1      13.686   3.280   0.503  0.00  0.00    +0.138 A 
ATOM     32  N   UNL     1      12.951   2.413  -0.338  0.00  0.00    -0.199 N 
ATOM     33  H   UNL     1      12.244   2.983  -0.831  0.00  0.00    +0.175 HD
ATOM     34  N   UNL     1      13.022   4.402   0.829  0.00  0.00    -0.238 NA
ATOM     35  C   UNL     1      13.624   5.209   1.737  0.00  0.00    +0.133 A 
ENDBRANCH  24  32
ENDBRANCH   1  24
TORSDOF 5
