REMARK  Name = 
REMARK  8 active torsions:
REMARK  status: ('A' for Active; 'I' for Inactive)
REMARK    1  A    between atoms: N_5  and  C_25
REMARK    2  A    between atoms: C_10  and  N_17
REMARK    3  A    between atoms: C_18  and  O_20
REMARK    4  A    between atoms: O_20  and  C_21
REMARK    5  A    between atoms: C_21  and  C_22
REMARK    6  A    between atoms: C_22  and  O_23
REMARK    7  A    between atoms: C_28  and  N_29
REMARK    8  A    between atoms: C_30  and  C_31
REMARK                            x       y       z     vdW  Elec       q    Type
REMARK                         _______ _______ _______ _____ _____    ______ ____
ROOT
ATOM      1  C   UNL     1      -0.000  -0.000  -0.000  0.00  0.00    +0.093 C 
ATOM      2  C   UNL     1      -0.000  -0.000  -0.000  0.00  0.00    +0.002 C 
ATOM      3  C   UNL     1      -0.000  -0.000  -0.000  0.00  0.00    +0.006 C 
ATOM      4  C   UNL     1      -0.000  -0.000  -0.000  0.00  0.00    +0.027 C 
ATOM      5  C   UNL     1      -0.000  -0.000  -0.000  0.00  0.00    +0.049 C 
ATOM      6  C   UNL     1      -0.000  -0.000  -0.000  0.00  0.00    +0.027 C 
ATOM      7  C   UNL     1      -0.000  -0.000  -0.000  0.00  0.00    +0.006 C 
ATOM      8  C   UNL     1      -0.000  -0.000  -0.000  0.00  0.00    +0.111 C 
ATOM      9  C   UNL     1      -0.000  -0.000  -0.000  0.00  0.00    +0.232 C 
ATOM     10  O   UNL     1      -0.000  -0.000  -0.000  0.00  0.00    -0.274 OA
ATOM     11  N   UNL     1      -0.000  -0.000  -0.000  0.00  0.00    -0.210 N 
ATOM     12  C   UNL     1      -0.000  -0.000  -0.000  0.00  0.00    +0.230 C 
ATOM     13  O   UNL     1      -0.000  -0.000  -0.000  0.00  0.00    -0.274 OA
ENDROOT
BRANCH  11  14
ATOM     14  C   UNL     1      -0.000  -0.000  -0.000  0.00  0.00    +0.044 A 
ATOM     15  C   UNL     1      -0.000  -0.000  -0.000  0.00  0.00    +0.026 A 
ATOM     16  C   UNL     1      -0.000  -0.000  -0.000  0.00  0.00    +0.025 A 
ATOM     17  C   UNL     1      -0.000  -0.000   0.000  0.00  0.00    +0.033 A 
ATOM     18  C   UNL     1      -0.000  -0.000  -0.000  0.00  0.00    +0.025 A 
ATOM     19  C   UNL     1      -0.000  -0.000  -0.000  0.00  0.00    +0.026 A 
BRANCH  17  20
ATOM     20  N   UNL     1      -0.000  -0.000  -0.000  0.00  0.00    -0.286 N 
ATOM     21  H   UNL     1      -0.000  -0.000   0.000  0.00  0.00    +0.155 HD
ATOM     22  C   UNL     1      -0.000  -0.000   0.000  0.00  0.00    +0.214 C 
ATOM     23  O   UNL     1      -0.000  -0.000   0.000  0.00  0.00    -0.276 OA
ATOM     24  C   UNL     1      -0.000  -0.000   0.000  0.00  0.00    +0.109 C 
ENDBRANCH  17  20
ENDBRANCH  11  14
BRANCH   5  25
ATOM     25  N   UNL     1      -0.000  -0.000  -0.000  0.00  0.00    -0.275 N 
ATOM     26  H   UNL     1      -0.000  -0.000  -0.000  0.00  0.00    +0.153 HD
ATOM     27  C   UNL     1      -0.000  -0.000  -0.000  0.00  0.00    +0.401 C 
ATOM     28  O   UNL     1      -0.000  -0.000  -0.000  0.00  0.00    -0.226 OA
BRANCH  27  29
ATOM     29  O   UNL     1      -0.000  -0.000  -0.000  0.00  0.00    -0.439 OA
BRANCH  29  30
ATOM     30  C   UNL     1      -0.000  -0.000  -0.000  0.00  0.00    +0.353 C 
BRANCH  30  31
ATOM     31  C   UNL     1      -0.000  -0.000  -0.000  0.00  0.00    +0.343 C 
ATOM     32  O   UNL     1      -0.000  -0.000  -0.000  0.00  0.00    -0.247 OA
BRANCH  31  33
ATOM     33  O   UNL     1      -0.000  -0.000  -0.000  0.00  0.00    -0.478 OA
ATOM     34  H   UNL     1      -0.000  -0.000  -0.000  0.00  0.00    +0.295 HD
ENDBRANCH  31  33
ENDBRANCH  30  31
ENDBRANCH  29  30
ENDBRANCH  27  29
ENDBRANCH   5  25
TORSDOF 7
