REMARK  Name = 
REMARK  4 active torsions:
REMARK  status: ('A' for Active; 'I' for Inactive)
REMARK    1  A    between atoms: O_1  and  C_2
REMARK    2  A    between atoms: C_5  and  C_8
REMARK    3  A    between atoms: C_8  and  C_10
REMARK    4  A    between atoms: C_13  and  O_14
REMARK                            x       y       z     vdW  Elec       q    Type
REMARK                         _______ _______ _______ _____ _____    ______ ____
ROOT
ATOM      1  C   UNL     1       6.678  -0.124  -0.435  0.00  0.00    +0.193 C 
ATOM      2  O   UNL     1       7.284   0.946  -0.416  0.00  0.00    -0.287 OA
ENDROOT
BRANCH   1   6
ATOM      3  C   UNL     1       2.438   0.020   0.080  0.00  0.00    +0.117 A 
ATOM      4  C   UNL     1       3.136  -1.084   0.559  0.00  0.00    +0.046 A 
ATOM      5  C   UNL     1       4.524  -1.143   0.420  0.00  0.00    +0.015 A 
ATOM      6  C   UNL     1       5.206  -0.106  -0.228  0.00  0.00    +0.022 A 
ATOM      7  C   UNL     1       4.494   1.022  -0.665  0.00  0.00    +0.015 A 
ATOM      8  C   UNL     1       3.107   1.084  -0.516  0.00  0.00    +0.046 A 
BRANCH   3   9
ATOM      9  O   UNL     1       1.082   0.023   0.218  0.00  0.00    -0.507 OA
ATOM     10  H   UNL     1       0.727   0.825  -0.199  0.00  0.00    +0.292 HD
ENDBRANCH   3   9
ENDBRANCH   1   6
BRANCH   1  11
ATOM     11  C   UNL     1       7.445  -1.377  -0.688  0.00  0.00    +0.022 A 
ATOM     12  C   UNL     1       6.871  -2.518  -1.263  0.00  0.00    +0.015 A 
ATOM     13  C   UNL     1       7.650  -3.656  -1.494  0.00  0.00    +0.046 A 
ATOM     14  C   UNL     1       9.006  -3.642  -1.184  0.00  0.00    +0.117 A 
ATOM     15  C   UNL     1       9.600  -2.510  -0.638  0.00  0.00    +0.046 A 
ATOM     16  C   UNL     1       8.818  -1.378  -0.393  0.00  0.00    +0.015 A 
BRANCH  14  17
ATOM     17  O   UNL     1       9.729  -4.766  -1.448  0.00  0.00    -0.507 OA
ATOM     18  H   UNL     1      10.665  -4.587  -1.259  0.00  0.00    +0.292 HD
ENDBRANCH  14  17
ENDBRANCH   1  11
TORSDOF 4
