REMARK  Name = 
REMARK  6 active torsions:
REMARK  status: ('A' for Active; 'I' for Inactive)
REMARK    1  A    between atoms: C_1  and  N_2
REMARK    2  A    between atoms: N_6  and  C_7
REMARK    3  A    between atoms: C_10  and  C_11
REMARK    4  A    between atoms: C_11  and  C_12
REMARK    5  A    between atoms: C_17  and  N_18
REMARK    6  A    between atoms: C_22  and  C_24
REMARK                            x       y       z     vdW  Elec       q    Type
REMARK                         _______ _______ _______ _____ _____    ______ ____
ROOT
ATOM      1  C   UNL     1       0.847   0.159   0.050  0.00  0.00    +0.127 C 
ATOM      2  N   UNL     1       2.281   0.016   0.168  0.00  0.00    -0.332 N 
ATOM      3  H   UNL     1       2.698  -0.519  -0.589  0.00  0.00    +0.147 HD
ATOM      4  C   UNL     1       3.017   1.196   0.372  0.00  0.00    +0.125 A 
ATOM      5  C   UNL     1       4.368   1.042   0.596  0.00  0.00    +0.087 A 
ATOM      6  C   UNL     1       5.083   2.164   0.914  0.00  0.00    +0.131 A 
ATOM      7  N   UNL     1       4.511   3.374   0.919  0.00  0.00    -0.199 NA
ATOM      8  C   UNL     1       3.213   3.471   0.609  0.00  0.00    +0.223 A 
ATOM      9  N   UNL     1       2.619   4.731   0.459  0.00  0.00    -0.284 N 
ATOM     10  H   UNL     1       1.651   4.591   0.204  0.00  0.00    +0.155 HD
ATOM     11  N   UNL     1       2.427   2.405   0.393  0.00  0.00    -0.199 NA
ENDROOT
BRANCH   6  12
ATOM     12  N   UNL     1       6.431   2.158   1.258  0.00  0.00    -0.283 N 
ATOM     13  H   UNL     1       6.678   3.106   1.517  0.00  0.00    +0.155 HD
ATOM     14  C   UNL     1       7.310   1.163   1.484  0.00  0.00    +0.146 A 
ATOM     15  C   UNL     1       8.553   1.457   2.084  0.00  0.00    +0.068 A 
ATOM     16  C   UNL     1       9.163   0.244   2.287  0.00  0.00    +0.041 A 
ATOM     17  N   UNL     1       8.337  -0.681   1.725  0.00  0.00    -0.280 N 
ATOM     18  H   UNL     1       8.468  -1.684   1.646  0.00  0.00    +0.189 HD
ATOM     19  N   UNL     1       7.194  -0.148   1.242  0.00  0.00    -0.158 NA
BRANCH  16  20
ATOM     20  C   UNL     1      10.479   0.099   3.005  0.00  0.00    +0.037 C 
ATOM     21  C   UNL     1      11.448  -0.978   2.589  0.00  0.00    +0.010 C 
ATOM     22  C   UNL     1      10.742  -1.090   3.897  0.00  0.00    +0.010 C 
ENDBRANCH  16  20
ENDBRANCH   6  12
BRANCH   9  23
ATOM     23  C   UNL     1       3.180   5.949   0.025  0.00  0.00    +0.034 A 
ATOM     24  C   UNL     1       2.344   7.061  -0.161  0.00  0.00    +0.023 A 
ATOM     25  C   UNL     1       2.856   8.301  -0.576  0.00  0.00    +0.006 A 
ATOM     26  C   UNL     1       4.230   8.470  -0.787  0.00  0.00    -0.034 A 
ATOM     27  C   UNL     1       5.073   7.377  -0.577  0.00  0.00    +0.006 A 
ATOM     28  C   UNL     1       4.553   6.145  -0.166  0.00  0.00    +0.023 A 
BRANCH  26  29
ATOM     29  C   UNL     1       4.796   9.789  -1.254  0.00  0.00    +0.153 C 
BRANCH  29  30
ATOM     30  C   UNL     1       4.895   9.881  -2.721  0.00  0.00    +0.067 C 
ATOM     31  N   UNL     1       4.984   9.980  -3.874  0.00  0.00    -0.196 NA
ENDBRANCH  29  30
ENDBRANCH  26  29
ENDBRANCH   9  23
TORSDOF 5
