REMARK  Name = 
REMARK  6 active torsions:
REMARK  status: ('A' for Active; 'I' for Inactive)
REMARK    1  A    between atoms: N_1  and  C_2
REMARK    2  A    between atoms: C_2  and  C_3
REMARK    3  A    between atoms: N_5  and  C_6
REMARK    4  A    between atoms: C_9  and  O_10
REMARK    5  A    between atoms: O_10  and  C_11
REMARK    6  A    between atoms: C_11  and  C_12
REMARK                            x       y       z     vdW  Elec       q    Type
REMARK                         _______ _______ _______ _____ _____    ______ ____
ROOT
ATOM      1  C   UNL     1       4.618   2.694   1.685  0.00  0.00    +0.034 A 
ATOM      2  C   UNL     1       5.677   2.591   2.591  0.00  0.00    +0.027 A 
ATOM      3  C   UNL     1       6.165   3.734   3.244  0.00  0.00    +0.047 A 
ATOM      4  C   UNL     1       5.588   4.982   3.003  0.00  0.00    +0.121 A 
ATOM      5  C   UNL     1       4.585   5.094   2.049  0.00  0.00    +0.047 A 
ATOM      6  C   UNL     1       4.097   3.960   1.407  0.00  0.00    +0.027 A 
ENDROOT
BRANCH   1   8
ATOM      7  C   UNL     1       3.038   1.452   0.200  0.00  0.00    +0.231 C 
ATOM      8  N   UNL     1       4.100   1.525   1.090  0.00  0.00    -0.284 N 
ATOM      9  H   UNL     1       4.476   0.630   1.397  0.00  0.00    +0.155 HD
ATOM     10  O   UNL     1       2.373   2.387  -0.241  0.00  0.00    -0.274 OA
BRANCH   7  11
ATOM     11  C   UNL     1       2.719   0.027  -0.241  0.00  0.00    +0.175 C 
BRANCH  11  12
ATOM     12  N   UNL     1       2.427  -0.818   0.926  0.00  0.00    -0.322 NA
ATOM     13  H   UNL     1       1.736  -0.333   1.504  0.00  0.00    +0.119 HD
ATOM     14  H   UNL     1       1.941  -1.652   0.592  0.00  0.00    +0.119 HD
ENDBRANCH  11  12
ENDBRANCH   7  11
ENDBRANCH   1   8
BRANCH   4  15
ATOM     15  O   UNL     1       6.051   6.030   3.748  0.00  0.00    -0.487 OA
BRANCH  15  16
ATOM     16  C   UNL     1       5.118   7.111   3.886  0.00  0.00    +0.264 C 
BRANCH  16  17
ATOM     17  C   UNL     1       5.495   7.951   5.077  0.00  0.00    -0.010 A 
ATOM     18  C   UNL     1       5.609   7.356   6.340  0.00  0.00    +0.007 A 
ATOM     19  C   UNL     1       5.937   8.123   7.454  0.00  0.00    +0.000 A 
ATOM     20  C   UNL     1       6.143   9.496   7.315  0.00  0.00    +0.000 A 
ATOM     21  C   UNL     1       6.012  10.100   6.066  0.00  0.00    +0.000 A 
ATOM     22  C   UNL     1       5.683   9.333   4.948  0.00  0.00    +0.007 A 
ENDBRANCH  16  17
ENDBRANCH  15  16
ENDBRANCH   4  15
TORSDOF 6
