REMARK  Name = 
REMARK  12 active torsions:
REMARK  status: ('A' for Active; 'I' for Inactive)
REMARK    1  A    between atoms: C_2  and  N_3
REMARK    2  A    between atoms: C_2  and  C_4
REMARK    3  A    between atoms: C_2  and  C_11
REMARK    4  A    between atoms: C_4  and  C_5
REMARK    5  A    between atoms: C_11  and  O_13
REMARK    6  A    between atoms: C_11  and  C_14
REMARK    7  A    between atoms: C_14  and  C_15
REMARK    8  A    between atoms: C_15  and  C_17
REMARK    9  A    between atoms: C_15  and  C_20
REMARK   10  A    between atoms: C_17  and  C_18
REMARK   11  A    between atoms: C_17  and  C_19
REMARK   12  A    between atoms: C_20  and  O_21
REMARK                            x       y       z     vdW  Elec       q    Type
REMARK                         _______ _______ _______ _____ _____    ______ ____
ROOT
ATOM      1  C   UNL     1       2.450   1.100   0.881  0.00  0.00    +0.132 C 
ENDROOT
BRANCH   1   2
ATOM      2  O   UNL     1       2.411   2.461   0.421  0.00  0.00    -0.390 OA
ATOM      3  H   UNL     1       2.999   2.538  -0.349  0.00  0.00    +0.210 HD
ENDBRANCH   1   2
BRANCH   1   4
ATOM      4  C   UNL     1       1.816   0.166  -0.195  0.00  0.00    +0.080 C 
BRANCH   4   5
ATOM      5  N   UNL     1       0.402   0.507  -0.433  0.00  0.00    -0.325 NA
ATOM      6  H   UNL     1      -0.166   0.232   0.367  0.00  0.00    +0.119 HD
ATOM      7  H   UNL     1       0.331   1.529  -0.459  0.00  0.00    +0.119 HD
ENDBRANCH   4   5
BRANCH   4   8
ATOM      8  C   UNL     1       2.529   0.230  -1.571  0.00  0.00    +0.024 C 
BRANCH   8   9
ATOM      9  C   UNL     1       4.012  -0.216  -1.564  0.00  0.00    -0.009 C 
ATOM     10  C   UNL     1       4.662  -0.044  -2.952  0.00  0.00    +0.003 C 
ATOM     11  C   UNL     1       4.194  -1.078  -3.977  0.00  0.00    +0.000 C 
ATOM     12  C   UNL     1       4.348  -2.504  -3.457  0.00  0.00    +0.000 C 
ATOM     13  C   UNL     1       3.690  -2.689  -2.094  0.00  0.00    +0.000 C 
ATOM     14  C   UNL     1       4.207  -1.665  -1.085  0.00  0.00    +0.003 C 
ENDBRANCH   8   9
ENDBRANCH   4   8
ENDBRANCH   1   4
BRANCH   1  15
ATOM     15  C   UNL     1       1.729   1.109   2.241  0.00  0.00    +0.047 C 
BRANCH  15  16
ATOM     16  C   UNL     1       1.571  -0.247   2.958  0.00  0.00    +0.103 C 
BRANCH  16  17
ATOM     17  C   UNL     1       2.896  -0.930   3.390  0.00  0.00    -0.003 C 
ATOM     18  C   UNL     1       2.643  -2.301   4.040  0.00  0.00    +0.008 C 
ATOM     19  C   UNL     1       3.785  -0.076   4.299  0.00  0.00    +0.008 C 
ENDBRANCH  16  17
BRANCH  16  20
ATOM     20  C   UNL     1       0.637  -0.012   4.138  0.00  0.00    +0.308 C 
ATOM     21  O   UNL     1       0.821   0.810   5.020  0.00  0.00    -0.251 OA
BRANCH  20  22
ATOM     22  O   UNL     1      -0.463  -0.804   4.131  0.00  0.00    -0.480 OA
ATOM     23  H   UNL     1      -0.515  -1.437   3.390  0.00  0.00    +0.295 HD
ENDBRANCH  20  22
ENDBRANCH  16  20
ENDBRANCH  15  16
ENDBRANCH   1  15
TORSDOF 10
