REMARK  Name = 
REMARK  9 active torsions:
REMARK  status: ('A' for Active; 'I' for Inactive)
REMARK    1  A    between atoms: C_2  and  C_3
REMARK    2  A    between atoms: C_2  and  O_4
REMARK    3  A    between atoms: C_2  and  C_5
REMARK    4  A    between atoms: C_5  and  C_7
REMARK    5  A    between atoms: C_5  and  N_25
REMARK    6  A    between atoms: C_7  and  C_8
REMARK    7  A    between atoms: C_8  and  C_9
REMARK    8  A    between atoms: C_16  and  C_18
REMARK    9  A    between atoms: C_28  and  C_30
REMARK                            x       y       z     vdW  Elec       q    Type
REMARK                         _______ _______ _______ _____ _____    ______ ____
ROOT
ATOM      1  C   UNL     1       0.650   2.544   0.155  0.00  0.00    +0.041 C 
ENDROOT
BRANCH   1   2
ATOM      2  C   UNL     1       0.231   3.749   0.957  0.00  0.00    -0.003 A 
ATOM      3  C   UNL     1       0.560   5.061   0.605  0.00  0.00    +0.159 A 
ATOM      4  O   UNL     1       1.281   5.456  -0.482  0.00  0.00    -0.435 OA
ATOM      5  C   UNL     1       1.348   6.820  -0.374  0.00  0.00    +0.228 A 
ATOM      6  N   UNL     1       0.724   7.313   0.683  0.00  0.00    -0.209 NA
ATOM      7  C   UNL     1       0.212   6.201   1.309  0.00  0.00    +0.110 A 
ATOM      8  C   UNL     1      -0.555   6.064   2.471  0.00  0.00    +0.031 A 
ATOM      9  C   UNL     1      -0.940   4.772   2.860  0.00  0.00    +0.003 A 
ATOM     10  C   UNL     1      -0.555   3.643   2.118  0.00  0.00    +0.007 A 
BRANCH   5  11
ATOM     11  C   UNL     1       2.094   7.505  -1.427  0.00  0.00    +0.037 A 
ATOM     12  C   UNL     1       2.269   8.897  -1.377  0.00  0.00    +0.014 A 
ATOM     13  C   UNL     1       2.992   9.564  -2.374  0.00  0.00    +0.021 A 
ATOM     14  C   UNL     1       3.545   8.844  -3.430  0.00  0.00    +0.041 A 
ATOM     15 CL   UNL     1       4.442   9.659  -4.650  0.00  0.00    -0.084 Cl
ATOM     16  C   UNL     1       3.377   7.464  -3.502  0.00  0.00    +0.021 A 
ATOM     17  C   UNL     1       2.656   6.799  -2.506  0.00  0.00    +0.014 A 
ENDBRANCH   5  11
ENDBRANCH   1   2
BRANCH   1  18
ATOM     18  C   UNL     1       2.177   2.395   0.121  0.00  0.00    +0.032 C 
BRANCH  18  19
ATOM     19  C   UNL     1       2.699   1.174  -0.678  0.00  0.00    +0.117 C 
BRANCH  19  20
ATOM     20  N   UNL     1       4.165   1.092  -0.617  0.00  0.00    -0.331 N 
ATOM     21  C   UNL     1       4.899  -0.069  -0.596  0.00  0.00    +0.120 A 
ATOM     22  C   UNL     1       6.221   0.325  -0.598  0.00  0.00    +0.143 A 
ATOM     23  N   UNL     1       6.302   1.708  -0.558  0.00  0.00    -0.231 NA
ATOM     24  C   UNL     1       5.057   2.130  -0.581  0.00  0.00    +0.200 A 
BRANCH  22  25
ATOM     25  C   UNL     1       7.394  -0.540  -0.654  0.00  0.00    +0.261 C 
ATOM     26  O   UNL     1       7.350  -1.762  -0.741  0.00  0.00    -0.269 OA
ATOM     27  N   UNL     1       8.574   0.145  -0.618  0.00  0.00    -0.324 N 
ATOM     28  H   UNL     1       9.446  -0.354  -0.693  0.00  0.00    +0.145 HD
ATOM     29  H   UNL     1       8.548   1.158  -0.583  0.00  0.00    +0.145 HD
ENDBRANCH  22  25
ENDBRANCH  19  20
BRANCH  19  30
ATOM     30  C   UNL     1       2.171   1.134  -2.138  0.00  0.00    +0.134 C 
ATOM     31  C   UNL     1       2.647  -0.065  -2.956  0.00  0.00    +0.040 C 
BRANCH  30  32
ATOM     32  O   UNL     1       2.497   2.345  -2.820  0.00  0.00    -0.390 OA
ATOM     33  H   UNL     1       2.197   2.257  -3.743  0.00  0.00    +0.210 HD
ENDBRANCH  30  32
ENDBRANCH  19  30
ENDBRANCH  18  19
ENDBRANCH   1  18
TORSDOF 8
