REMARK  Name = 
REMARK  7 active torsions:
REMARK  status: ('A' for Active; 'I' for Inactive)
REMARK    1  A    between atoms: C_2  and  C_3
REMARK    2  A    between atoms: C_3  and  C_4
REMARK    3  A    between atoms: C_3  and  N_6
REMARK    4  A    between atoms: C_9  and  N_11
REMARK    5  A    between atoms: N_11  and  S_12
REMARK    6  A    between atoms: S_12  and  C_15
REMARK    7  A    between atoms: C_16  and  C_17
REMARK                            x       y       z     vdW  Elec       q    Type
REMARK                         _______ _______ _______ _____ _____    ______ ____
ROOT
ATOM      1  N   UNL     1       1.982   0.466   2.411  0.00  0.00    -0.289 N 
ATOM      2  C   UNL     1       1.749   1.779   2.789  0.00  0.00    +0.235 C 
ATOM      3  O   UNL     1       2.460   2.721   2.493  0.00  0.00    -0.274 OA
ATOM      4  C   UNL     1       0.471   1.816   3.615  0.00  0.00    +0.164 C 
ATOM      5  C   UNL     1      -0.100   0.398   3.400  0.00  0.00    +0.049 C 
ATOM      6  C   UNL     1       1.100  -0.458   3.056  0.00  0.00    +0.110 C 
ENDROOT
BRANCH   1   7
ATOM      7  C   UNL     1       2.960   0.076   1.399  0.00  0.00    +0.159 C 
ATOM      8  C   UNL     1       2.594   0.710   0.053  0.00  0.00    +0.038 C 
BRANCH   7  10
ATOM      9  O   UNL     1       4.731   0.861   2.898  0.00  0.00    -0.274 OA
ATOM     10  C   UNL     1       4.432   0.352   1.817  0.00  0.00    +0.236 C 
ATOM     11  N   UNL     1       5.418  -0.045   0.912  0.00  0.00    -0.296 N 
ATOM     12  C   UNL     1       5.306  -1.256   0.094  0.00  0.00    +0.136 C 
ATOM     13  C   UNL     1       6.084  -2.399   0.758  0.00  0.00    +0.179 C 
ATOM     14  O   UNL     1       7.459  -2.033   0.952  0.00  0.00    -0.377 OA
ATOM     15  C   UNL     1       7.565  -0.869   1.796  0.00  0.00    +0.179 C 
ATOM     16  C   UNL     1       6.809   0.320   1.190  0.00  0.00    +0.136 C 
ENDBRANCH   7  10
ENDBRANCH   1   7
BRANCH   4  17
ATOM     17  N   UNL     1      -0.565   2.785   3.161  0.00  0.00    -0.179 NA
ATOM     18  H   UNL     1      -1.449   2.619   3.644  0.00  0.00    +0.149 HD
BRANCH  17  19
ATOM     19  S   UNL     1      -0.176   4.437   3.319  0.00  0.00    +0.052 S 
ATOM     20  O   UNL     1       0.872   4.792   2.394  0.00  0.00    -0.154 OA
ATOM     21  O   UNL     1      -0.053   4.660   4.741  0.00  0.00    -0.154 OA
BRANCH  19  22
ATOM     22  C   UNL     1      -1.613   5.235   2.774  0.00  0.00    +0.154 C 
ATOM     23  C   UNL     1      -1.972   5.054   1.495  0.00  0.00    +0.035 C 
BRANCH  23  24
ATOM     24  C   UNL     1      -3.119   5.671   0.928  0.00  0.00    +0.015 A 
ATOM     25  S   UNL     1      -3.506   5.340  -0.726  0.00  0.00    -0.077 S 
ATOM     26  C   UNL     1      -4.877   6.320  -0.670  0.00  0.00    +0.079 A 
ATOM     27 CL   UNL     1      -5.866   6.482  -2.063  0.00  0.00    -0.076 Cl
ATOM     28  C   UNL     1      -5.074   6.915   0.546  0.00  0.00    +0.028 A 
ATOM     29  C   UNL     1      -4.052   6.543   1.471  0.00  0.00    +0.017 A 
ENDBRANCH  23  24
ENDBRANCH  19  22
ENDBRANCH  17  19
ENDBRANCH   4  17
TORSDOF 6
