REMARK  Name = 
REMARK  6 active torsions:
REMARK  status: ('A' for Active; 'I' for Inactive)
REMARK    1  A    between atoms: O_1  and  C_2
REMARK    2  A    between atoms: C_2  and  C_4
REMARK    3  A    between atoms: C_7  and  N_8
REMARK    4  A    between atoms: C_12  and  C_14
REMARK    5  A    between atoms: C_23  and  O_24
REMARK    6  A    between atoms: O_24  and  C_25
REMARK                            x       y       z     vdW  Elec       q    Type
REMARK                         _______ _______ _______ _____ _____    ______ ____
ROOT
ATOM      1  N   UNL     1       5.385  -5.014  -0.542  0.00  0.00    -0.266 N 
ATOM      2  H   UNL     1       5.269  -5.702   0.189  0.00  0.00    +0.156 HD
ATOM      3  C   UNL     1       6.667  -4.952  -1.085  0.00  0.00    +0.310 C 
ATOM      4  N   UNL     1       7.259  -6.203  -1.182  0.00  0.00    -0.236 N 
ATOM      5  H   UNL     1       6.647  -7.002  -1.139  0.00  0.00    +0.159 HD
ATOM      6  C   UNL     1       8.578  -6.386  -1.570  0.00  0.00    +0.253 C 
ATOM      7  O   UNL     1       9.386  -5.476  -1.725  0.00  0.00    -0.270 OA
ATOM      8  O   UNL     1       7.203  -3.900  -1.405  0.00  0.00    -0.252 OA
ENDROOT
BRANCH   6   9
ATOM      9  C   UNL     1       9.111  -7.774  -1.739  0.00  0.00    +0.058 A 
ATOM     10  C   UNL     1       8.374  -8.914  -2.095  0.00  0.00    +0.056 A 
ATOM     11 CL   UNL     1       6.670  -8.890  -2.373  0.00  0.00    -0.083 Cl
ATOM     12  C   UNL     1       9.021 -10.149  -2.273  0.00  0.00    +0.062 A 
ATOM     13  C   UNL     1      10.397 -10.252  -2.094  0.00  0.00    +0.160 A 
ATOM     14  F   UNL     1      10.999 -11.435  -2.273  0.00  0.00    -0.202 F 
ATOM     15  C   UNL     1      11.137  -9.138  -1.738  0.00  0.00    +0.159 A 
ATOM     16  F   UNL     1      12.462  -9.231  -1.566  0.00  0.00    -0.202 F 
ATOM     17  C   UNL     1      10.507  -7.910  -1.563  0.00  0.00    +0.055 A 
ENDBRANCH   6   9
BRANCH   1  21
ATOM     18  C   UNL     1       3.106  -1.488   0.017  0.00  0.00    +0.062 A 
ATOM     19  C   UNL     1       3.287  -2.391   1.076  0.00  0.00    +0.062 A 
ATOM     20  C   UNL     1       3.972  -3.598   0.871  0.00  0.00    +0.152 A 
ATOM     21  C   UNL     1       4.615  -3.828  -0.362  0.00  0.00    +0.077 A 
ATOM     22  C   UNL     1       4.489  -2.887  -1.396  0.00  0.00    +0.028 A 
ATOM     23  C   UNL     1       3.716  -1.737  -1.217  0.00  0.00    +0.017 A 
BRANCH  18  24
ATOM     24  C   UNL     1       2.289  -0.257   0.164  0.00  0.00    +0.337 C 
ATOM     25  O   UNL     1       2.505   0.765  -0.465  0.00  0.00    -0.245 OA
BRANCH  24  26
ATOM     26  O   UNL     1       1.244  -0.395   1.010  0.00  0.00    -0.477 OA
ATOM     27  H   UNL     1       1.045  -1.304   1.300  0.00  0.00    +0.295 HD
ENDBRANCH  24  26
ENDBRANCH  18  24
BRANCH  20  28
ATOM     28  O   UNL     1       4.139  -4.578   1.811  0.00  0.00    -0.404 OA
BRANCH  28  29
ATOM     29  C   UNL     1       3.235  -4.667   2.904  0.00  0.00    +0.575 C 
ATOM     30  F   UNL     1       3.817  -4.183   4.019  0.00  0.00    -0.133 F 
ATOM     31  F   UNL     1       2.950  -5.972   3.100  0.00  0.00    -0.133 F 
ATOM     32  F   UNL     1       2.067  -4.022   2.694  0.00  0.00    -0.133 F 
ENDBRANCH  28  29
ENDBRANCH  20  28
ENDBRANCH   1  21
TORSDOF 6
