REMARK  Name = 
REMARK  7 active torsions:
REMARK  status: ('A' for Active; 'I' for Inactive)
REMARK    1  A    between atoms: C_1  and  N_2
REMARK    2  A    between atoms: C_6  and  S_7
REMARK    3  A    between atoms: S_7  and  C_8
REMARK    4  A    between atoms: C_10  and  C_11
REMARK    5  A    between atoms: C_16  and  C_17
REMARK    6  A    between atoms: C_20  and  S_21
REMARK    7  A    between atoms: S_21  and  C_22
REMARK                            x       y       z     vdW  Elec       q    Type
REMARK                         _______ _______ _______ _____ _____    ______ ____
ROOT
ATOM      1  C   UNL     1       0.722  -2.714  -0.184  0.00  0.00    +0.105 A 
ATOM      2  C   UNL     1       0.077  -3.917   0.057  0.00  0.00    +0.036 A 
ATOM      3  C   UNL     1      -1.310  -3.942   0.189  0.00  0.00    +0.020 A 
ATOM      4  C   UNL     1      -2.075  -2.789  -0.016  0.00  0.00    +0.043 A 
ATOM      5  C   UNL     1      -1.373  -1.639  -0.396  0.00  0.00    +0.141 A 
ATOM      6  N   UNL     1       0.011  -1.579  -0.449  0.00  0.00    -0.234 NA
ENDROOT
BRANCH   5   7
ATOM      7  C   UNL     1      -2.075  -0.359  -0.836  0.00  0.00    +0.269 C 
ATOM      8  N   UNL     1      -1.220   0.723  -0.905  0.00  0.00    -0.259 N 
ATOM      9  H   UNL     1      -0.240   0.556  -0.710  0.00  0.00    +0.157 HD
ATOM     10  C   UNL     1      -1.586   1.979  -1.294  0.00  0.00    +0.165 A 
ATOM     11  S   UNL     1      -0.253   3.036  -1.442  0.00  0.00    -0.060 S 
ATOM     12  C   UNL     1      -1.316   4.293  -1.909  0.00  0.00    +0.071 A 
ATOM     13  C   UNL     1      -2.624   3.841  -1.891  0.00  0.00    +0.047 A 
ATOM     14  C   UNL     1      -3.828   4.668  -2.176  0.00  0.00    +0.066 C 
ATOM     15  N   UNL     1      -2.763   2.496  -1.553  0.00  0.00    -0.230 NA
ATOM     16  O   UNL     1      -3.258  -0.346  -1.141  0.00  0.00    -0.268 OA
ENDBRANCH   5   7
BRANCH   1  17
ATOM     17  S   UNL     1       2.513  -2.565  -0.268  0.00  0.00    -0.030 S 
BRANCH  17  20
ATOM     18  C   UNL     1       5.595  -3.524   0.298  0.00  0.00    +0.152 C 
ATOM     19  N   UNL     1       4.446  -4.118   0.926  0.00  0.00    -0.311 N 
ATOM     20  C   UNL     1       3.117  -3.790   0.809  0.00  0.00    +0.197 A 
ATOM     21  N   UNL     1       2.428  -4.553   1.630  0.00  0.00    -0.122 NA
ATOM     22  N   UNL     1       3.291  -5.433   2.238  0.00  0.00    -0.137 NA
ATOM     23  C   UNL     1       4.501  -5.157   1.811  0.00  0.00    +0.225 A 
ENDBRANCH  17  20
ENDBRANCH   1  17
BRANCH   4  24
ATOM     24  S   UNL     1      -3.807  -2.912   0.400  0.00  0.00    -0.087 S 
BRANCH  24  25
ATOM     25  C   UNL     1      -4.549  -3.382  -1.149  0.00  0.00    +0.013 A 
ATOM     26  C   UNL     1      -5.576  -2.586  -1.671  0.00  0.00    +0.018 A 
ATOM     27  C   UNL     1      -6.162  -2.901  -2.898  0.00  0.00    +0.039 A 
ATOM     28  C   UNL     1      -5.725  -4.020  -3.595  0.00  0.00    +0.123 A 
ATOM     29  F   UNL     1      -6.262  -4.308  -4.787  0.00  0.00    -0.205 F 
ATOM     30  C   UNL     1      -4.738  -4.847  -3.073  0.00  0.00    +0.039 A 
ATOM     31  C   UNL     1      -4.157  -4.534  -1.842  0.00  0.00    +0.018 A 
ENDBRANCH  24  25
ENDBRANCH   4  24
TORSDOF 5
