REMARK  Name = 
REMARK  3 active torsions:
REMARK  status: ('A' for Active; 'I' for Inactive)
REMARK    1  A    between atoms: O_1  and  C_2
REMARK    2  A    between atoms: C_3  and  C_19
REMARK    3  A    between atoms: C_8  and  C_9
REMARK                            x       y       z     vdW  Elec       q    Type
REMARK                         _______ _______ _______ _____ _____    ______ ____
ROOT
ATOM      1  C   UNL     1       2.512  -0.009   0.205  0.00  0.00    +0.174 C 
ATOM      2  C   UNL     1       3.428   1.084   0.280  0.00  0.00    +0.175 C 
ATOM      3  C   UNL     1       3.123   2.375   0.498  0.00  0.00    +0.058 C 
ATOM      4  O   UNL     1       4.715   0.602   0.113  0.00  0.00    -0.418 OA
ATOM      5  C   UNL     1       4.574  -0.747  -0.088  0.00  0.00    +0.349 C 
ATOM      6  O   UNL     1       5.512  -1.503  -0.294  0.00  0.00    -0.244 OA
ATOM      7  C   UNL     1       3.151  -1.160  -0.023  0.00  0.00    +0.111 C 
ENDROOT
BRANCH   3   8
ATOM      8  C   UNL     1       4.059   3.522   0.593  0.00  0.00    -0.014 A 
ATOM      9  C   UNL     1       3.801   4.632   1.460  0.00  0.00    -0.011 A 
ATOM     10  C   UNL     1       4.692   5.739   1.439  0.00  0.00    -0.017 A 
ATOM     11  C   UNL     1       4.460   6.857   2.258  0.00  0.00    +0.008 A 
ATOM     12  C   UNL     1       3.360   6.908   3.110  0.00  0.00    +0.001 A 
ATOM     13  C   UNL     1       2.486   5.834   3.166  0.00  0.00    +0.001 A 
ATOM     14  C   UNL     1       5.809   5.726   0.595  0.00  0.00    +0.008 A 
ATOM     15  C   UNL     1       6.053   4.647  -0.246  0.00  0.00    +0.001 A 
ATOM     16  C   UNL     1       2.705   4.712   2.358  0.00  0.00    +0.009 A 
ATOM     17  C   UNL     1       5.178   3.565  -0.258  0.00  0.00    +0.008 A 
ENDBRANCH   3   8
BRANCH   7  18
ATOM     18  C   UNL     1       2.637  -2.531  -0.135  0.00  0.00    -0.007 A 
ATOM     19  C   UNL     1       3.387  -3.615   0.351  0.00  0.00    +0.010 A 
ATOM     20  C   UNL     1       2.904  -4.926   0.268  0.00  0.00    +0.020 A 
ATOM     21  C   UNL     1       1.658  -5.169  -0.298  0.00  0.00    +0.041 A 
ATOM     22 CL   UNL     1       1.051  -6.776  -0.380  0.00  0.00    -0.084 Cl
ATOM     23  C   UNL     1       0.903  -4.115  -0.803  0.00  0.00    +0.020 A 
ATOM     24  C   UNL     1       1.398  -2.806  -0.737  0.00  0.00    +0.010 A 
ENDBRANCH   7  18
BRANCH   1  25
ATOM     25  O   UNL     1       1.182   0.216   0.415  0.00  0.00    -0.503 OA
ATOM     26  H   UNL     1       0.732  -0.637   0.534  0.00  0.00    +0.292 HD
ENDBRANCH   1  25
TORSDOF 3
