REMARK  Name = 
REMARK  5 active torsions:
REMARK  status: ('A' for Active; 'I' for Inactive)
REMARK    1  A    between atoms: O_1  and  C_2
REMARK    2  A    between atoms: C_2  and  C_4
REMARK    3  A    between atoms: C_7  and  C_9
REMARK    4  A    between atoms: C_10  and  O_11
REMARK    5  A    between atoms: O_11  and  C_12
REMARK                            x       y       z     vdW  Elec       q    Type
REMARK                         _______ _______ _______ _____ _____    ______ ____
ROOT
ATOM      1  C   UNL     1       3.869  -3.186  -3.499  0.00  0.00    +0.059 A 
ATOM      2  C   UNL     1       4.182  -4.327  -2.737  0.00  0.00    +0.015 A 
ATOM      3  C   UNL     1       4.247  -5.591  -3.324  0.00  0.00    +0.001 A 
ATOM      4  C   UNL     1       3.983  -5.737  -4.681  0.00  0.00    +0.004 A 
ATOM      5  C   UNL     1       3.650  -4.622  -5.451  0.00  0.00    +0.047 A 
ATOM      6  C   UNL     1       3.615  -3.344  -4.878  0.00  0.00    +0.141 A 
ENDROOT
BRANCH   1   9
ATOM      7  C   UNL     1       4.065   0.298  -2.720  0.00  0.00    +0.212 A 
ATOM      8  O   UNL     1       4.200  -0.799  -3.533  0.00  0.00    -0.448 OA
ATOM      9  C   UNL     1       3.797  -1.892  -2.819  0.00  0.00    +0.139 A 
ATOM     10  C   UNL     1       3.432  -1.502  -1.544  0.00  0.00    +0.051 A 
ATOM     11  C   UNL     1       3.595  -0.097  -1.485  0.00  0.00    +0.057 A 
BRANCH   7  12
ATOM     12  C   UNL     1       4.410   1.598  -3.238  0.00  0.00    +0.372 C 
ATOM     13  O   UNL     1       4.325   2.658  -2.637  0.00  0.00    -0.242 OA
BRANCH  12  14
ATOM     14  O   UNL     1       4.860   1.516  -4.519  0.00  0.00    -0.475 OA
ATOM     15  H   UNL     1       4.857   0.582  -4.819  0.00  0.00    +0.296 HD
ENDBRANCH  12  14
ENDBRANCH   7  12
ENDBRANCH   1   9
BRANCH   6  16
ATOM     16  O   UNL     1       3.175  -2.258  -5.582  0.00  0.00    -0.405 OA
BRANCH  16  17
ATOM     17  C   UNL     1       3.721  -2.016  -6.873  0.00  0.00    +0.575 C 
ATOM     18  F   UNL     1       4.482  -0.899  -6.814  0.00  0.00    -0.133 F 
ATOM     19  F   UNL     1       2.704  -1.789  -7.732  0.00  0.00    -0.133 F 
ATOM     20  F   UNL     1       4.477  -3.018  -7.361  0.00  0.00    -0.133 F 
ENDBRANCH  16  17
ENDBRANCH   6  16
TORSDOF 5
