REMARK  Name = 
REMARK  5 active torsions:
REMARK  status: ('A' for Active; 'I' for Inactive)
REMARK    1  A    between atoms: O_1  and  C_2
REMARK    2  A    between atoms: C_4  and  O_5
REMARK    3  A    between atoms: C_13  and  C_14
REMARK    4  A    between atoms: C_15  and  O_16
REMARK    5  A    between atoms: C_19  and  O_20
REMARK                            x       y       z     vdW  Elec       q    Type
REMARK                         _______ _______ _______ _____ _____    ______ ____
ROOT
ATOM      1  C   UNL     1       2.587  -0.149  -0.155  0.00  0.00    +0.124 A 
ATOM      2  C   UNL     1       3.139   1.116  -0.277  0.00  0.00    +0.092 A 
ATOM      3  C   UNL     1       4.512   1.199  -0.313  0.00  0.00    +0.147 A 
ATOM      4  C   UNL     1       5.346   0.089  -0.204  0.00  0.00    +0.109 A 
ATOM      5  C   UNL     1       6.726   0.616  -0.164  0.00  0.00    +0.235 C 
ATOM      6  C   UNL     1       6.520   2.103  -0.227  0.00  0.00    +0.176 C 
ATOM      7  C   UNL     1       7.438   3.064  -0.038  0.00  0.00    +0.061 C 
ATOM      8  O   UNL     1       7.777   0.029  -0.052  0.00  0.00    -0.283 OA
ATOM      9  C   UNL     1       4.795  -1.173  -0.101  0.00  0.00    +0.135 A 
ATOM     10  O   UNL     1       5.178   2.387  -0.407  0.00  0.00    -0.451 OA
ATOM     11  C   UNL     1       3.395  -1.296  -0.081  0.00  0.00    +0.091 A 
ENDROOT
BRANCH   7  12
ATOM     12  C   UNL     1       7.154   4.528  -0.044  0.00  0.00    +0.022 A 
ATOM     13  C   UNL     1       8.163   5.367  -0.549  0.00  0.00    +0.030 A 
ATOM     14  C   UNL     1       7.986   6.758  -0.624  0.00  0.00    +0.061 A 
ATOM     15 BR   UNL     1       9.422   7.817  -1.271  0.00  0.00    -0.046 Br
ATOM     16  C   UNL     1       6.785   7.342  -0.223  0.00  0.00    +0.148 A 
ATOM     17  C   UNL     1       5.776   6.536   0.303  0.00  0.00    +0.102 A 
ATOM     18 BR   UNL     1       4.129   7.337   0.839  0.00  0.00    -0.043 Br
ATOM     19  C   UNL     1       5.978   5.151   0.438  0.00  0.00    +0.142 A 
BRANCH  16  20
ATOM     20  O   UNL     1       6.614   8.698  -0.330  0.00  0.00    -0.504 OA
ATOM     21  H   UNL     1       5.725   8.913   0.007  0.00  0.00    +0.292 HD
ENDBRANCH  16  20
BRANCH  19  22
ATOM     22  O   UNL     1       4.992   4.467   1.105  0.00  0.00    -0.505 OA
ATOM     23  H   UNL     1       5.270   3.548   1.237  0.00  0.00    +0.292 HD
ENDBRANCH  19  22
ENDBRANCH   7  12
BRANCH   1  24
ATOM     24  O   UNL     1       1.226  -0.218  -0.105  0.00  0.00    -0.507 OA
ATOM     25  H   UNL     1       0.944  -1.143  -0.018  0.00  0.00    +0.292 HD
ENDBRANCH   1  24
BRANCH   9  26
ATOM     26  O   UNL     1       5.582  -2.283  -0.010  0.00  0.00    -0.506 OA
ATOM     27  H   UNL     1       5.035  -3.085  -0.013  0.00  0.00    +0.292 HD
ENDBRANCH   9  26
TORSDOF 5
