REMARK  Name = 
REMARK  3 active torsions:
REMARK  status: ('A' for Active; 'I' for Inactive)
REMARK    1  A    between atoms: C_2  and  C_4
REMARK    2  A    between atoms: C_5  and  N_6
REMARK    3  A    between atoms: C_7  and  C_9
REMARK                            x       y       z     vdW  Elec       q    Type
REMARK                         _______ _______ _______ _____ _____    ______ ____
ROOT
ATOM      1  C   UNL     1       3.435  -0.445   1.751  0.00  0.00    +0.068 A 
ATOM      2  C   UNL     1       3.450  -1.840   2.168  0.00  0.00    -0.023 A 
ATOM      3  C   UNL     1       2.836  -3.015   1.448  0.00  0.00    +0.037 C 
ATOM      4  C   UNL     1       2.815  -4.291   2.311  0.00  0.00    +0.005 C 
ATOM      5  C   UNL     1       4.130  -4.498   3.072  0.00  0.00    +0.005 C 
ATOM      6  C   UNL     1       4.414  -3.328   4.020  0.00  0.00    +0.043 C 
ATOM      7  C   UNL     1       4.198  -2.024   3.317  0.00  0.00    -0.004 A 
ATOM      8  S   UNL     1       4.875  -0.586   3.897  0.00  0.00    -0.077 S 
ATOM      9  C   UNL     1       4.213   0.319   2.611  0.00  0.00    +0.084 A 
ENDROOT
BRANCH   1  13
ATOM     10  N   UNL     1       3.333   1.161  -0.029  0.00  0.00    -0.325 N 
ATOM     11  H   UNL     1       4.310   1.352   0.149  0.00  0.00    +0.145 HD
ATOM     12  H   UNL     1       2.991   1.361  -0.961  0.00  0.00    +0.145 HD
ATOM     13  C   UNL     1       2.763   0.060   0.551  0.00  0.00    +0.244 C 
ATOM     14  O   UNL     1       1.791  -0.477   0.034  0.00  0.00    -0.270 OA
ENDBRANCH   1  13
BRANCH   9  15
ATOM     15  N   UNL     1       4.454   1.690   2.651  0.00  0.00    -0.279 N 
ATOM     16  H   UNL     1       3.745   2.306   2.274  0.00  0.00    +0.155 HD
ATOM     17  C   UNL     1       5.767   2.137   2.591  0.00  0.00    +0.221 C 
ATOM     18  O   UNL     1       6.744   1.420   2.412  0.00  0.00    -0.275 OA
BRANCH  17  19
ATOM     19  C   UNL     1       6.006   3.605   2.661  0.00  0.00    +0.075 C 
ATOM     20  C   UNL     1       5.041   4.631   3.188  0.00  0.00    +0.013 C 
ATOM     21  C   UNL     1       5.339   4.577   1.717  0.00  0.00    +0.013 C 
ENDBRANCH  17  19
ENDBRANCH   9  15
TORSDOF 3
