REMARK  Name = 
REMARK  7 active torsions:
REMARK  status: ('A' for Active; 'I' for Inactive)
REMARK    1  A    between atoms: C_1  and  C_2
REMARK    2  A    between atoms: C_5  and  C_18
REMARK    3  A    between atoms: C_7  and  C_8
REMARK    4  A    between atoms: N_10  and  C_11
REMARK    5  A    between atoms: N_20  and  C_21
REMARK    6  A    between atoms: C_21  and  C_22
REMARK    7  A    between atoms: C_22  and  C_23
REMARK                            x       y       z     vdW  Elec       q    Type
REMARK                         _______ _______ _______ _____ _____    ______ ____
ROOT
ATOM      1  C   UNL     1       1.017   0.264   0.169  0.00  0.00    +0.044 C 
ATOM      2  C   UNL     1       2.505   0.127   0.007  0.00  0.00    -0.038 A 
ATOM      3  C   UNL     1       3.198  -1.101  -0.078  0.00  0.00    +0.041 A 
ATOM      4  C   UNL     1       4.607  -1.097  -0.225  0.00  0.00    +0.026 A 
ATOM      5  C   UNL     1       5.325   0.101  -0.296  0.00  0.00    +0.037 A 
ATOM      6  C   UNL     1       4.635   1.309  -0.210  0.00  0.00    +0.013 A 
ATOM      7  C   UNL     1       3.248   1.322  -0.061  0.00  0.00    +0.005 A 
ENDROOT
BRANCH   3   8
ATOM      8  C   UNL     1       2.586  -2.469   0.026  0.00  0.00    +0.249 C 
ATOM      9  N   UNL     1       1.359  -2.676  -0.575  0.00  0.00    -0.280 N 
ATOM     10  H   UNL     1       0.930  -1.902  -1.059  0.00  0.00    +0.155 HD
ATOM     11  O   UNL     1       3.243  -3.332   0.602  0.00  0.00    -0.270 OA
BRANCH   9  12
ATOM     12  C   UNL     1       0.672  -3.912  -0.674  0.00  0.00    +0.052 A 
ATOM     13  C   UNL     1      -0.580  -3.918  -1.291  0.00  0.00    +0.028 A 
ATOM     14  C   UNL     1      -1.269  -5.122  -1.460  0.00  0.00    +0.045 A 
ATOM     15  C   UNL     1      -0.686  -6.298  -1.022  0.00  0.00    +0.116 A 
ATOM     16  N   UNL     1      -1.332  -7.521  -1.191  0.00  0.00    -0.343 N 
ATOM     17  H   UNL     1      -1.575  -7.681  -2.160  0.00  0.00    +0.144 HD
ATOM     18  H   UNL     1      -0.696  -8.235  -0.843  0.00  0.00    +0.144 HD
ATOM     19  N   UNL     1       0.500  -6.325  -0.400  0.00  0.00    -0.239 NA
ATOM     20  C   UNL     1       1.153  -5.140  -0.234  0.00  0.00    +0.136 A 
ENDBRANCH   9  12
ENDBRANCH   3   8
BRANCH   5  21
ATOM     21  C   UNL     1       6.795   0.162  -0.530  0.00  0.00    +0.244 C 
ATOM     22  N   UNL     1       7.552  -0.921  -0.138  0.00  0.00    -0.311 N 
ATOM     23  H   UNL     1       7.141  -1.653   0.427  0.00  0.00    +0.149 HD
ATOM     24  O   UNL     1       7.280   1.165  -1.046  0.00  0.00    -0.270 OA
BRANCH  22  25
ATOM     25  C   UNL     1       8.991  -0.933  -0.327  0.00  0.00    +0.105 C 
BRANCH  25  26
ATOM     26  C   UNL     1       9.752  -0.215   0.790  0.00  0.00    +0.022 C 
BRANCH  26  27
ATOM     27  C   UNL     1       9.591  -0.863   2.169  0.00  0.00    -0.010 C 
ATOM     28  C   UNL     1      10.419  -0.158   3.254  0.00  0.00    +0.003 C 
ATOM     29  C   UNL     1      10.868  -1.250   4.227  0.00  0.00    +0.000 C 
ATOM     30  C   UNL     1      10.248  -2.546   3.724  0.00  0.00    +0.000 C 
ATOM     31  C   UNL     1      10.062  -2.314   2.235  0.00  0.00    +0.003 C 
ENDBRANCH  26  27
ENDBRANCH  25  26
ENDBRANCH  22  25
ENDBRANCH   5  21
TORSDOF 6
