REMARK  Name = 
REMARK  2 active torsions:
REMARK  status: ('A' for Active; 'I' for Inactive)
REMARK    1  A    between atoms: C_5  and  C_8
REMARK    2  A    between atoms: C_12  and  C_13
REMARK                            x       y       z     vdW  Elec       q    Type
REMARK                         _______ _______ _______ _____ _____    ______ ____
ROOT
ATOM      1  C   UNL     1       6.380   0.006  -0.418  0.00  0.00    +0.027 A 
ATOM      2  C   UNL     1       7.207  -1.107  -0.819  0.00  0.00    +0.100 A 
ATOM      3  N   UNL     1       8.454  -0.690  -1.106  0.00  0.00    -0.173 NA
ATOM      4  N   UNL     1       8.424   0.633  -0.930  0.00  0.00    -0.284 N 
ATOM      5  H   UNL     1       9.271   1.159  -1.118  0.00  0.00    +0.188 HD
ATOM      6  C   UNL     1       7.215   1.104  -0.514  0.00  0.00    +0.114 A 
ENDROOT
BRANCH   1  11
ATOM      7  F   UNL     1       0.874   0.073   0.482  0.00  0.00    -0.205 F 
ATOM      8  C   UNL     1       2.208   0.109   0.365  0.00  0.00    +0.123 A 
ATOM      9  C   UNL     1       2.968  -0.941   0.861  0.00  0.00    +0.039 A 
ATOM     10  C   UNL     1       4.356  -0.921   0.699  0.00  0.00    +0.011 A 
ATOM     11  C   UNL     1       4.975   0.103  -0.030  0.00  0.00    -0.014 A 
ATOM     12  C   UNL     1       4.194   1.187  -0.463  0.00  0.00    +0.011 A 
ATOM     13  C   UNL     1       2.812   1.191  -0.261  0.00  0.00    +0.039 A 
ENDBRANCH   1  11
BRANCH   2  14
ATOM     14  C   UNL     1       6.887  -2.539  -0.918  0.00  0.00    +0.008 A 
ATOM     15  C   UNL     1       5.615  -2.995  -1.268  0.00  0.00    +0.030 A 
ATOM     16  C   UNL     1       5.350  -4.354  -1.197  0.00  0.00    +0.114 A 
ATOM     17  N   UNL     1       6.273  -5.280  -0.876  0.00  0.00    -0.228 NA
ATOM     18  C   UNL     1       7.517  -4.824  -0.627  0.00  0.00    +0.214 A 
ATOM     19  F   UNL     1       8.461  -5.734  -0.343  0.00  0.00    -0.184 F 
ATOM     20  C   UNL     1       7.869  -3.489  -0.628  0.00  0.00    +0.069 A 
ENDBRANCH   2  14
TORSDOF 2
