REMARK  Name = 
REMARK  9 active torsions:
REMARK  status: ('A' for Active; 'I' for Inactive)
REMARK    1  A    between atoms: C_2  and  C_3
REMARK    2  A    between atoms: C_2  and  C_18
REMARK    3  A    between atoms: C_2  and  C_26
REMARK    4  A    between atoms: C_3  and  C_4
REMARK    5  A    between atoms: C_8  and  C_11
REMARK    6  A    between atoms: C_11  and  P_14
REMARK    7  A    between atoms: P_14  and  O_15
REMARK    8  A    between atoms: P_14  and  O_16
REMARK    9  A    between atoms: C_18  and  C_20
REMARK                            x       y       z     vdW  Elec       q    Type
REMARK                         _______ _______ _______ _____ _____    ______ ____
ROOT
ATOM      1  C   UNL     1       0.920  -0.046   0.031  0.00  0.00    +0.051 C 
ENDROOT
BRANCH   1   2
ATOM      2  C   UNL     1       0.099  -1.254   0.425  0.00  0.00    -0.045 A 
ATOM      3  C   UNL     1      -0.461  -1.350   1.703  0.00  0.00    +0.004 A 
ATOM      4  C   UNL     1      -1.181  -2.479   2.086  0.00  0.00    +0.011 A 
ATOM      5  C   UNL     1      -1.403  -3.527   1.182  0.00  0.00    +0.047 A 
ATOM      6  C   UNL     1      -0.832  -3.437  -0.095  0.00  0.00    +0.028 A 
ATOM      7 BR   UNL     1      -0.963  -4.833  -1.374  0.00  0.00    -0.050 Br
ATOM      8  C   UNL     1      -0.100  -2.305  -0.473  0.00  0.00    +0.019 A 
BRANCH   5   9
ATOM      9  C   UNL     1      -2.230  -4.692   1.631  0.00  0.00    +0.372 C 
ATOM     10  F   UNL     1      -3.068  -5.189   0.672  0.00  0.00    -0.187 F 
ATOM     11  F   UNL     1      -3.083  -4.410   2.675  0.00  0.00    -0.187 F 
BRANCH   9  12
ATOM     12  P   UNL     1      -1.392  -6.213   2.209  0.00  0.00    +0.401 P 
ATOM     13  O   UNL     1      -0.684  -7.500   2.699  0.00  0.00    -0.252 OA
BRANCH  12  14
ATOM     14  O   UNL     1      -2.890  -6.905   2.492  0.00  0.00    -0.320 OA
ATOM     15  H   UNL     1      -3.671  -6.329   2.371  0.00  0.00    +0.220 HD
ENDBRANCH  12  14
BRANCH  12  16
ATOM     16  O   UNL     1      -1.277  -5.502   3.713  0.00  0.00    -0.320 OA
ATOM     17  H   UNL     1      -2.161  -5.378   4.114  0.00  0.00    +0.220 HD
ENDBRANCH  12  16
ENDBRANCH   9  12
ENDBRANCH   5   9
ENDBRANCH   1   2
BRANCH   1  18
ATOM     18  C   UNL     1       2.450  -0.106   0.261  0.00  0.00    +0.094 C 
BRANCH  18  19
ATOM     19  C   UNL     1       3.193  -1.159  -0.550  0.00  0.00    -0.037 A 
ATOM     20  C   UNL     1       3.743  -0.822  -1.799  0.00  0.00    +0.004 A 
ATOM     21  C   UNL     1       4.624  -1.694  -2.443  0.00  0.00    +0.000 A 
ATOM     22  C   UNL     1       4.945  -2.918  -1.862  0.00  0.00    +0.000 A 
ATOM     23  C   UNL     1       4.345  -3.297  -0.664  0.00  0.00    +0.000 A 
ATOM     24  C   UNL     1       3.461  -2.430  -0.020  0.00  0.00    +0.004 A 
ENDBRANCH  18  19
BRANCH  18  25
ATOM     25  C   UNL     1       2.816  -0.156   1.752  0.00  0.00    +0.171 C 
ATOM     26  O   UNL     1       2.132  -0.727   2.600  0.00  0.00    -0.291 OA
BRANCH  25  27
ATOM     27  C   UNL     1       4.060   0.485   2.245  0.00  0.00    +0.018 A 
ATOM     28  C   UNL     1       5.204   0.648   1.450  0.00  0.00    +0.011 A 
ATOM     29  C   UNL     1       6.364   1.179   2.012  0.00  0.00    +0.001 A 
ATOM     30  C   UNL     1       6.382   1.562   3.356  0.00  0.00    +0.000 A 
ATOM     31  C   UNL     1       5.243   1.422   4.140  0.00  0.00    +0.001 A 
ATOM     32  C   UNL     1       4.090   0.878   3.589  0.00  0.00    +0.011 A 
ENDBRANCH  25  27
ENDBRANCH  18  25
ENDBRANCH   1  18
TORSDOF 9
