REMARK  Name = 
REMARK  7 active torsions:
REMARK  status: ('A' for Active; 'I' for Inactive)
REMARK    1  A    between atoms: C_2  and  O_3
REMARK    2  A    between atoms: N_5  and  C_6
REMARK    3  A    between atoms: C_6  and  C_7
REMARK    4  A    between atoms: C_18  and  C_20
REMARK    5  A    between atoms: C_20  and  S_21
REMARK    6  A    between atoms: S_21  and  C_22
REMARK    7  A    between atoms: C_22  and  C_23
REMARK                            x       y       z     vdW  Elec       q    Type
REMARK                         _______ _______ _______ _____ _____    ______ ____
ROOT
ATOM      1  C   UNL     1       2.124  -0.010   0.022  0.00  0.00    +0.134 C 
ATOM      2  C   UNL     1       2.598  -1.300   0.704  0.00  0.00    +0.043 C 
ATOM      3  C   UNL     1       3.789  -0.851   1.567  0.00  0.00    +0.091 C 
ATOM      4  N   UNL     1       4.118   0.538   1.208  0.00  0.00    -0.295 NA
ATOM      5  C   UNL     1       2.813   1.102   0.818  0.00  0.00    +0.116 C 
ENDROOT
BRANCH   1   6
ATOM      6  O   UNL     1       0.708   0.095   0.044  0.00  0.00    -0.390 OA
ATOM      7  H   UNL     1       0.412   0.038   0.970  0.00  0.00    +0.210 HD
ENDBRANCH   1   6
BRANCH   2   8
ATOM      8  C   UNL     1       2.943  -2.392  -0.317  0.00  0.00    +0.076 C 
BRANCH   8   9
ATOM      9  S   UNL     1       3.410  -3.932   0.547  0.00  0.00    -0.156 S 
BRANCH   9  10
ATOM     10  C   UNL     1       3.840  -4.972  -0.883  0.00  0.00    +0.104 C 
BRANCH  10  11
ATOM     11  C   UNL     1       4.381  -6.303  -0.422  0.00  0.00    -0.038 A 
ATOM     12  C   UNL     1       5.759  -6.498  -0.249  0.00  0.00    +0.004 A 
ATOM     13  C   UNL     1       6.251  -7.718   0.220  0.00  0.00    +0.000 A 
ATOM     14  C   UNL     1       5.370  -8.756   0.525  0.00  0.00    +0.000 A 
ATOM     15  C   UNL     1       3.999  -8.572   0.365  0.00  0.00    +0.000 A 
ATOM     16  C   UNL     1       3.505  -7.353  -0.105  0.00  0.00    +0.004 A 
ENDBRANCH  10  11
ENDBRANCH   9  10
ENDBRANCH   8   9
ENDBRANCH   2   8
BRANCH   4  17
ATOM     17  C   UNL     1       5.080   0.674   0.098  0.00  0.00    +0.123 C 
BRANCH  17  18
ATOM     18  C   UNL     1       6.426   0.102   0.419  0.00  0.00    +0.010 A 
ATOM     19  C   UNL     1       7.543   0.798   0.967  0.00  0.00    +0.098 A 
ATOM     20  N   UNL     1       7.647   2.086   1.357  0.00  0.00    -0.233 NA
ATOM     21  C   UNL     1       8.873   2.408   1.797  0.00  0.00    +0.224 A 
ATOM     22  N   UNL     1       9.965   1.619   1.874  0.00  0.00    -0.219 NA
ATOM     23  C   UNL     1       9.851   0.345   1.475  0.00  0.00    +0.144 A 
ATOM     24  N   UNL     1      10.975  -0.465   1.538  0.00  0.00    -0.341 N 
ATOM     25  H   UNL     1      10.793  -1.424   1.792  0.00  0.00    +0.144 HD
ATOM     26  H   UNL     1      11.689  -0.004   2.089  0.00  0.00    +0.144 HD
ATOM     27  C   UNL     1       8.615  -0.083   1.021  0.00  0.00    +0.105 A 
ATOM     28  N   UNL     1       8.179  -1.286   0.533  0.00  0.00    -0.356 N 
ATOM     29  H   UNL     1       8.759  -2.108   0.436  0.00  0.00    +0.165 HD
ATOM     30  C   UNL     1       6.869  -1.184   0.146  0.00  0.00    +0.090 A 
ENDBRANCH  17  18
ENDBRANCH   4  17
TORSDOF 7
