REMARK  Name = 
REMARK  7 active torsions:
REMARK  status: ('A' for Active; 'I' for Inactive)
REMARK    1  A    between atoms: C_2  and  C_3
REMARK    2  A    between atoms: C_2  and  N_4
REMARK    3  A    between atoms: C_2  and  C_9
REMARK    4  A    between atoms: C_5  and  C_7
REMARK    5  A    between atoms: C_7  and  N_8
REMARK    6  A    between atoms: C_15  and  C_17
REMARK    7  A    between atoms: N_19  and  C_20
REMARK                            x       y       z     vdW  Elec       q    Type
REMARK                         _______ _______ _______ _____ _____    ______ ____
ROOT
ATOM      1  C   UNL     1       2.837   1.209  -0.791  0.00  0.00    +0.236 C 
ATOM      2  N   UNL     1       4.193   1.367  -1.027  0.00  0.00    -0.288 N 
ATOM      3  C   UNL     1       5.135   0.321  -1.441  0.00  0.00    +0.162 C 
ATOM      4  C   UNL     1       6.284   1.072  -2.131  0.00  0.00    +0.033 C 
ATOM      5  C   UNL     1       5.831   2.522  -2.247  0.00  0.00    +0.021 C 
ATOM      6  C   UNL     1       4.769   2.690  -1.182  0.00  0.00    +0.109 C 
ATOM      7  O   UNL     1       2.125   2.195  -0.583  0.00  0.00    -0.274 OA
ENDROOT
BRANCH   3   8
ATOM      8  C   UNL     1       5.712  -0.482  -0.262  0.00  0.00    +0.238 C 
ATOM      9  N   UNL     1       5.873   0.262   0.897  0.00  0.00    -0.284 N 
ATOM     10  H   UNL     1       5.352   1.130   0.938  0.00  0.00    +0.155 HD
ATOM     11  O   UNL     1       6.113  -1.633  -0.433  0.00  0.00    -0.273 OA
BRANCH   9  12
ATOM     12  C   UNL     1       6.569  -0.120   2.057  0.00  0.00    +0.034 A 
ATOM     13  C   UNL     1       6.357   0.619   3.227  0.00  0.00    +0.031 A 
ATOM     14  C   UNL     1       7.032   0.303   4.419  0.00  0.00    -0.016 A 
ATOM     15  C   UNL     1       7.969  -0.752   4.421  0.00  0.00    -0.018 A 
ATOM     16  C   UNL     1       8.693  -1.042   5.587  0.00  0.00    +0.008 A 
ATOM     17  C   UNL     1       8.486  -0.299   6.751  0.00  0.00    +0.001 A 
ATOM     18  C   UNL     1       7.535   0.717   6.769  0.00  0.00    +0.001 A 
ATOM     19  C   UNL     1       8.170  -1.494   3.254  0.00  0.00    +0.010 A 
ATOM     20  C   UNL     1       6.809   1.015   5.612  0.00  0.00    +0.008 A 
ATOM     21  C   UNL     1       7.472  -1.184   2.084  0.00  0.00    +0.024 A 
ENDBRANCH   9  12
ENDBRANCH   3   8
BRANCH   1  22
ATOM     22  C   UNL     1       2.271  -0.225  -0.671  0.00  0.00    +0.156 C 
ATOM     23  C   UNL     1       0.768  -0.218  -0.967  0.00  0.00    +0.038 C 
BRANCH  22  24
ATOM     24  N   UNL     1       2.545  -0.743   0.665  0.00  0.00    -0.303 N 
ATOM     25  H   UNL     1       2.763  -0.119   1.439  0.00  0.00    +0.149 HD
ATOM     26  C   UNL     1       2.458  -2.086   0.957  0.00  0.00    +0.227 C 
ATOM     27  O   UNL     1       2.213  -2.942   0.109  0.00  0.00    -0.274 OA
BRANCH  26  28
ATOM     28  C   UNL     1       2.610  -2.426   2.443  0.00  0.00    +0.174 C 
BRANCH  28  29
ATOM     29  N   UNL     1       3.706  -1.660   3.057  0.00  0.00    -0.322 NA
ATOM     30  H   UNL     1       3.839  -1.999   4.012  0.00  0.00    +0.119 HD
ATOM     31  H   UNL     1       4.575  -1.921   2.578  0.00  0.00    +0.119 HD
ENDBRANCH  28  29
ENDBRANCH  26  28
ENDBRANCH  22  24
ENDBRANCH   1  22
TORSDOF 6
