REMARK  Name = 
REMARK  14 active torsions:
REMARK  status: ('A' for Active; 'I' for Inactive)
REMARK    1  A    between atoms: C_2  and  N_3
REMARK    2  A    between atoms: C_2  and  C_4
REMARK    3  A    between atoms: C_2  and  C_11
REMARK    4  A    between atoms: C_4  and  C_5
REMARK    5  A    between atoms: C_11  and  O_13
REMARK    6  A    between atoms: C_11  and  C_14
REMARK    7  A    between atoms: C_14  and  N_15
REMARK    8  A    between atoms: N_15  and  S_16
REMARK    9  A    between atoms: S_16  and  C_19
REMARK   10  A    between atoms: C_20  and  C_21
REMARK   11  A    between atoms: C_23  and  O_24
REMARK   12  A    between atoms: O_24  and  C_25
REMARK   13  A    between atoms: C_26  and  C_27
REMARK   14  A    between atoms: C_28  and  C_29
REMARK                            x       y       z     vdW  Elec       q    Type
REMARK                         _______ _______ _______ _____ _____    ______ ____
ROOT
ATOM      1  N   UNL     1       4.678  -2.547  -0.280  0.00  0.00    -0.187 NA
ATOM      2  H   UNL     1       4.317  -3.122  -1.046  0.00  0.00    +0.148 HD
ENDROOT
BRANCH   1   3
ATOM      3  S   UNL     1       6.382  -2.667  -0.339  0.00  0.00    +0.059 S 
ATOM      4  O   UNL     1       6.806  -1.609  -1.228  0.00  0.00    -0.153 OA
ATOM      5  O   UNL     1       6.684  -4.044  -0.658  0.00  0.00    -0.153 OA
BRANCH   3   6
ATOM      6  C   UNL     1       6.898  -2.367   1.366  0.00  0.00    +0.111 A 
ATOM      7  C   UNL     1       7.805  -1.312   1.702  0.00  0.00    -0.018 A 
ATOM      8  C   UNL     1       8.388  -0.435   0.609  0.00  0.00    +0.046 C 
ATOM      9  C   UNL     1       8.182  -1.072   3.079  0.00  0.00    -0.004 A 
ATOM     10  C   UNL     1       9.125   0.079   3.337  0.00  0.00    +0.048 C 
ATOM     11  C   UNL     1       7.677  -1.922   4.075  0.00  0.00    +0.124 A 
ATOM     12  C   UNL     1       6.818  -2.968   3.700  0.00  0.00    +0.051 A 
ATOM     13  C   UNL     1       6.420  -3.221   2.377  0.00  0.00    -0.020 A 
ATOM     14  C   UNL     1       5.508  -4.405   2.194  0.00  0.00    +0.046 C 
BRANCH  11  15
ATOM     15  O   UNL     1       7.859  -1.962   5.425  0.00  0.00    -0.495 OA
ATOM     16  C   UNL     1       8.682  -1.060   6.132  0.00  0.00    +0.277 C 
ENDBRANCH  11  15
ENDBRANCH   3   6
ENDBRANCH   1   3
BRANCH   1  17
ATOM     17  C   UNL     1       4.131  -1.159  -0.215  0.00  0.00    +0.138 C 
BRANCH  17  18
ATOM     18  C   UNL     1       2.592  -1.211  -0.343  0.00  0.00    +0.147 C 
BRANCH  18  19
ATOM     19  O   UNL     1       2.067  -2.042   0.703  0.00  0.00    -0.389 OA
ATOM     20  H   UNL     1       2.681  -2.798   0.777  0.00  0.00    +0.210 HD
ENDBRANCH  18  19
BRANCH  18  21
ATOM     21  C   UNL     1       1.938   0.200  -0.277  0.00  0.00    +0.085 C 
BRANCH  21  22
ATOM     22  N   UNL     1       2.520   1.096  -1.295  0.00  0.00    -0.325 NA
ATOM     23  H   UNL     1       2.266   0.769  -2.228  0.00  0.00    +0.119 HD
ATOM     24  H   UNL     1       2.074   2.014  -1.211  0.00  0.00    +0.119 HD
ENDBRANCH  21  22
BRANCH  21  25
ATOM     25  C   UNL     1       0.395   0.099  -0.431  0.00  0.00    +0.056 C 
BRANCH  25  26
ATOM     26  C   UNL     1      -0.341   1.422  -0.346  0.00  0.00    -0.046 A 
ATOM     27  C   UNL     1      -0.319   2.181   0.834  0.00  0.00    +0.004 A 
ATOM     28  C   UNL     1      -0.990   3.404   0.904  0.00  0.00    +0.000 A 
ATOM     29  C   UNL     1      -1.697   3.879  -0.198  0.00  0.00    +0.000 A 
ATOM     30  C   UNL     1      -1.742   3.128  -1.370  0.00  0.00    +0.000 A 
ATOM     31  C   UNL     1      -1.070   1.904  -1.443  0.00  0.00    +0.004 A 
ENDBRANCH  25  26
ENDBRANCH  21  25
ENDBRANCH  18  21
ENDBRANCH  17  18
ENDBRANCH   1  17
TORSDOF 10
