REMARK  Name = 
REMARK  8 active torsions:
REMARK  status: ('A' for Active; 'I' for Inactive)
REMARK    1  A    between atoms: C_2  and  O_24
REMARK    2  A    between atoms: C_15  and  O_16
REMARK    3  A    between atoms: C_22  and  C_23
REMARK    4  A    between atoms: O_24  and  C_25
REMARK    5  A    between atoms: C_25  and  C_27
REMARK    6  A    between atoms: C_27  and  C_28
REMARK    7  A    between atoms: C_28  and  C_29
REMARK    8  A    between atoms: C_29  and  O_30
REMARK                            x       y       z     vdW  Elec       q    Type
REMARK                         _______ _______ _______ _____ _____    ______ ____
ROOT
ATOM      1  C   UNL     1       1.761  -2.644  -0.269  0.00  0.00    +0.183 C 
ATOM      2  C   UNL     1       1.869  -3.672   0.926  0.00  0.00    +0.008 C 
ATOM      3  C   UNL     1       0.426  -4.043   1.375  0.00  0.00    +0.015 C 
ATOM      4  C   UNL     1       2.793  -2.896   1.899  0.00  0.00    +0.002 C 
ATOM      5  C   UNL     1       2.678  -3.387   3.315  0.00  0.00    +0.000 C 
ATOM      6  C   UNL     1       3.279  -4.824   3.372  0.00  0.00    +0.023 C 
ATOM      7  C   UNL     1       2.739  -5.736   2.210  0.00  0.00    +0.009 C 
ATOM      8  C   UNL     1       3.208  -5.325   4.819  0.00  0.00    -0.041 A 
ATOM      9  C   UNL     1       3.289  -6.688   5.147  0.00  0.00    +0.008 A 
ATOM     10  C   UNL     1       3.291  -7.108   6.489  0.00  0.00    +0.046 A 
ATOM     11  C   UNL     1       3.209  -6.167   7.510  0.00  0.00    +0.117 A 
ATOM     12  C   UNL     1       3.135  -4.818   7.221  0.00  0.00    +0.049 A 
ATOM     13  C   UNL     1       3.168  -4.387   5.891  0.00  0.00    -0.040 A 
ATOM     14  C   UNL     1       3.116  -2.894   5.688  0.00  0.00    +0.036 C 
ATOM     15  C   UNL     1       3.448  -2.486   4.275  0.00  0.00    +0.009 C 
ATOM     16  C   UNL     1       2.643  -1.426   1.572  0.00  0.00    +0.008 C 
ATOM     17  C   UNL     1       2.618  -5.027   0.799  0.00  0.00    +0.011 C 
ATOM     18  C   UNL     1       2.751  -1.513   0.049  0.00  0.00    +0.045 C 
ENDROOT
BRANCH  11  19
ATOM     19  O   UNL     1       3.200  -6.518   8.829  0.00  0.00    -0.507 OA
ATOM     20  H   UNL     1       3.253  -7.483   8.899  0.00  0.00    +0.292 HD
ENDBRANCH  11  19
BRANCH   1  21
ATOM     21  O   UNL     1       0.484  -1.949  -0.113  0.00  0.00    -0.461 OA
BRANCH  21  22
ATOM     22  C   UNL     1      -0.342  -1.675  -1.127  0.00  0.00    +0.308 C 
ATOM     23  O   UNL     1      -0.157  -1.921  -2.311  0.00  0.00    -0.251 OA
BRANCH  22  24
ATOM     24  C   UNL     1      -1.555  -0.939  -0.630  0.00  0.00    +0.132 C 
BRANCH  24  25
ATOM     25  C   UNL     1      -1.392   0.561  -0.781  0.00  0.00    +0.131 C 
BRANCH  25  26
ATOM     26  C   UNL     1      -1.304   1.148  -2.173  0.00  0.00    +0.305 C 
ATOM     27  O   UNL     1      -1.281   2.362  -2.341  0.00  0.00    -0.251 OA
BRANCH  26  28
ATOM     28  O   UNL     1      -1.254   0.311  -3.221  0.00  0.00    -0.481 OA
ATOM     29  H   UNL     1      -1.095  -0.646  -3.069  0.00  0.00    +0.295 HD
ENDBRANCH  26  28
ENDBRANCH  25  26
ENDBRANCH  24  25
ENDBRANCH  22  24
ENDBRANCH  21  22
ENDBRANCH   1  21
TORSDOF 7
