REMARK  Name = 
REMARK  6 active torsions:
REMARK  status: ('A' for Active; 'I' for Inactive)
REMARK    1  A    between atoms: O_1  and  C_2
REMARK    2  A    between atoms: C_2  and  C_4
REMARK    3  A    between atoms: C_4  and  C_5
REMARK    4  A    between atoms: C_5  and  N_6
REMARK    5  A    between atoms: C_10  and  O_11
REMARK    6  A    between atoms: C_17  and  C_25
REMARK                            x       y       z     vdW  Elec       q    Type
REMARK                         _______ _______ _______ _____ _____    ______ ____
ROOT
ATOM      1  N   UNL     1       5.364  -2.215  -0.142  0.00  0.00    -0.339 N 
ATOM      2  C   UNL     1       4.775  -3.466  -0.039  0.00  0.00    +0.051 A 
ATOM      3  C   UNL     1       3.465  -3.895   0.211  0.00  0.00    +0.035 A 
ATOM      4  C   UNL     1       3.140  -5.278   0.201  0.00  0.00    -0.003 A 
ATOM      5  C   UNL     1       4.227  -6.143  -0.061  0.00  0.00    +0.060 A 
ATOM      6  C   UNL     1       4.226  -7.578  -0.235  0.00  0.00    +0.260 A 
ATOM      7  O   UNL     1       3.353  -8.419  -0.395  0.00  0.00    -0.267 OA
ATOM      8  N   UNL     1       5.551  -7.911  -0.285  0.00  0.00    -0.289 N 
ATOM      9  H   UNL     1       5.846  -8.859  -0.449  0.00  0.00    +0.172 HD
ATOM     10  C   UNL     1       6.426  -6.872  -0.386  0.00  0.00    +0.260 A 
ATOM     11  O   UNL     1       7.621  -7.046  -0.589  0.00  0.00    -0.267 OA
ATOM     12  C   UNL     1       5.585  -5.727  -0.229  0.00  0.00    +0.062 A 
ATOM     13  C   UNL     1       5.816  -4.331  -0.236  0.00  0.00    +0.021 A 
ATOM     14  C   UNL     1       7.050  -3.709  -0.442  0.00  0.00    +0.012 A 
ATOM     15  C   UNL     1       8.392  -4.072  -0.688  0.00  0.00    +0.056 A 
ATOM     16  C   UNL     1       9.359  -3.079  -0.852  0.00  0.00    +0.118 A 
ATOM     17  C   UNL     1       9.040  -1.737  -0.759  0.00  0.00    +0.047 A 
ATOM     18  C   UNL     1       7.730  -1.345  -0.489  0.00  0.00    +0.030 A 
ATOM     19  C   UNL     1       6.739  -2.338  -0.355  0.00  0.00    +0.050 A 
ENDROOT
BRANCH   4  20
ATOM     20  C   UNL     1       1.755  -5.737   0.484  0.00  0.00    -0.017 A 
ATOM     21  C   UNL     1       1.447  -6.909   1.199  0.00  0.00    +0.008 A 
ATOM     22  C   UNL     1       0.125  -7.276   1.498  0.00  0.00    +0.001 A 
ATOM     23  C   UNL     1      -0.931  -6.447   1.142  0.00  0.00    +0.000 A 
ATOM     24  C   UNL     1      -0.667  -5.269   0.456  0.00  0.00    +0.001 A 
ATOM     25  C   UNL     1       0.650  -4.935   0.117  0.00  0.00    +0.008 A 
ENDBRANCH   4  20
BRANCH  16  26
ATOM     26  O   UNL     1      10.661  -3.401  -1.108  0.00  0.00    -0.507 OA
ATOM     27  H   UNL     1      10.740  -4.370  -1.120  0.00  0.00    +0.292 HD
ENDBRANCH  16  26
BRANCH   1  28
ATOM     28  C   UNL     1       4.666  -0.936  -0.049  0.00  0.00    +0.133 C 
BRANCH  28  29
ATOM     29  C   UNL     1       4.686  -0.146  -1.357  0.00  0.00    +0.142 C 
BRANCH  29  30
ATOM     30  C   UNL     1       4.006   1.184  -1.185  0.00  0.00    +0.306 C 
ATOM     31  O   UNL     1       3.417   1.544  -0.179  0.00  0.00    -0.251 OA
BRANCH  30  32
ATOM     32  O   UNL     1       4.112   1.968  -2.282  0.00  0.00    -0.481 OA
ATOM     33  H   UNL     1       4.614   1.570  -3.020  0.00  0.00    +0.295 HD
ENDBRANCH  30  32
ENDBRANCH  29  30
ENDBRANCH  28  29
ENDBRANCH   1  28
TORSDOF 6
