REMARK  Name = 
REMARK  7 active torsions:
REMARK  status: ('A' for Active; 'I' for Inactive)
REMARK    1  A    between atoms: C_2  and  C_3
REMARK    2  A    between atoms: C_2  and  N_4
REMARK    3  A    between atoms: C_2  and  C_26
REMARK    4  A    between atoms: C_7  and  N_9
REMARK    5  A    between atoms: N_9  and  S_10
REMARK    6  A    between atoms: S_10  and  C_13
REMARK    7  A    between atoms: C_16  and  C_18
REMARK                            x       y       z     vdW  Elec       q    Type
REMARK                         _______ _______ _______ _____ _____    ______ ____
ROOT
ATOM      1  N   UNL     1       1.782  -3.794  -2.840  0.00  0.00    -0.175 NA
ATOM      2  H   UNL     1       1.030  -3.832  -2.156  0.00  0.00    +0.149 HD
ENDROOT
BRANCH   1   6
ATOM      3  N   UNL     1       2.596  -0.732  -1.282  0.00  0.00    -0.289 N 
ATOM      4  C   UNL     1       2.743  -2.117  -1.325  0.00  0.00    +0.235 C 
ATOM      5  O   UNL     1       2.915  -2.850  -0.365  0.00  0.00    -0.274 OA
ATOM      6  C   UNL     1       2.613  -2.575  -2.781  0.00  0.00    +0.164 C 
ATOM      7  C   UNL     1       1.951  -1.369  -3.434  0.00  0.00    +0.049 C 
ATOM      8  C   UNL     1       2.389  -0.186  -2.598  0.00  0.00    +0.110 C 
BRANCH   3   9
ATOM      9  C   UNL     1       2.198   0.002  -0.071  0.00  0.00    +0.159 C 
ATOM     10  C   UNL     1       0.757  -0.303   0.341  0.00  0.00    +0.038 C 
BRANCH   9  11
ATOM     11  C   UNL     1       3.170  -0.183   1.122  0.00  0.00    +0.236 C 
ATOM     12  N   UNL     1       4.442   0.366   1.023  0.00  0.00    -0.296 N 
ATOM     13  C   UNL     1       5.337   0.302   2.182  0.00  0.00    +0.136 C 
ATOM     14  C   UNL     1       5.601   1.714   2.723  0.00  0.00    +0.179 C 
ATOM     15  O   UNL     1       6.098   2.584   1.689  0.00  0.00    -0.377 OA
ATOM     16  C   UNL     1       5.166   2.669   0.597  0.00  0.00    +0.179 C 
ATOM     17  C   UNL     1       4.913   1.285  -0.014  0.00  0.00    +0.136 C 
ATOM     18  O   UNL     1       2.800  -0.747   2.155  0.00  0.00    -0.274 OA
ENDBRANCH   9  11
ENDBRANCH   3   9
ENDBRANCH   1   6
BRANCH   1  19
ATOM     19  S   UNL     1       1.278  -4.392  -4.333  0.00  0.00    +0.096 S 
ATOM     20  O   UNL     1       0.473  -3.368  -4.972  0.00  0.00    -0.150 OA
ATOM     21  O   UNL     1       0.740  -5.714  -4.087  0.00  0.00    -0.150 OA
BRANCH  19  22
ATOM     22  C   UNL     1       2.674  -4.595  -5.401  0.00  0.00    +0.307 A 
ATOM     23  N   UNL     1       3.487  -3.513  -5.744  0.00  0.00    -0.189 NA
ATOM     24  C   UNL     1       4.359  -4.047  -6.576  0.00  0.00    +0.165 A 
ATOM     25  N   UNL     1       4.110  -5.387  -6.682  0.00  0.00    -0.256 N 
ATOM     26  H   UNL     1       4.610  -6.075  -7.232  0.00  0.00    +0.191 HD
ATOM     27  N   UNL     1       3.057  -5.761  -5.951  0.00  0.00    -0.131 NA
BRANCH  24  28
ATOM     28  C   UNL     1       5.383  -3.340  -7.283  0.00  0.00    +0.057 A 
ATOM     29  S   UNL     1       6.424  -4.125  -8.402  0.00  0.00    -0.074 S 
ATOM     30  C   UNL     1       7.211  -2.676  -8.771  0.00  0.00    +0.079 A 
ATOM     31 CL   UNL     1       8.472  -2.666  -9.934  0.00  0.00    -0.076 Cl
ATOM     32  C   UNL     1       6.733  -1.601  -8.069  0.00  0.00    +0.028 A 
ATOM     33  C   UNL     1       5.668  -1.989  -7.200  0.00  0.00    +0.021 A 
ENDBRANCH  24  28
ENDBRANCH  19  22
ENDBRANCH   1  19
TORSDOF 6
