REMARK  Name = 
REMARK  2 active torsions:
REMARK  status: ('A' for Active; 'I' for Inactive)
REMARK    1  A    between atoms: C_2  and  O_3
REMARK    2  A    between atoms: N_5  and  C_6
REMARK                            x       y       z     vdW  Elec       q    Type
REMARK                         _______ _______ _______ _____ _____    ______ ____
ROOT
ATOM      1  C   UNL     1       1.944   0.053   0.065  0.00  0.00    +0.164 C 
ATOM      2  C   UNL     1       2.484   1.221  -0.718  0.00  0.00    +0.007 C 
ATOM      3  C   UNL     1       3.255   0.720  -1.839  0.00  0.00    +0.039 C 
ATOM      4  C   UNL     1       3.872   1.539  -2.695  0.00  0.00    +0.078 C 
ATOM      5  C   UNL     1       3.771   3.003  -2.509  0.00  0.00    +0.227 C 
ATOM      6  C   UNL     1       2.948   3.519  -1.325  0.00  0.00    +0.226 C 
ATOM      7  O   UNL     1       2.800   4.716  -1.120  0.00  0.00    -0.284 OA
ATOM      8  O   UNL     1       4.326   3.769  -3.285  0.00  0.00    -0.284 OA
ATOM      9  N   UNL     1       3.223  -0.655  -1.822  0.00  0.00    -0.330 N 
ATOM     10  C   UNL     1       3.904  -1.559  -2.723  0.00  0.00    +0.129 C 
ATOM     11  C   UNL     1       2.320   2.518  -0.438  0.00  0.00    +0.062 C 
ATOM     12  C   UNL     1       2.474  -1.195  -0.688  0.00  0.00    +0.141 C 
ENDROOT
BRANCH   1  13
ATOM     13  O   UNL     1       2.434   0.132   1.400  0.00  0.00    -0.386 OA
ATOM     14  H   UNL     1       2.165  -0.681   1.860  0.00  0.00    +0.210 HD
ENDBRANCH   1  13
TORSDOF 1
