REMARK  Name = 
REMARK  6 active torsions:
REMARK  status: ('A' for Active; 'I' for Inactive)
REMARK    1  A    between atoms: C_2  and  C_3
REMARK    2  A    between atoms: C_2  and  N_4
REMARK    3  A    between atoms: C_2  and  C_25
REMARK    4  A    between atoms: C_7  and  N_9
REMARK    5  A    between atoms: N_9  and  S_10
REMARK    6  A    between atoms: S_10  and  C_13
REMARK                            x       y       z     vdW  Elec       q    Type
REMARK                         _______ _______ _______ _____ _____    ______ ____
ROOT
ATOM      1  N   UNL     1       2.505  -0.632   1.422  0.00  0.00    -0.289 N 
ATOM      2  C   UNL     1       2.246  -1.942   1.790  0.00  0.00    +0.235 C 
ATOM      3  O   UNL     1       1.466  -2.698   1.230  0.00  0.00    -0.274 OA
ATOM      4  C   UNL     1       3.141  -2.288   2.985  0.00  0.00    +0.164 C 
ATOM      5  C   UNL     1       4.149  -1.140   2.973  0.00  0.00    +0.049 C 
ATOM      6  C   UNL     1       3.406   0.016   2.343  0.00  0.00    +0.110 C 
ENDROOT
BRANCH   1   7
ATOM      7  C   UNL     1       2.087  -0.048   0.141  0.00  0.00    +0.159 C 
ATOM      8  C   UNL     1       1.304   1.240   0.373  0.00  0.00    +0.038 C 
BRANCH   7   9
ATOM      9  C   UNL     1       3.304   0.167  -0.816  0.00  0.00    +0.236 C 
ATOM     10  N   UNL     1       3.051   0.599  -2.110  0.00  0.00    -0.296 N 
ATOM     11  C   UNL     1       1.792   0.413  -2.839  0.00  0.00    +0.136 C 
ATOM     12  C   UNL     1       2.012  -0.505  -4.049  0.00  0.00    +0.179 C 
ATOM     13  O   UNL     1       3.055   0.003  -4.896  0.00  0.00    -0.377 OA
ATOM     14  C   UNL     1       4.298   0.084  -4.178  0.00  0.00    +0.179 C 
ATOM     15  C   UNL     1       4.166   1.014  -2.969  0.00  0.00    +0.136 C 
ATOM     16  O   UNL     1       4.461  -0.004  -0.421  0.00  0.00    -0.274 OA
ENDBRANCH   7   9
ENDBRANCH   1   7
BRANCH   4  17
ATOM     17  N   UNL     1       3.765  -3.600   2.728  0.00  0.00    -0.177 NA
ATOM     18  H   UNL     1       4.043  -3.734   1.753  0.00  0.00    +0.149 HD
BRANCH  17  19
ATOM     19  S   UNL     1       4.930  -4.196   3.751  0.00  0.00    +0.074 S 
ATOM     20  O   UNL     1       5.876  -3.155   4.073  0.00  0.00    -0.152 OA
ATOM     21  O   UNL     1       5.349  -5.471   3.215  0.00  0.00    -0.152 OA
BRANCH  19  22
ATOM     22  C   UNL     1       4.182  -4.605   5.294  0.00  0.00    +0.173 A 
ATOM     23  N   UNL     1       3.962  -5.927   5.610  0.00  0.00    -0.339 N 
ATOM     24  H   UNL     1       4.157  -6.689   4.972  0.00  0.00    +0.167 HD
ATOM     25  C   UNL     1       3.672  -6.061   6.947  0.00  0.00    +0.048 A 
ATOM     26  C   UNL     1       3.543  -7.214   7.729  0.00  0.00    +0.027 A 
ATOM     27  C   UNL     1       3.334  -7.038   9.100  0.00  0.00    +0.022 A 
ATOM     28  C   UNL     1       3.226  -5.761   9.647  0.00  0.00    +0.042 A 
ATOM     29  C   UNL     1       3.315  -4.618   8.847  0.00  0.00    +0.030 A 
ATOM     30 CL   UNL     1       3.018  -5.584  11.349  0.00  0.00    -0.084 Cl
ATOM     31  C   UNL     1       3.562  -4.773   7.470  0.00  0.00    +0.003 A 
ATOM     32  C   UNL     1       3.811  -3.866   6.404  0.00  0.00    +0.057 A 
ENDBRANCH  19  22
ENDBRANCH  17  19
ENDBRANCH   4  17
TORSDOF 5
