REMARK  Name = 
REMARK  7 active torsions:
REMARK  status: ('A' for Active; 'I' for Inactive)
REMARK    1  A    between atoms: C_1  and  C_2
REMARK    2  A    between atoms: C_3  and  N_4
REMARK    3  A    between atoms: N_4  and  C_5
REMARK    4  A    between atoms: C_7  and  C_11
REMARK    5  A    between atoms: C_15  and  C_18
REMARK    6  A    between atoms: N_20  and  C_21
REMARK    7  A    between atoms: C_25  and  C_27
REMARK                            x       y       z     vdW  Elec       q    Type
REMARK                         _______ _______ _______ _____ _____    ______ ____
ROOT
ATOM      1  C   UNL     1       0.968  -0.043  -0.040  0.00  0.00    +0.045 C 
ATOM      2  C   UNL     1       2.472  -0.046  -0.115  0.00  0.00    -0.029 A 
ATOM      3  C   UNL     1       3.108  -1.295  -0.206  0.00  0.00    +0.006 A 
ATOM      4  C   UNL     1       4.495  -1.382  -0.282  0.00  0.00    +0.013 A 
ATOM      5  C   UNL     1       5.272  -0.222  -0.260  0.00  0.00    +0.039 A 
ATOM      6  C   UNL     1       4.655   1.025  -0.112  0.00  0.00    +0.036 A 
ATOM      7  C   UNL     1       3.251   1.130  -0.053  0.00  0.00    +0.035 A 
ENDROOT
BRANCH   5   8
ATOM      8  C   UNL     1       6.746  -0.376  -0.400  0.00  0.00    +0.248 C 
ATOM      9  N   UNL     1       7.389   0.596  -1.152  0.00  0.00    -0.281 N 
ATOM     10  H   UNL     1       6.811   1.291  -1.605  0.00  0.00    +0.155 HD
ATOM     11  O   UNL     1       7.255  -1.375   0.097  0.00  0.00    -0.270 OA
BRANCH   9  12
ATOM     12  C   UNL     1       8.766   0.621  -1.480  0.00  0.00    +0.034 A 
ATOM     13  C   UNL     1       9.204   1.559  -2.427  0.00  0.00    +0.035 A 
ATOM     14  C   UNL     1      10.559   1.626  -2.813  0.00  0.00    +0.057 A 
ATOM     15  C   UNL     1      11.476   0.738  -2.237  0.00  0.00    +0.012 A 
ATOM     16  C   UNL     1      11.051  -0.186  -1.288  0.00  0.00    +0.002 A 
ATOM     17  C   UNL     1       9.707  -0.240  -0.911  0.00  0.00    +0.023 A 
BRANCH  14  18
ATOM     18  C   UNL     1      11.013   2.640  -3.834  0.00  0.00    +0.417 C 
ATOM     19  F   UNL     1      10.705   3.916  -3.471  0.00  0.00    -0.166 F 
ATOM     20  F   UNL     1      10.435   2.448  -5.052  0.00  0.00    -0.166 F 
ATOM     21  F   UNL     1      12.358   2.631  -4.054  0.00  0.00    -0.166 F 
ENDBRANCH  14  18
ENDBRANCH   9  12
ENDBRANCH   5   8
BRANCH   7  22
ATOM     22  N   UNL     1       2.614   2.393   0.012  0.00  0.00    -0.313 N 
ATOM     23  H   UNL     1       1.990   2.518  -0.783  0.00  0.00    +0.152 HD
BRANCH  22  24
ATOM     24  C   UNL     1       3.125   3.603   0.516  0.00  0.00    +0.050 A 
ATOM     25  C   UNL     1       2.965   4.808  -0.170  0.00  0.00    +0.134 A 
ATOM     26  N   UNL     1       3.466   5.996   0.239  0.00  0.00    -0.261 NA
ATOM     27  C   UNL     1       4.143   5.994   1.414  0.00  0.00    +0.123 A 
ATOM     28  C   UNL     1       4.334   4.861   2.198  0.00  0.00    +0.056 A 
ATOM     29  C   UNL     1       3.825   3.649   1.725  0.00  0.00    +0.039 A 
BRANCH  28  30
ATOM     30  C   UNL     1       5.060   5.007   3.480  0.00  0.00    +0.243 C 
ATOM     31  O   UNL     1       5.569   6.074   3.802  0.00  0.00    -0.270 OA
ATOM     32  N   UNL     1       5.136   3.928   4.319  0.00  0.00    -0.325 N 
ATOM     33  H   UNL     1       5.597   4.076   5.207  0.00  0.00    +0.145 HD
ATOM     34  H   UNL     1       4.678   3.041   4.176  0.00  0.00    +0.145 HD
ENDBRANCH  28  30
ENDBRANCH  22  24
ENDBRANCH   7  22
TORSDOF 6
