REMARK  Name = 
REMARK  5 active torsions:
REMARK  status: ('A' for Active; 'I' for Inactive)
REMARK    1  A    between atoms: O_1  and  C_2
REMARK    2  A    between atoms: C_2  and  CA_4
REMARK    3  A    between atoms: CA_4  and  N_5
REMARK    4  A    between atoms: C_6  and  CA_8
REMARK    5  A    between atoms: C_9  and  O_10
REMARK                            x       y       z     vdW  Elec       q    Type
REMARK                         _______ _______ _______ _____ _____    ______ ____
ROOT
ATOM      1  CA  UNL     1       6.993   1.824  -0.369  0.00  0.00    +0.167 A 
ATOM      2  N   UNL     1       7.777   2.930  -0.273  0.00  0.00    -0.246 NA
ATOM      3  C   UNL     1       9.112   2.702  -0.219  0.00  0.00    +0.121 A 
ATOM      4  C   UNL     1       9.736   1.438  -0.249  0.00  0.00    +0.017 A 
ATOM      5  C   UNL     1       8.870   0.316  -0.330  0.00  0.00    +0.028 A 
ATOM      6  C   UNL     1       9.426  -0.979  -0.350  0.00  0.00    +0.012 A 
ATOM      7  C   UNL     1      10.804  -1.183  -0.321  0.00  0.00    +0.002 A 
ATOM      8  C   UNL     1      11.661  -0.092  -0.258  0.00  0.00    +0.015 A 
ATOM      9  C   UNL     1      11.139   1.205  -0.213  0.00  0.00    +0.023 A 
ATOM     10  I   UNL     1      12.557   2.762  -0.095  0.00  0.00    -0.043 I 
ATOM     11  C   UNL     1       7.480   0.519  -0.394  0.00  0.00    +0.155 A 
ENDROOT
BRANCH   1  14
ATOM     12  N   UNL     1       5.166   3.422  -0.350  0.00  0.00    -0.299 N 
ATOM     13  H   UNL     1       5.923   4.101  -0.430  0.00  0.00    +0.150 HD
ATOM     14  C   UNL     1       5.523   2.091  -0.414  0.00  0.00    +0.266 C 
ATOM     15  O   UNL     1       4.716   1.170  -0.466  0.00  0.00    -0.268 OA
BRANCH  12  16
ATOM     16  CA  UNL     1       3.775   3.859  -0.437  0.00  0.00    +0.225 C 
BRANCH  16  17
ATOM     17  C   UNL     1       3.144   4.034   0.943  0.00  0.00    +0.322 C 
ATOM     18  OXT UNL     1       1.988   4.388   1.124  0.00  0.00    -0.249 OA
BRANCH  17  19
ATOM     19  O   UNL     1       4.000   3.802   1.968  0.00  0.00    -0.480 OA
ATOM     20  H   UNL     1       4.860   3.507   1.603  0.00  0.00    +0.295 HD
ENDBRANCH  17  19
ENDBRANCH  16  17
ENDBRANCH  12  16
ENDBRANCH   1  14
BRANCH  11  21
ATOM     21  O   UNL     1       6.657  -0.579  -0.486  0.00  0.00    -0.504 OA
ATOM     22  H   UNL     1       5.721  -0.280  -0.536  0.00  0.00    +0.292 HD
ENDBRANCH  11  21
TORSDOF 5
