REMARK  Name = 
REMARK  4 active torsions:
REMARK  status: ('A' for Active; 'I' for Inactive)
REMARK    1  A    between atoms: C_2  and  C_14
REMARK    2  A    between atoms: N_4  and  C_5
REMARK    3  A    between atoms: N_16  and  C_17
REMARK    4  A    between atoms: C_18  and  C_19
REMARK                            x       y       z     vdW  Elec       q    Type
REMARK                         _______ _______ _______ _____ _____    ______ ____
ROOT
ATOM      1  C   UNL     1       1.926   0.117   0.046  0.00  0.00    +0.101 C 
ATOM      2  C   UNL     1       2.256  -1.183   0.771  0.00  0.00    +0.110 C 
ATOM      3  C   UNL     1       3.436  -0.841   1.643  0.00  0.00    +0.217 C 
ATOM      4  O   UNL     1       3.922  -1.595   2.466  0.00  0.00    -0.276 OA
ATOM      5  N   UNL     1       3.889   0.419   1.256  0.00  0.00    -0.298 N 
ATOM      6  C   UNL     1       2.770   1.173   0.739  0.00  0.00    +0.121 C 
ENDROOT
BRANCH   5   7
ATOM      7  C   UNL     1       5.181   1.018   1.642  0.00  0.00    +0.076 C 
ATOM      8  C   UNL     1       5.650   2.082   0.628  0.00  0.00    +0.022 C 
ATOM      9  C   UNL     1       5.809   1.482  -0.773  0.00  0.00    +0.002 C 
ATOM     10  C   UNL     1       6.676   0.223  -0.815  0.00  0.00    +0.000 C 
ATOM     11  C   UNL     1       6.442  -0.752   0.338  0.00  0.00    +0.002 C 
ATOM     12  C   UNL     1       6.307  -0.036   1.686  0.00  0.00    +0.022 C 
ENDBRANCH   5   7
BRANCH   1  13
ATOM     13  C   UNL     1       2.143   0.254  -1.462  0.00  0.00    +0.222 C 
ATOM     14  N   UNL     1       3.111  -0.517  -2.078  0.00  0.00    -0.285 N 
ATOM     15  H   UNL     1       3.385  -1.393  -1.657  0.00  0.00    +0.155 HD
ATOM     16  O   UNL     1       1.498   1.114  -2.055  0.00  0.00    -0.275 OA
BRANCH  14  17
ATOM     17  C   UNL     1       3.566  -0.276  -3.406  0.00  0.00    +0.038 A 
ATOM     18  C   UNL     1       3.804   1.038  -3.843  0.00  0.00    +0.043 A 
ATOM     19  C   UNL     1       4.359   1.286  -5.101  0.00  0.00    +0.043 A 
ATOM     20 CL   UNL     1       4.698   2.902  -5.586  0.00  0.00    -0.083 Cl
ATOM     21  C   UNL     1       4.662   0.235  -5.957  0.00  0.00    +0.020 A 
ATOM     22  C   UNL     1       4.402  -1.072  -5.548  0.00  0.00    +0.006 A 
ATOM     23  C   UNL     1       3.856  -1.344  -4.275  0.00  0.00    -0.029 A 
ATOM     24  C   UNL     1       3.501  -2.775  -3.981  0.00  0.00    +0.045 C 
ENDBRANCH  14  17
ENDBRANCH   1  13
TORSDOF 3
