REMARK  Name = 
REMARK  5 active torsions:
REMARK  status: ('A' for Active; 'I' for Inactive)
REMARK    1  A    between atoms: C_2  and  N_20
REMARK    2  A    between atoms: N_5  and  C_6
REMARK    3  A    between atoms: C_6  and  C_7
REMARK    4  A    between atoms: N_20  and  S_21
REMARK    5  A    between atoms: S_21  and  C_24
REMARK                            x       y       z     vdW  Elec       q    Type
REMARK                         _______ _______ _______ _____ _____    ______ ____
ROOT
ATOM      1  C   UNL     1       2.235   0.210  -0.109  0.00  0.00    +0.164 C 
ATOM      2  C   UNL     1       2.871  -1.073   0.401  0.00  0.00    +0.235 C 
ATOM      3  O   UNL     1       2.527  -2.210   0.128  0.00  0.00    -0.274 OA
ATOM      4  N   UNL     1       3.906  -0.742   1.252  0.00  0.00    -0.296 N 
ATOM      5  C   UNL     1       4.203   0.664   1.221  0.00  0.00    +0.110 C 
ATOM      6  C   UNL     1       2.891   1.282   0.778  0.00  0.00    +0.049 C 
ENDROOT
BRANCH   1   7
ATOM      7  N   UNL     1       0.769   0.301   0.040  0.00  0.00    -0.178 NA
ATOM      8  H   UNL     1       0.439   0.354   1.005  0.00  0.00    +0.149 HD
BRANCH   7   9
ATOM      9  S   UNL     1      -0.184  -0.800  -0.826  0.00  0.00    +0.065 S 
ATOM     10  O   UNL     1       0.519  -1.178  -2.031  0.00  0.00    -0.153 OA
ATOM     11  O   UNL     1      -1.517  -0.241  -0.866  0.00  0.00    -0.153 OA
BRANCH   9  12
ATOM     12  C   UNL     1      -0.359  -2.279   0.145  0.00  0.00    +0.145 A 
ATOM     13  S   UNL     1      -1.015  -2.064   1.710  0.00  0.00    -0.067 S 
ATOM     14  C   UNL     1      -0.819  -3.722   2.105  0.00  0.00    +0.039 A 
ATOM     15  C   UNL     1      -1.120  -4.379   3.307  0.00  0.00    +0.019 A 
ATOM     16  C   UNL     1      -0.820  -5.734   3.384  0.00  0.00    +0.021 A 
ATOM     17  C   UNL     1      -0.270  -6.360   2.279  0.00  0.00    +0.111 A 
ATOM     18  N   UNL     1       0.006  -5.763   1.104  0.00  0.00    -0.254 NA
ATOM     19  C   UNL     1      -0.273  -4.433   1.036  0.00  0.00    +0.080 A 
ATOM     20  C   UNL     1      -0.045  -3.601  -0.096  0.00  0.00    +0.064 A 
ENDBRANCH   9  12
ENDBRANCH   7   9
ENDBRANCH   1   7
BRANCH   4  21
ATOM     21  C   UNL     1       4.691  -1.716   1.992  0.00  0.00    +0.143 C 
BRANCH  21  22
ATOM     22  C   UNL     1       4.364  -1.720   3.470  0.00  0.00    -0.029 A 
ATOM     23  C   UNL     1       5.386  -1.879   4.410  0.00  0.00    +0.006 A 
ATOM     24  C   UNL     1       5.113  -1.786   5.778  0.00  0.00    +0.009 A 
ATOM     25  C   UNL     1       3.809  -1.552   6.239  0.00  0.00    -0.013 A 
ATOM     26  C   UNL     1       3.540  -1.356   7.597  0.00  0.00    +0.028 A 
ATOM     27  C   UNL     1       2.232  -1.139   7.991  0.00  0.00    +0.113 A 
ATOM     28  N   UNL     1       1.181  -1.155   7.148  0.00  0.00    -0.240 NA
ATOM     29  C   UNL     1       1.445  -1.352   5.843  0.00  0.00    +0.124 A 
ATOM     30  N   UNL     1       0.313  -1.398   5.021  0.00  0.00    -0.343 N 
ATOM     31  H   UNL     1       0.307  -2.271   4.504  0.00  0.00    +0.144 HD
ATOM     32  H   UNL     1      -0.486  -1.333   5.649  0.00  0.00    +0.144 HD
ATOM     33  C   UNL     1       2.746  -1.506   5.317  0.00  0.00    +0.022 A 
ATOM     34  C   UNL     1       3.045  -1.598   3.936  0.00  0.00    +0.017 A 
ENDBRANCH  21  22
ENDBRANCH   4  21
TORSDOF 5
