REMARK  Name = 
REMARK  2 active torsions:
REMARK  status: ('A' for Active; 'I' for Inactive)
REMARK    1  A    between atoms: C_4  and  C_6
REMARK    2  A    between atoms: C_8  and  C_11
REMARK                            x       y       z     vdW  Elec       q    Type
REMARK                         _______ _______ _______ _____ _____    ______ ____
ROOT
ATOM      1  C   UNL     1       2.125  -1.488   0.042  0.00  0.00    +0.188 A 
ATOM      2  O   UNL     1       2.165  -2.848   0.065  0.00  0.00    -0.352 OA
ATOM      3  N   UNL     1       3.479  -3.278   0.052  0.00  0.00    -0.078 NA
ATOM      4  C   UNL     1       4.243  -2.171   0.018  0.00  0.00    +0.114 A 
ATOM      5  C   UNL     1       3.416  -1.018   0.026  0.00  0.00    +0.082 A 
ENDROOT
BRANCH   1   9
ATOM      6  N   UNL     1      -0.357   1.049  -0.014  0.00  0.00    -0.284 N 
ATOM      7  H   UNL     1      -0.577   2.039  -0.034  0.00  0.00    +0.188 HD
ATOM      8  N   UNL     1       0.936   0.685   0.004  0.00  0.00    -0.171 NA
ATOM      9  C   UNL     1       0.895  -0.655   0.026  0.00  0.00    +0.130 A 
ATOM     10  C   UNL     1      -0.433  -1.137   0.022  0.00  0.00    +0.052 A 
ATOM     11  C   UNL     1      -1.218  -0.008  -0.005  0.00  0.00    +0.105 A 
ENDBRANCH   1   9
BRANCH   4  12
ATOM     12  C   UNL     1       5.708  -2.229  -0.038  0.00  0.00    +0.004 A 
ATOM     13  C   UNL     1       6.382  -3.459  -0.067  0.00  0.00    +0.010 A 
ATOM     14  C   UNL     1       7.777  -3.510  -0.157  0.00  0.00    +0.001 A 
ATOM     15  C   UNL     1       8.518  -2.332  -0.215  0.00  0.00    +0.000 A 
ATOM     16  C   UNL     1       7.867  -1.102  -0.177  0.00  0.00    +0.001 A 
ATOM     17  C   UNL     1       6.473  -1.051  -0.087  0.00  0.00    +0.010 A 
ENDBRANCH   4  12
TORSDOF 2
