REMARK  Name = 
REMARK  6 active torsions:
REMARK  status: ('A' for Active; 'I' for Inactive)
REMARK    1  A    between atoms: N_5  and  C_6
REMARK    2  A    between atoms: C_9  and  S_12
REMARK    3  A    between atoms: S_12  and  N_13
REMARK    4  A    between atoms: N_17  and  C_18
REMARK    5  A    between atoms: C_18  and  N_20
REMARK    6  A    between atoms: N_20  and  C_21
REMARK                            x       y       z     vdW  Elec       q    Type
REMARK                         _______ _______ _______ _____ _____    ______ ____
ROOT
ATOM      1  N   UNL     1       1.480   0.203   0.080  0.00  0.00    -0.327 N 
ATOM      2  H   UNL     1       0.774  -0.451  -0.247  0.00  0.00    +0.145 HD
ATOM      3  H   UNL     1       1.212   1.180  -0.001  0.00  0.00    +0.145 HD
ATOM      4  C   UNL     1       2.795  -0.070   0.016  0.00  0.00    +0.219 A 
ATOM      5  N   UNL     1       3.361  -1.331  -0.151  0.00  0.00    -0.177 N 
ATOM      6  N   UNL     1       4.690  -1.180  -0.450  0.00  0.00    -0.126 NA
ATOM      7  C   UNL     1       4.891   0.111  -0.163  0.00  0.00    +0.241 A 
ATOM      8  N   UNL     1       6.092   0.721  -0.139  0.00  0.00    -0.282 N 
ATOM      9  H   UNL     1       6.881   0.150  -0.415  0.00  0.00    +0.155 HD
ATOM     10  N   UNL     1       3.745   0.823   0.043  0.00  0.00    -0.180 NA
ENDROOT
BRANCH   8  11
ATOM     11  C   UNL     1       6.435   2.053   0.184  0.00  0.00    +0.034 A 
ATOM     12  C   UNL     1       7.571   2.625  -0.410  0.00  0.00    +0.025 A 
ATOM     13  C   UNL     1       7.856   3.989  -0.267  0.00  0.00    +0.030 A 
ATOM     14  C   UNL     1       7.009   4.796   0.495  0.00  0.00    +0.105 A 
ATOM     15  C   UNL     1       5.900   4.244   1.132  0.00  0.00    +0.030 A 
ATOM     16  C   UNL     1       5.621   2.880   0.974  0.00  0.00    +0.025 A 
BRANCH  14  17
ATOM     17  S   UNL     1       7.263   6.543   0.557  0.00  0.00    +0.056 S 
ATOM     18  O   UNL     1       6.015   7.204   0.849  0.00  0.00    -0.153 OA
ATOM     19  O   UNL     1       8.107   6.939  -0.553  0.00  0.00    -0.153 OA
BRANCH  17  20
ATOM     20  N   UNL     1       8.212   6.719   1.930  0.00  0.00    -0.204 NA
ATOM     21  H   UNL     1       7.705   7.270   2.624  0.00  0.00    +0.144 HD
ATOM     22  H   UNL     1       9.117   7.117   1.672  0.00  0.00    +0.144 HD
ENDBRANCH  17  20
ENDBRANCH  14  17
ENDBRANCH   8  11
BRANCH   5  23
ATOM     23  C   UNL     1       2.818  -2.621   0.065  0.00  0.00    +0.174 C 
ATOM     24  S   UNL     1       1.458  -2.994   0.988  0.00  0.00    -0.014 S 
BRANCH  23  25
ATOM     25  N   UNL     1       3.509  -3.559  -0.702  0.00  0.00    -0.289 N 
ATOM     26  H   UNL     1       3.894  -3.254  -1.593  0.00  0.00    +0.154 HD
BRANCH  25  27
ATOM     27  C   UNL     1       3.873  -4.873  -0.310  0.00  0.00    +0.104 A 
ATOM     28  C   UNL     1       4.207  -5.205   1.006  0.00  0.00    +0.147 A 
ATOM     29  F   UNL     1       4.183  -4.277   1.975  0.00  0.00    -0.203 F 
ATOM     30  C   UNL     1       4.700  -6.469   1.332  0.00  0.00    +0.040 A 
ATOM     31  C   UNL     1       4.855  -7.435   0.339  0.00  0.00    +0.006 A 
ATOM     32  C   UNL     1       4.516  -7.129  -0.980  0.00  0.00    +0.040 A 
ATOM     33  C   UNL     1       4.047  -5.852  -1.293  0.00  0.00    +0.147 A 
ATOM     34  F   UNL     1       3.735  -5.576  -2.571  0.00  0.00    -0.203 F 
ENDBRANCH  25  27
ENDBRANCH  23  25
ENDBRANCH   5  23
TORSDOF 6
