REMARK  Name = 
REMARK  7 active torsions:
REMARK  status: ('A' for Active; 'I' for Inactive)
REMARK    1  A    between atoms: S_1  and  C_2
REMARK    2  A    between atoms: C_2  and  C_3
REMARK    3  A    between atoms: C_3  and  C_4
REMARK    4  A    between atoms: C_4  and  C_5
REMARK    5  A    between atoms: N_7  and  C_8
REMARK    6  A    between atoms: N_11  and  C_12
REMARK    7  A    between atoms: C_12  and  C_13
REMARK                            x       y       z     vdW  Elec       q    Type
REMARK                         _______ _______ _______ _____ _____    ______ ____
ROOT
ATOM      1  C   UNL     1       7.126   0.137   4.491  0.00  0.00    +0.075 C 
ATOM      2  C   UNL     1       8.173   1.260   4.545  0.00  0.00    +0.037 C 
ATOM      3  C   UNL     1       9.470   0.883   3.826  0.00  0.00    +0.086 C 
ATOM      4  N   UNL     1      10.033  -0.405   4.254  0.00  0.00    -0.298 NA
ATOM      5  C   UNL     1       9.038  -1.474   4.091  0.00  0.00    +0.086 C 
ATOM      6  C   UNL     1       7.734  -1.219   4.846  0.00  0.00    +0.037 C 
ENDROOT
BRANCH   1   8
ATOM      7  C   UNL     1       5.456   0.953   2.860  0.00  0.00    +0.213 C 
ATOM      8  N   UNL     1       6.470   0.081   3.189  0.00  0.00    -0.312 N 
ATOM      9  H   UNL     1       6.934  -0.417   2.438  0.00  0.00    +0.149 HD
ATOM     10  O   UNL     1       4.956   1.741   3.657  0.00  0.00    -0.276 OA
BRANCH   7  11
ATOM     11  C   UNL     1       4.990   0.820   1.425  0.00  0.00    +0.096 C 
BRANCH  11  12
ATOM     12  C   UNL     1       4.454   2.145   0.881  0.00  0.00    +0.020 C 
BRANCH  12  13
ATOM     13  C   UNL     1       5.471   3.290   0.878  0.00  0.00    +0.066 C 
BRANCH  13  14
ATOM     14  S   UNL     1       6.909   2.949  -0.180  0.00  0.00    -0.178 S 
ATOM     15  H   UNL     1       7.586   4.067   0.121  0.00  0.00    +0.102 HD
ENDBRANCH  13  14
ENDBRANCH  12  13
ENDBRANCH  11  12
ENDBRANCH   7  11
ENDBRANCH   1   8
BRANCH   4  16
ATOM     16  C   UNL     1      10.609  -0.333   5.611  0.00  0.00    +0.119 C 
BRANCH  16  17
ATOM     17  C   UNL     1      11.295  -1.618   6.025  0.00  0.00    -0.033 A 
ATOM     18  C   UNL     1      10.798  -2.380   7.093  0.00  0.00    +0.005 A 
ATOM     19  C   UNL     1      11.370  -3.615   7.404  0.00  0.00    +0.000 A 
ATOM     20  C   UNL     1      12.445  -4.093   6.658  0.00  0.00    +0.000 A 
ATOM     21  C   UNL     1      12.962  -3.332   5.611  0.00  0.00    +0.000 A 
ATOM     22  C   UNL     1      12.393  -2.099   5.298  0.00  0.00    +0.005 A 
ENDBRANCH  16  17
ENDBRANCH   4  16
TORSDOF 7
