REMARK  Name = 
REMARK  1 active torsions:
REMARK  status: ('A' for Active; 'I' for Inactive)
REMARK    1  A    between atoms: C_1  and  C_2
REMARK                            x       y       z     vdW  Elec       q    Type
REMARK                         _______ _______ _______ _____ _____    ______ ____
ROOT
ATOM      1  C   UNL     1       1.051   0.065  -0.097  0.00  0.00    +0.086 C 
ATOM      2  C   UNL     1       2.551   0.099  -0.092  0.00  0.00    +0.107 A 
ATOM      3  N   UNL     1       3.167  -1.115  -0.044  0.00  0.00    -0.311 N 
ATOM      4  H   UNL     1       2.640  -1.973   0.005  0.00  0.00    +0.170 HD
ATOM      5  C   UNL     1       4.522  -1.235  -0.007  0.00  0.00    +0.256 A 
ATOM      6  O   UNL     1       5.070  -2.328   0.093  0.00  0.00    -0.267 OA
ATOM      7  C   UNL     1       5.285   0.034  -0.080  0.00  0.00    +0.048 A 
ATOM      8  C   UNL     1       6.774  -0.122  -0.093  0.00  0.00    +0.111 C 
ATOM      9  S   UNL     1       7.663   1.363  -0.640  0.00  0.00    -0.155 S 
ATOM     10  C   UNL     1       6.679   2.584   0.264  0.00  0.00    +0.075 C 
ATOM     11  C   UNL     1       5.221   2.539  -0.178  0.00  0.00    +0.066 C 
ATOM     12  C   UNL     1       4.569   1.173  -0.130  0.00  0.00    +0.053 A 
ATOM     13  N   UNL     1       3.192   1.219  -0.129  0.00  0.00    -0.239 NA
ENDROOT
TORSDOF 0
