REMARK  Name = 
REMARK  6 active torsions:
REMARK  status: ('A' for Active; 'I' for Inactive)
REMARK    1  A    between atoms: C_2  and  O_3
REMARK    2  A    between atoms: C_15  and  C_16
REMARK    3  A    between atoms: C_17  and  C_18
REMARK    4  A    between atoms: C_18  and  C_19
REMARK    5  A    between atoms: C_20  and  O_21
REMARK    6  A    between atoms: C_27  and  C_28
REMARK                            x       y       z     vdW  Elec       q    Type
REMARK                         _______ _______ _______ _____ _____    ______ ____
ROOT
ATOM      1  C   UNL     1      -0.000  -0.000   0.000  0.00  0.00    +0.121 C 
ATOM      2  C   UNL     1      -0.000  -0.000   0.000  0.00  0.00    -0.003 C 
ATOM      3  C   UNL     1      -0.000  -0.000   0.000  0.00  0.00    +0.014 C 
ATOM      4  C   UNL     1      -0.000  -0.000   0.000  0.00  0.00    +0.001 C 
ATOM      5  C   UNL     1      -0.000  -0.000  -0.000  0.00  0.00    +0.000 C 
ATOM      6  C   UNL     1      -0.000  -0.000   0.000  0.00  0.00    +0.023 C 
ATOM      7  C   UNL     1      -0.000  -0.000   0.000  0.00  0.00    +0.009 C 
ATOM      8  C   UNL     1      -0.000  -0.000   0.000  0.00  0.00    -0.040 A 
ATOM      9  C   UNL     1      -0.000  -0.000   0.000  0.00  0.00    +0.015 A 
ATOM     10  C   UNL     1      -0.000  -0.000  -0.000  0.00  0.00    +0.016 A 
ATOM     11  C   UNL     1      -0.000  -0.000   0.000  0.00  0.00    +0.124 A 
ATOM     12  C   UNL     1      -0.000  -0.000   0.000  0.00  0.00    +0.050 A 
ATOM     13  C   UNL     1      -0.000  -0.000   0.000  0.00  0.00    -0.040 A 
ATOM     14  C   UNL     1      -0.000  -0.000   0.000  0.00  0.00    +0.036 C 
ATOM     15  C   UNL     1      -0.000  -0.000   0.000  0.00  0.00    +0.009 C 
ATOM     16  C   UNL     1      -0.000  -0.000   0.000  0.00  0.00    +0.007 C 
ATOM     17  C   UNL     1      -0.000  -0.000   0.000  0.00  0.00    +0.010 C 
ATOM     18  C   UNL     1      -0.000  -0.000   0.000  0.00  0.00    +0.032 C 
ENDROOT
BRANCH   1  19
ATOM     19  O   UNL     1      -0.000  -0.000  -0.000  0.00  0.00    -0.391 OA
ATOM     20  H   UNL     1       0.000   0.000   0.000  0.00  0.00    +0.210 HD
ENDBRANCH   1  19
BRANCH  10  21
ATOM     21  C   UNL     1      -0.000  -0.000   0.000  0.00  0.00    +0.007 C 
ATOM     22  C   UNL     1      -0.000  -0.000   0.000  0.00  0.00    -0.026 C 
BRANCH  22  23
ATOM     23  C   UNL     1      -0.000  -0.000   0.000  0.00  0.00    +0.024 C 
ATOM     24  C   UNL     1      -0.000  -0.000   0.000  0.00  0.00    +0.008 C 
ENDBRANCH  22  23
ENDBRANCH  10  21
BRANCH  11  25
ATOM     25  O   UNL     1      -0.000  -0.000   0.000  0.00  0.00    -0.506 OA
ATOM     26  H   UNL     1       0.000   0.000   0.000  0.00  0.00    +0.292 HD
ENDBRANCH  11  25
TORSDOF 4
