REMARK  Name = 
REMARK  2 active torsions:
REMARK  status: ('A' for Active; 'I' for Inactive)
REMARK    1  A    between atoms: C_10  and  C_12
REMARK    2  A    between atoms: C_15  and  C_18
REMARK                            x       y       z     vdW  Elec       q    Type
REMARK                         _______ _______ _______ _____ _____    ______ ____
ROOT
ATOM      1  N   UNL     1       1.149   0.139   0.006  0.00  0.00    -0.246 N 
ATOM      2  H   UNL     1       0.557  -0.681  -0.025  0.00  0.00    +0.288 HD
ATOM      3  H   UNL     1       0.721   1.054  -0.049  0.00  0.00    +0.288 HD
ATOM      4  C   UNL     1       2.509   0.071   0.033  0.00  0.00    +0.318 C 
ATOM      5  C   UNL     1       3.199  -1.237   0.110  0.00  0.00    +0.124 A 
ATOM      6  C   UNL     1       4.548  -1.203   0.473  0.00  0.00    +0.084 A 
ATOM      7  C   UNL     1       5.248  -2.411   0.554  0.00  0.00    +0.145 A 
ATOM      8  C   UNL     1       4.648  -3.622   0.221  0.00  0.00    +0.043 A 
ATOM      9  C   UNL     1       3.305  -3.640  -0.156  0.00  0.00    +0.042 A 
ATOM     10  F   UNL     1       6.545  -2.399   0.901  0.00  0.00    -0.204 F 
ATOM     11  N   UNL     1       5.157   0.019   0.815  0.00  0.00    -0.297 N 
ATOM     12  H   UNL     1       6.170  -0.061   0.842  0.00  0.00    +0.150 HD
ATOM     13  C   UNL     1       4.624   1.135   0.030  0.00  0.00    +0.220 C 
ATOM     14  C   UNL     1       5.154   1.105  -1.420  0.00  0.00    +0.097 C 
ATOM     15  C   UNL     1       6.662   1.317  -1.480  0.00  0.00    +0.114 C 
ATOM     16  N   UNL     1       7.063   2.547  -0.795  0.00  0.00    -0.297 N 
ATOM     17  C   UNL     1       7.956   3.399  -1.456  0.00  0.00    +0.248 C 
ATOM     18  O   UNL     1       8.319   3.200  -2.617  0.00  0.00    -0.270 OA
ATOM     19  C   UNL     1       6.557   2.694   0.573  0.00  0.00    +0.114 C 
ATOM     20  C   UNL     1       5.061   2.453   0.679  0.00  0.00    +0.097 C 
ATOM     21  C   UNL     1       2.582  -2.448  -0.198  0.00  0.00    +0.140 A 
ATOM     22  F   UNL     1       1.291  -2.497  -0.560  0.00  0.00    -0.205 F 
ATOM     23  N   UNL     1       3.155   1.191  -0.009  0.00  0.00    -0.056 NA
ENDROOT
BRANCH  17  24
ATOM     24  C   UNL     1       8.476   4.627  -0.816  0.00  0.00    +0.055 A 
ATOM     25  C   UNL     1       8.906   4.683   0.501  0.00  0.00    +0.125 A 
ATOM     26  N   UNL     1       9.336   5.812   1.117  0.00  0.00    -0.244 NA
ATOM     27  C   UNL     1       9.412   6.932   0.356  0.00  0.00    +0.140 A 
ATOM     28  C   UNL     1       9.094   6.958  -0.996  0.00  0.00    +0.040 A 
ATOM     29  C   UNL     1       8.619   5.786  -1.586  0.00  0.00    +0.017 A 
BRANCH  27  30
ATOM     30  C   UNL     1       9.855   8.121   1.031  0.00  0.00    +0.119 C 
ATOM     31  N   UNL     1      10.204   9.103   1.542  0.00  0.00    -0.189 NA
ENDBRANCH  27  30
ENDBRANCH  17  24
TORSDOF 2
