REMARK  Name = 
REMARK  7 active torsions:
REMARK  status: ('A' for Active; 'I' for Inactive)
REMARK    1  A    between atoms: C_1  and  N_2
REMARK    2  A    between atoms: C_9  and  C_10
REMARK    3  A    between atoms: C_9  and  C_12
REMARK    4  A    between atoms: N_14  and  C_15
REMARK    5  A    between atoms: C_15  and  C_16
REMARK    6  A    between atoms: C_16  and  C_17
REMARK    7  A    between atoms: C_17  and  O_18
REMARK                            x       y       z     vdW  Elec       q    Type
REMARK                         _______ _______ _______ _____ _____    ______ ____
ROOT
ATOM      1  C   UNL     1       0.851  -0.004   0.028  0.00  0.00    +0.135 C 
ATOM      2  N   UNL     1       2.320   0.065   0.121  0.00  0.00    -0.303 N 
ATOM      3  C   UNL     1       2.986  -1.187   0.069  0.00  0.00    +0.039 A 
ATOM      4  C   UNL     1       2.305  -2.422   0.061  0.00  0.00    +0.024 A 
ATOM      5  C   UNL     1       2.978  -3.648   0.009  0.00  0.00    +0.002 A 
ATOM      6  C   UNL     1       4.360  -3.674  -0.028  0.00  0.00    +0.000 A 
ATOM      7  C   UNL     1       5.062  -2.476  -0.023  0.00  0.00    +0.008 A 
ATOM      8  C   UNL     1       4.390  -1.227   0.021  0.00  0.00    +0.007 A 
ATOM      9  C   UNL     1       5.215   0.070  -0.013  0.00  0.00    +0.186 C 
ATOM     10  C   UNL     1       4.383   1.361   0.031  0.00  0.00    +0.007 A 
ATOM     11  C   UNL     1       5.053   2.609  -0.042  0.00  0.00    +0.008 A 
ATOM     12  C   UNL     1       4.348   3.805  -0.054  0.00  0.00    +0.000 A 
ATOM     13  C   UNL     1       2.968   3.775   0.030  0.00  0.00    +0.002 A 
ATOM     14  C   UNL     1       2.297   2.550   0.108  0.00  0.00    +0.024 A 
ATOM     15  C   UNL     1       2.974   1.314   0.088  0.00  0.00    +0.039 A 
ENDROOT
BRANCH   9  16
ATOM     16  C   UNL     1       6.204   0.031   1.187  0.00  0.00    +0.242 C 
ATOM     17  N   UNL     1       5.613  -0.008   2.455  0.00  0.00    -0.313 N 
ATOM     18  H   UNL     1       4.665   0.360   2.523  0.00  0.00    +0.149 HD
ATOM     19  O   UNL     1       7.426  -0.028   1.065  0.00  0.00    -0.273 OA
BRANCH  17  20
ATOM     20  C   UNL     1       6.457  -0.028   3.641  0.00  0.00    +0.115 C 
BRANCH  20  21
ATOM     21  C   UNL     1       5.674  -0.043   4.944  0.00  0.00    +0.139 C 
BRANCH  21  22
ATOM     22  C   UNL     1       4.766  -1.227   5.194  0.00  0.00    +0.306 C 
ATOM     23  O   UNL     1       4.169  -1.364   6.255  0.00  0.00    -0.251 OA
BRANCH  22  24
ATOM     24  O   UNL     1       4.619  -2.114   4.194  0.00  0.00    -0.481 OA
ATOM     25  H   UNL     1       5.084  -1.902   3.358  0.00  0.00    +0.295 HD
ENDBRANCH  22  24
ENDBRANCH  21  22
ENDBRANCH  20  21
ENDBRANCH  17  20
ENDBRANCH   9  16
BRANCH   9  26
ATOM     26  C   UNL     1       5.976   0.071  -1.329  0.00  0.00    +0.088 C 
ATOM     27  N   UNL     1       6.607   0.072  -2.421  0.00  0.00    -0.195 NA
ENDBRANCH   9  26
TORSDOF 6
