REMARK  Name = 
REMARK  3 active torsions:
REMARK  status: ('A' for Active; 'I' for Inactive)
REMARK    1  A    between atoms: C_9  and  C_11
REMARK    2  A    between atoms: N_16  and  S_19
REMARK    3  A    between atoms: S_19  and  C_22
REMARK                            x       y       z     vdW  Elec       q    Type
REMARK                         _______ _______ _______ _____ _____    ______ ____
ROOT
ATOM      1  C   UNL     1       3.835  -4.931   0.158  0.00  0.00    +0.254 C 
ATOM      2  N   UNL     1       5.027  -5.598  -0.185  0.00  0.00    -0.295 N 
ATOM      3  C   UNL     1       6.297  -4.926  -0.517  0.00  0.00    +0.125 C 
ATOM      4  C   UNL     1       7.170  -5.801  -1.426  0.00  0.00    +0.128 C 
ATOM      5  N   UNL     1       7.427  -7.137  -0.812  0.00  0.00    -0.172 NA
ATOM      6  C   UNL     1       6.136  -7.823  -0.493  0.00  0.00    +0.128 C 
ATOM      7  C   UNL     1       5.197  -6.953   0.357  0.00  0.00    +0.125 C 
ATOM      8  O   UNL     1       2.979  -5.523   0.822  0.00  0.00    -0.269 OA
ENDROOT
BRANCH   1  13
ATOM      9  O   UNL     1       4.639  -1.050  -3.440  0.00  0.00    -0.619 OA
ATOM     10  N   UNL     1       3.974  -0.680  -2.416  0.00  0.00    -0.170 N 
ATOM     11  C   UNL     1       3.655  -1.543  -1.463  0.00  0.00    +0.234 A 
ATOM     12  C   UNL     1       3.976  -2.933  -1.476  0.00  0.00    +0.101 A 
ATOM     13  C   UNL     1       3.629  -3.559  -0.292  0.00  0.00    +0.081 A 
ATOM     14  S   UNL     1       2.731  -2.494   0.721  0.00  0.00    -0.078 S 
ATOM     15  C   UNL     1       2.957  -1.157  -0.326  0.00  0.00    +0.086 A 
ATOM     16  C   UNL     1       2.553   0.178  -0.174  0.00  0.00    +0.027 A 
ATOM     17  C   UNL     1       2.901   1.087  -1.176  0.00  0.00    +0.072 A 
ATOM     18  C   UNL     1       3.612   0.648  -2.289  0.00  0.00    +0.322 A 
ENDBRANCH   1  13
BRANCH   5  19
ATOM     19  S   UNL     1       8.630  -7.163   0.383  0.00  0.00    +0.076 S 
ATOM     20  O   UNL     1       8.050  -6.818   1.658  0.00  0.00    -0.151 OA
ATOM     21  O   UNL     1       9.803  -6.498  -0.140  0.00  0.00    -0.151 OA
BRANCH  19  22
ATOM     22  C   UNL     1       9.131  -8.849   0.531  0.00  0.00    +0.173 A 
ATOM     23  N   UNL     1      10.174  -9.321  -0.232  0.00  0.00    -0.339 N 
ATOM     24  H   UNL     1      10.731  -8.735  -0.842  0.00  0.00    +0.167 HD
ATOM     25  C   UNL     1      10.276 -10.687  -0.120  0.00  0.00    +0.048 A 
ATOM     26  C   UNL     1       9.340 -11.088   0.834  0.00  0.00    +0.003 A 
ATOM     27  C   UNL     1       9.217 -12.457   1.134  0.00  0.00    +0.030 A 
ATOM     28  C   UNL     1      10.017 -13.372   0.443  0.00  0.00    +0.042 A 
ATOM     29  C   UNL     1      10.949 -12.948  -0.503  0.00  0.00    +0.022 A 
ATOM     30 CL   UNL     1       9.827 -15.056   0.751  0.00  0.00    -0.084 Cl
ATOM     31  C   UNL     1      11.107 -11.589  -0.793  0.00  0.00    +0.027 A 
ATOM     32  C   UNL     1       8.669  -9.918   1.277  0.00  0.00    +0.057 A 
ENDBRANCH  19  22
ENDBRANCH   5  19
TORSDOF 3
