REMARK  Name = 
REMARK  15 active torsions:
REMARK  status: ('A' for Active; 'I' for Inactive)
REMARK    1  A    between atoms: C_2  and  C_3
REMARK    2  A    between atoms: C_3  and  C_4
REMARK    3  A    between atoms: C_6  and  C_7
REMARK    4  A    between atoms: C_8  and  O_10
REMARK    5  A    between atoms: O_10  and  C_11
REMARK    6  A    between atoms: C_11  and  C_12
REMARK    7  A    between atoms: C_14  and  C_15
REMARK    8  A    between atoms: C_17  and  C_19
REMARK    9  A    between atoms: C_20  and  C_21
REMARK   10  A    between atoms: C_22  and  C_23
REMARK   11  A    between atoms: C_24  and  C_25
REMARK   12  A    between atoms: C_26  and  C_27
REMARK   13  A    between atoms: C_28  and  O_29
REMARK   14  A    between atoms: O_29  and  C_30
REMARK   15  A    between atoms: C_35  and  O_37
REMARK                            x       y       z     vdW  Elec       q    Type
REMARK                         _______ _______ _______ _____ _____    ______ ____
ROOT
ATOM      1  C   UNL     1       1.814  -0.024  -0.612  0.00  0.00    +0.154 C 
ATOM      2  C   UNL     1       2.808   1.004  -1.429  0.00  0.00    +0.133 C 
ATOM      3  O   UNL     1       4.083   0.863  -2.240  0.00  0.00    -0.357 OA
ATOM      4  C   UNL     1       5.268   0.121  -1.826  0.00  0.00    +0.173 C 
ATOM      5  C   UNL     1       4.692  -0.981  -1.003  0.00  0.00    +0.182 C 
ATOM      6  C   UNL     1       3.905  -0.243   0.153  0.00  0.00    +0.135 C 
ATOM      7  C   UNL     1       4.540  -0.522   1.504  0.00  0.00    +0.048 C 
ATOM      8  C   UNL     1       1.967   1.659  -2.515  0.00  0.00    +0.048 C 
ATOM      9  C   UNL     1       3.492   1.380  -0.117  0.00  0.00    +0.244 C 
ATOM     10  O   UNL     1       2.610  -0.963   0.099  0.00  0.00    -0.361 OA
ENDROOT
BRANCH   1  11
ATOM     11  C   UNL     1       0.265  -0.143  -0.629  0.00  0.00    +0.031 C 
ATOM     12  C   UNL     1      -0.404  -1.301  -1.313  0.00  0.00    +0.006 C 
ENDBRANCH   1  11
BRANCH   5  13
ATOM     13  O   UNL     1       3.860  -1.756  -1.907  0.00  0.00    -0.386 OA
ATOM     14  H   UNL     1       3.054  -1.981  -1.409  0.00  0.00    +0.210 HD
ENDBRANCH   5  13
BRANCH   4  15
ATOM     15  C   UNL     1       6.474   0.743  -1.047  0.00  0.00    +0.007 C 
ATOM     16  C   UNL     1       7.756   0.368  -1.194  0.00  0.00    -0.002 C 
BRANCH  16  17
ATOM     17  C   UNL     1       8.839   0.714  -0.263  0.00  0.00    -0.000 C 
ATOM     18  C   UNL     1      10.118   0.295  -0.410  0.00  0.00    +0.000 C 
BRANCH  18  19
ATOM     19  C   UNL     1      11.216   0.598   0.505  0.00  0.00    +0.004 C 
ATOM     20  C   UNL     1      12.503   0.207   0.309  0.00  0.00    +0.047 C 
BRANCH  20  21
ATOM     21  C   UNL     1      13.642   0.472   1.195  0.00  0.00    +0.138 A 
ATOM     22  O   UNL     1      13.282   1.219   2.354  0.00  0.00    -0.422 OA
ATOM     23  C   UNL     1      14.195   1.570   3.301  0.00  0.00    +0.341 A 
ATOM     24  O   UNL     1      13.890   2.203   4.306  0.00  0.00    -0.245 OA
ATOM     25  C   UNL     1      15.587   1.160   3.095  0.00  0.00    +0.138 A 
ATOM     26  C   UNL     1      15.938   0.467   2.010  0.00  0.00    +0.133 A 
ATOM     27  C   UNL     1      14.928   0.096   1.004  0.00  0.00    +0.034 A 
ATOM     28  C   UNL     1      15.454  -0.690  -0.174  0.00  0.00    +0.051 C 
BRANCH  26  29
ATOM     29  O   UNL     1      17.219   0.032   1.717  0.00  0.00    -0.494 OA
ATOM     30  C   UNL     1      18.277   0.350   2.619  0.00  0.00    +0.277 C 
ENDBRANCH  26  29
ENDBRANCH  20  21
ENDBRANCH  18  19
ENDBRANCH  16  17
ENDBRANCH   4  15
BRANCH   9  31
ATOM     31  O   UNL     1       4.377   2.482  -0.329  0.00  0.00    -0.456 OA
BRANCH  31  32
ATOM     32  C   UNL     1       4.690   3.250   0.745  0.00  0.00    +0.304 C 
ATOM     33  O   UNL     1       4.578   2.904   1.911  0.00  0.00    -0.251 OA
ATOM     34  C   UNL     1       5.123   4.620   0.308  0.00  0.00    +0.136 C 
ENDBRANCH  31  32
ENDBRANCH   9  31
TORSDOF 9
