REMARK  Name = 
REMARK  10 active torsions:
REMARK  status: ('A' for Active; 'I' for Inactive)
REMARK    1  A    between atoms: C_2  and  C_3
REMARK    2  A    between atoms: C_2  and  N_10
REMARK    3  A    between atoms: C_2  and  C_20
REMARK    4  A    between atoms: C_3  and  C_4
REMARK    5  A    between atoms: N_22  and  C_23
REMARK    6  A    between atoms: C_23  and  C_24
REMARK    7  A    between atoms: C_24  and  N_25
REMARK    8  A    between atoms: N_25  and  C_26
REMARK    9  A    between atoms: C_29  and  O_30
REMARK   10  A    between atoms: O_30  and  C_31
REMARK                            x       y       z     vdW  Elec       q    Type
REMARK                         _______ _______ _______ _____ _____    ______ ____
ROOT
ATOM      1  C   UNL     1       2.351   0.147   0.098  0.00  0.00    +0.161 C 
ENDROOT
BRANCH   1   2
ATOM      2  N   UNL     1       2.929   1.511   0.213  0.00  0.00    -0.287 N 
ATOM      3  H   UNL     1       2.750   1.916   1.130  0.00  0.00    +0.151 HD
ATOM      4  C   UNL     1       2.761   2.426  -0.757  0.00  0.00    +0.289 A 
ATOM      5  O   UNL     1       2.924   3.720  -0.346  0.00  0.00    -0.425 OA
ATOM      6  C   UNL     1       2.786   4.449  -1.490  0.00  0.00    +0.157 A 
ATOM      7  C   UNL     1       2.530   3.563  -2.522  0.00  0.00    +0.111 A 
ATOM      8  C   UNL     1       2.367   4.057  -3.822  0.00  0.00    +0.031 A 
ATOM      9  C   UNL     1       2.485   5.441  -4.017  0.00  0.00    +0.002 A 
ATOM     10  C   UNL     1       2.743   6.306  -2.946  0.00  0.00    +0.004 A 
ATOM     11  C   UNL     1       2.895   5.825  -1.638  0.00  0.00    +0.048 A 
ATOM     12  N   UNL     1       2.494   2.286  -2.033  0.00  0.00    -0.195 NA
ENDBRANCH   1   2
BRANCH   1  13
ATOM     13  C   UNL     1       2.768  -0.647   1.383  0.00  0.00    +0.233 C 
ATOM     14  N   UNL     1       3.795  -0.072   2.107  0.00  0.00    -0.312 N 
ATOM     15  H   UNL     1       4.244   0.741   1.695  0.00  0.00    +0.149 HD
ATOM     16  O   UNL     1       2.215  -1.684   1.736  0.00  0.00    -0.274 OA
BRANCH  14  17
ATOM     17  C   UNL     1       4.240  -0.578   3.397  0.00  0.00    +0.123 C 
BRANCH  17  18
ATOM     18  C   UNL     1       5.589   0.026   3.813  0.00  0.00    +0.120 C 
BRANCH  18  19
ATOM     19  N   UNL     1       6.092  -0.532   5.072  0.00  0.00    -0.342 N 
ATOM     20  H   UNL     1       6.035  -1.550   5.094  0.00  0.00    +0.146 HD
BRANCH  19  21
ATOM     21  C   UNL     1       7.373  -0.104   5.476  0.00  0.00    +0.027 A 
ATOM     22  C   UNL     1       8.151  -0.934   6.296  0.00  0.00    +0.026 A 
ATOM     23  C   UNL     1       9.427  -0.544   6.735  0.00  0.00    +0.047 A 
ATOM     24  C   UNL     1       9.933   0.705   6.385  0.00  0.00    +0.120 A 
ATOM     25  C   UNL     1       9.148   1.561   5.619  0.00  0.00    +0.047 A 
ATOM     26  C   UNL     1       7.873   1.172   5.195  0.00  0.00    +0.026 A 
BRANCH  24  27
ATOM     27  O   UNL     1      11.180   1.178   6.680  0.00  0.00    -0.495 OA
ATOM     28  C   UNL     1      11.757   0.711   7.892  0.00  0.00    +0.277 C 
ENDBRANCH  24  27
ENDBRANCH  19  21
ENDBRANCH  18  19
ENDBRANCH  17  18
ENDBRANCH  14  17
ENDBRANCH   1  13
BRANCH   1  29
ATOM     29  C   UNL     1       2.785  -0.598  -1.188  0.00  0.00    +0.035 C 
BRANCH  29  30
ATOM     30  C   UNL     1       2.179  -2.009  -1.416  0.00  0.00    -0.009 C 
ATOM     31  C   UNL     1       2.761  -2.665  -2.688  0.00  0.00    +0.003 C 
ATOM     32  C   UNL     1       2.205  -2.087  -3.989  0.00  0.00    +0.000 C 
ATOM     33  C   UNL     1       0.682  -2.144  -4.017  0.00  0.00    +0.000 C 
ATOM     34  C   UNL     1       0.074  -1.469  -2.793  0.00  0.00    +0.000 C 
ATOM     35  C   UNL     1       0.640  -2.033  -1.488  0.00  0.00    +0.003 C 
ENDBRANCH  29  30
ENDBRANCH   1  29
TORSDOF 9
