REMARK  Name = 
REMARK  4 active torsions:
REMARK  status: ('A' for Active; 'I' for Inactive)
REMARK    1  A    between atoms: C_4  and  O_5
REMARK    2  A    between atoms: O_5  and  C_6
REMARK    3  A    between atoms: N_16  and  C_17
REMARK    4  A    between atoms: C_20  and  C_23
REMARK                            x       y       z     vdW  Elec       q    Type
REMARK                         _______ _______ _______ _____ _____    ______ ____
ROOT
ATOM      1  N   UNL     1       1.023   0.124  -0.168  0.00  0.00    -0.327 N 
ATOM      2  H   UNL     1       0.568  -0.668   0.262  0.00  0.00    +0.145 HD
ATOM      3  H   UNL     1       0.694   1.047   0.073  0.00  0.00    +0.145 HD
ATOM      4  C   UNL     1       2.397   0.037  -0.044  0.00  0.00    +0.220 A 
ATOM      5  N   UNL     1       2.917  -1.159   0.139  0.00  0.00    -0.181 NA
ATOM      6  C   UNL     1       4.244  -1.219   0.214  0.00  0.00    +0.227 A 
ATOM      7  N   UNL     1       4.899  -2.450   0.332  0.00  0.00    -0.283 N 
ATOM      8  H   UNL     1       5.892  -2.275   0.304  0.00  0.00    +0.155 HD
ATOM      9  N   UNL     1       5.042  -0.159   0.140  0.00  0.00    -0.161 NA
ATOM     10  C   UNL     1       4.401   0.996  -0.003  0.00  0.00    +0.329 A 
ATOM     11  N   UNL     1       3.086   1.154  -0.108  0.00  0.00    -0.161 NA
ENDROOT
BRANCH   7  12
ATOM     12  C   UNL     1       4.489  -3.730  -0.070  0.00  0.00    +0.034 A 
ATOM     13  C   UNL     1       3.153  -4.147  -0.107  0.00  0.00    +0.024 A 
ATOM     14  C   UNL     1       2.804  -5.428  -0.558  0.00  0.00    +0.020 A 
ATOM     15  C   UNL     1       3.795  -6.319  -0.974  0.00  0.00    +0.052 A 
ATOM     16  C   UNL     1       5.132  -5.925  -0.931  0.00  0.00    +0.020 A 
ATOM     17  C   UNL     1       5.473  -4.647  -0.472  0.00  0.00    +0.024 A 
BRANCH  15  18
ATOM     18  C   UNL     1       3.440  -7.631  -1.434  0.00  0.00    +0.099 C 
ATOM     19  N   UNL     1       3.161  -8.691  -1.809  0.00  0.00    -0.191 NA
ENDBRANCH  15  18
ENDBRANCH   7  12
BRANCH  10  20
ATOM     20  O   UNL     1       5.106   2.173  -0.170  0.00  0.00    -0.421 OA
BRANCH  20  21
ATOM     21  C   UNL     1       6.385   2.321   0.314  0.00  0.00    +0.168 A 
ATOM     22  C   UNL     1       6.765   2.108   1.647  0.00  0.00    +0.085 A 
ATOM     23 CL   UNL     1       5.739   1.381   2.833  0.00  0.00    -0.080 Cl
ATOM     24  C   UNL     1       8.010   2.566   2.105  0.00  0.00    +0.024 A 
ATOM     25  C   UNL     1       8.879   3.246   1.251  0.00  0.00    +0.003 A 
ATOM     26  C   UNL     1       8.526   3.433  -0.081  0.00  0.00    +0.024 A 
ATOM     27  C   UNL     1       7.290   2.971  -0.546  0.00  0.00    +0.085 A 
ATOM     28 CL   UNL     1       6.899   3.269  -2.205  0.00  0.00    -0.080 Cl
ENDBRANCH  20  21
ENDBRANCH  10  20
TORSDOF 4
