REMARK  Name = 
REMARK  1 active torsions:
REMARK  status: ('A' for Active; 'I' for Inactive)
REMARK    1  A    between atoms: C_4  and  C_12
REMARK                            x       y       z     vdW  Elec       q    Type
REMARK                         _______ _______ _______ _____ _____    ______ ____
ROOT
ATOM      1  O   UNL     1       0.851   0.053   0.283  0.00  0.00    -0.287 OA
ATOM      2  C   UNL     1       2.073   0.031   0.202  0.00  0.00    +0.193 A 
ATOM      3  C   UNL     1       2.883   1.251   0.160  0.00  0.00    +0.064 A 
ATOM      4  C   UNL     1       4.270   1.130   0.116  0.00  0.00    +0.139 A 
ATOM      5  C   UNL     1       5.058   2.278   0.050  0.00  0.00    +0.047 A 
ATOM      6  C   UNL     1       4.453   3.539   0.015  0.00  0.00    +0.004 A 
ATOM      7  C   UNL     1       3.062   3.654   0.059  0.00  0.00    +0.001 A 
ATOM      8  O   UNL     1       4.913  -0.085   0.124  0.00  0.00    -0.455 OA
ATOM      9  C   UNL     1       4.142  -1.243   0.084  0.00  0.00    +0.139 A 
ATOM     10  C   UNL     1       2.272   2.508   0.137  0.00  0.00    +0.015 A 
ATOM     11  C   UNL     1       2.800  -1.241   0.111  0.00  0.00    +0.098 A 
ENDROOT
BRANCH   9  12
ATOM     12  C   UNL     1       4.911  -2.505  -0.054  0.00  0.00    +0.017 A 
ATOM     13  C   UNL     1       4.403  -3.737   0.397  0.00  0.00    +0.011 A 
ATOM     14  C   UNL     1       5.105  -4.929   0.196  0.00  0.00    +0.001 A 
ATOM     15  C   UNL     1       6.342  -4.910  -0.439  0.00  0.00    +0.000 A 
ATOM     16  C   UNL     1       6.884  -3.698  -0.857  0.00  0.00    +0.001 A 
ATOM     17  C   UNL     1       6.177  -2.506  -0.663  0.00  0.00    +0.011 A 
ENDBRANCH   9  12
TORSDOF 1
