REMARK  Name = 
REMARK  6 active torsions:
REMARK  status: ('A' for Active; 'I' for Inactive)
REMARK    1  A    between atoms: C_1  and  C_2
REMARK    2  A    between atoms: C_4  and  C_9
REMARK    3  A    between atoms: C_10  and  C_11
REMARK    4  A    between atoms: C_12  and  C_13
REMARK    5  A    between atoms: C_13  and  N_14
REMARK    6  A    between atoms: N_14  and  N_15
REMARK                            x       y       z     vdW  Elec       q    Type
REMARK                         _______ _______ _______ _____ _____    ______ ____
ROOT
ATOM      1  C   UNL     1       6.666   4.881   0.024  0.00  0.00    +0.030 A 
ATOM      2  C   UNL     1       8.045   4.874  -0.230  0.00  0.00    +0.017 A 
ATOM      3  C   UNL     1       8.755   6.071  -0.325  0.00  0.00    +0.001 A 
ATOM      4  C   UNL     1       8.094   7.282  -0.150  0.00  0.00    +0.000 A 
ATOM      5  C   UNL     1       6.723   7.298   0.116  0.00  0.00    +0.006 A 
ATOM      6  C   UNL     1       5.978   6.104   0.182  0.00  0.00    -0.014 A 
ENDROOT
BRANCH   1   8
ATOM      7  C   UNL     1       5.411   2.562   0.115  0.00  0.00    -0.041 C 
ATOM      8  C   UNL     1       5.993   3.615   0.093  0.00  0.00    -0.059 C 
BRANCH   7  17
ATOM      9  C   UNL     1       1.180   0.025   0.083  0.00  0.00    +0.066 C 
ATOM     10  C   UNL     1       2.673   0.143   0.081  0.00  0.00    +0.044 A 
ATOM     11  N   UNL     1       3.375  -1.009   0.036  0.00  0.00    -0.220 NA
ATOM     12  C   UNL     1       4.709  -0.919  -0.003  0.00  0.00    +0.214 A 
ATOM     13  N   UNL     1       5.414  -2.099  -0.103  0.00  0.00    -0.327 N 
ATOM     14  H   UNL     1       4.854  -2.871   0.230  0.00  0.00    +0.145 HD
ATOM     15  H   UNL     1       6.347  -1.992   0.265  0.00  0.00    +0.145 HD
ATOM     16  N   UNL     1       5.399   0.219   0.059  0.00  0.00    -0.206 NA
ATOM     17  C   UNL     1       4.666   1.344   0.102  0.00  0.00    +0.119 A 
ATOM     18  C   UNL     1       3.289   1.372   0.110  0.00  0.00    +0.060 A 
ENDBRANCH   7  17
ENDBRANCH   1   8
BRANCH   6  19
ATOM     19  C   UNL     1       4.489   6.136   0.487  0.00  0.00    +0.157 C 
BRANCH  19  20
ATOM     20  N   UNL     1       3.809   7.337  -0.037  0.00  0.00    -0.275 N 
ATOM     21  H   UNL     1       3.962   7.349  -1.049  0.00  0.00    +0.167 HD
BRANCH  20  22
ATOM     22  N   UNL     1       2.430   7.276   0.166  0.00  0.00    -0.203 N 
ATOM     23  C   UNL     1       1.533   6.443  -0.501  0.00  0.00    +0.437 A 
ATOM     24  O   UNL     1       1.799   5.545  -1.290  0.00  0.00    -0.221 OA
ATOM     25  O   UNL     1       0.235   6.791  -0.130  0.00  0.00    -0.415 OA
ATOM     26  C   UNL     1       0.466   7.877   0.721  0.00  0.00    +0.220 A 
ATOM     27  C   UNL     1       1.746   8.179   0.899  0.00  0.00    +0.153 A 
ENDBRANCH  20  22
ENDBRANCH  19  20
ENDBRANCH   6  19
TORSDOF 5
