REMARK  Name = 
REMARK  2 active torsions:
REMARK  status: ('A' for Active; 'I' for Inactive)
REMARK    1  A    between atoms: C_4  and  C_7
REMARK    2  A    between atoms: C_10  and  O_11
REMARK                            x       y       z     vdW  Elec       q    Type
REMARK                         _______ _______ _______ _____ _____    ______ ____
ROOT
ATOM      1  N   UNL     1       0.991   0.149   0.339  0.00  0.00    -0.338 N 
ATOM      2  H   UNL     1       0.403  -0.617   0.039  0.00  0.00    +0.144 HD
ATOM      3  H   UNL     1       0.622   1.071   0.137  0.00  0.00    +0.144 HD
ATOM      4  C   UNL     1       2.321   0.010   0.221  0.00  0.00    +0.156 A 
ATOM      5  S   UNL     1       3.040  -1.541   0.092  0.00  0.00    -0.060 S 
ATOM      6  C   UNL     1       4.584  -0.804  -0.001  0.00  0.00    +0.076 A 
ATOM      7  C   UNL     1       4.463   0.572   0.056  0.00  0.00    +0.080 A 
ATOM      8  N   UNL     1       3.151   1.021   0.177  0.00  0.00    -0.225 NA
ENDROOT
BRANCH   7   9
ATOM      9  C   UNL     1       5.584   1.514  -0.013  0.00  0.00    +0.001 A 
ATOM     10  C   UNL     1       6.916   1.089  -0.135  0.00  0.00    +0.013 A 
ATOM     11  C   UNL     1       7.959   2.016  -0.228  0.00  0.00    +0.046 A 
ATOM     12  C   UNL     1       7.680   3.375  -0.201  0.00  0.00    +0.117 A 
ATOM     13  C   UNL     1       6.373   3.826  -0.066  0.00  0.00    +0.046 A 
ATOM     14  C   UNL     1       5.331   2.896   0.030  0.00  0.00    +0.013 A 
BRANCH  12  15
ATOM     15  O   UNL     1       8.726   4.241  -0.318  0.00  0.00    -0.507 OA
ATOM     16  H   UNL     1       8.376   5.145  -0.361  0.00  0.00    +0.292 HD
ENDBRANCH  12  15
ENDBRANCH   7   9
TORSDOF 2
