REMARK  Name = 
REMARK  14 active torsions:
REMARK  status: ('A' for Active; 'I' for Inactive)
REMARK    1  A    between atoms: C_2  and  N_3
REMARK    2  A    between atoms: C_2  and  C_4
REMARK    3  A    between atoms: C_2  and  C_15
REMARK    4  A    between atoms: C_4  and  S_5
REMARK    5  A    between atoms: S_5  and  C_6
REMARK    6  A    between atoms: C_6  and  C_7
REMARK    7  A    between atoms: C_7  and  C_8
REMARK    8  A    between atoms: C_8  and  C_9
REMARK    9  A    between atoms: C_9  and  C_10
REMARK   10  A    between atoms: C_10  and  C_11
REMARK   11  A    between atoms: C_11  and  C_12
REMARK   12  A    between atoms: C_12  and  C_13
REMARK   13  A    between atoms: C_13  and  C_14
REMARK   14  A    between atoms: C_15  and  O_16
REMARK                            x       y       z     vdW  Elec       q    Type
REMARK                         _______ _______ _______ _____ _____    ______ ____
ROOT
ATOM      1  S   UNK     1       2.007  -2.359   1.175  0.00  0.00    -0.159 S 
ENDROOT
BRANCH   1   2
ATOM      2  C   UNK     1       2.535  -1.351  -0.262  0.00  0.00    +0.099 C 
BRANCH   2   3
ATOM      3  C   UNK     1       2.142   0.127  -0.100  0.00  0.00    +0.170 C 
BRANCH   3   4
ATOM      4  N   UNK     1       2.730   0.725   1.122  0.00  0.00    -0.318 NA
ATOM      5  H   UNK     1       2.457   1.694   1.268  0.00  0.00    +0.119 HD
ATOM      6  H   UNK     1       2.596   0.131   1.941  0.00  0.00    +0.119 HD
ENDBRANCH   3   4
BRANCH   3   7
ATOM      7  C   UNK     1       0.615   0.273  -0.168  0.00  0.00    +0.323 C 
ATOM      8  O   UNK     1      -0.052   0.004  -1.156  0.00  0.00    -0.249 OA
BRANCH   7   9
ATOM      9  O   UNK     1       0.052   0.738   0.976  0.00  0.00    -0.480 OA
ATOM     10  H   UNK     1       0.723   0.807   1.679  0.00  0.00    +0.295 HD
ENDBRANCH   7   9
ENDBRANCH   3   7
ENDBRANCH   2   3
ENDBRANCH   1   2
BRANCH   1  11
ATOM     11  C   UNK     1       2.562  -3.997   0.601  0.00  0.00    +0.069 C 
BRANCH  11  12
ATOM     12  C   UNK     1       2.085  -5.043   1.607  0.00  0.00    +0.011 C 
BRANCH  12  13
ATOM     13  C   UNK     1       2.587  -6.446   1.266  0.00  0.00    +0.001 C 
BRANCH  13  14
ATOM     14  C   UNK     1       2.093  -7.450   2.311  0.00  0.00    +0.000 C 
BRANCH  14  15
ATOM     15  C   UNK     1       2.589  -8.866   2.023  0.00  0.00    +0.000 C 
BRANCH  15  16
ATOM     16  C   UNK     1       2.087  -9.848   3.082  0.00  0.00    -0.000 C 
BRANCH  16  17
ATOM     17  C   UNK     1       2.577 -11.268   2.799  0.00  0.00    -0.000 C 
BRANCH  17  18
ATOM     18  C   UNK     1       2.078 -12.251   3.857  0.00  0.00    -0.003 C 
ATOM     19  C   UNK     1       2.568 -13.662   3.575  0.00  0.00    +0.004 C 
ENDBRANCH  17  18
ENDBRANCH  16  17
ENDBRANCH  15  16
ENDBRANCH  14  15
ENDBRANCH  13  14
ENDBRANCH  12  13
ENDBRANCH  11  12
ENDBRANCH   1  11
TORSDOF 13
