REMARK  Name = 
REMARK  9 active torsions:
REMARK  status: ('A' for Active; 'I' for Inactive)
REMARK    1  A    between atoms: C_2  and  O_3
REMARK    2  A    between atoms: C_2  and  C_4
REMARK    3  A    between atoms: C_2  and  C_6
REMARK    4  A    between atoms: C_4  and  O_5
REMARK    5  A    between atoms: C_6  and  O_7
REMARK    6  A    between atoms: O_7  and  N_8
REMARK    7  A    between atoms: C_9  and  C_11
REMARK    8  A    between atoms: C_12  and  N_13
REMARK    9  A    between atoms: N_13  and  C_14
REMARK                            x       y       z     vdW  Elec       q    Type
REMARK                         _______ _______ _______ _____ _____    ______ ____
ROOT
ATOM      1  C   UNL     1       6.174  -2.384  -3.893  0.00  0.00    +0.063 A 
ATOM      2  C   UNL     1       7.018  -1.982  -4.957  0.00  0.00    +0.018 A 
ATOM      3  C   UNL     1       7.551  -2.908  -5.853  0.00  0.00    +0.042 A 
ATOM      4  C   UNL     1       7.207  -4.240  -5.722  0.00  0.00    +0.160 A 
ATOM      5  F   UNL     1       7.672  -5.133  -6.605  0.00  0.00    -0.202 F 
ATOM      6  C   UNL     1       6.386  -4.654  -4.682  0.00  0.00    +0.180 A 
ATOM      7  F   UNL     1       6.036  -5.951  -4.638  0.00  0.00    -0.201 F 
ATOM      8  C   UNL     1       5.922  -3.757  -3.689  0.00  0.00    +0.082 A 
ENDROOT
BRANCH   1  11
ATOM      9  N   UNL     1       4.299  -1.449  -2.641  0.00  0.00    -0.190 N 
ATOM     10  H   UNL     1       4.065  -2.355  -2.257  0.00  0.00    +0.183 HD
ATOM     11  C   UNL     1       5.584  -1.257  -3.109  0.00  0.00    +0.269 C 
ATOM     12  O   UNL     1       6.193  -0.191  -3.033  0.00  0.00    -0.268 OA
BRANCH   9  13
ATOM     13  O   UNL     1       3.754  -0.349  -1.932  0.00  0.00    -0.277 OA
BRANCH  13  14
ATOM     14  C   UNL     1       2.980   0.438  -2.847  0.00  0.00    +0.223 C 
BRANCH  14  15
ATOM     15  C   UNL     1       2.312   1.600  -2.116  0.00  0.00    +0.168 C 
BRANCH  15  16
ATOM     16  O   UNL     1       1.527   2.372  -3.039  0.00  0.00    -0.387 OA
ATOM     17  H   UNL     1       1.265   3.164  -2.526  0.00  0.00    +0.210 HD
ENDBRANCH  15  16
BRANCH  15  18
ATOM     18  C   UNL     1       3.323   2.533  -1.449  0.00  0.00    +0.189 C 
BRANCH  18  19
ATOM     19  O   UNL     1       2.589   3.627  -0.881  0.00  0.00    -0.392 OA
ATOM     20  H   UNL     1       3.167   4.408  -0.931  0.00  0.00    +0.210 HD
ENDBRANCH  18  19
ENDBRANCH  15  18
ENDBRANCH  14  15
ENDBRANCH  13  14
ENDBRANCH   9  13
ENDBRANCH   1  11
BRANCH   8  21
ATOM     21  N   UNL     1       5.159  -4.246  -2.576  0.00  0.00    -0.309 N 
ATOM     22  H   UNL     1       4.171  -4.281  -2.852  0.00  0.00    +0.152 HD
BRANCH  21  23
ATOM     23  C   UNL     1       5.405  -5.530  -1.976  0.00  0.00    +0.067 A 
ATOM     24  C   UNL     1       4.334  -6.274  -1.465  0.00  0.00    +0.145 A 
ATOM     25  F   UNL     1       3.101  -5.743  -1.489  0.00  0.00    -0.204 F 
ATOM     26  C   UNL     1       4.500  -7.576  -0.999  0.00  0.00    +0.054 A 
ATOM     27  C   UNL     1       5.773  -8.144  -1.020  0.00  0.00    +0.016 A 
ATOM     28  I   UNL     1       6.024 -10.136  -0.484  0.00  0.00    -0.044 I 
ATOM     29  C   UNL     1       6.873  -7.390  -1.424  0.00  0.00    +0.016 A 
ATOM     30  C   UNL     1       6.695  -6.072  -1.860  0.00  0.00    +0.027 A 
ENDBRANCH  21  23
ENDBRANCH   8  21
TORSDOF 9
