REMARK  Name = 
REMARK  14 active torsions:
REMARK  status: ('A' for Active; 'I' for Inactive)
REMARK    1  A    between atoms: C_2  and  C_3
REMARK    2  A    between atoms: C_2  and  N_10
REMARK    3  A    between atoms: C_2  and  C_16
REMARK    4  A    between atoms: C_3  and  C_4
REMARK    5  A    between atoms: C_11  and  O_13
REMARK    6  A    between atoms: O_13  and  C_14
REMARK    7  A    between atoms: C_14  and  C_15
REMARK    8  A    between atoms: C_22  and  C_24
REMARK    9  A    between atoms: N_26  and  N_27
REMARK   10  A    between atoms: N_27  and  C_28
REMARK   11  A    between atoms: C_28  and  C_29
REMARK   12  A    between atoms: C_29  and  C_30
REMARK   13  A    between atoms: C_30  and  C_31
REMARK   14  A    between atoms: C_31  and  N_32
REMARK                            x       y       z     vdW  Elec       q    Type
REMARK                         _______ _______ _______ _____ _____    ______ ____
ROOT
ATOM      1  C   UNL     1       2.635   0.886  -0.816  0.00  0.00    +0.237 C 
ATOM      2  N   UNL     1       3.998   0.991  -1.059  0.00  0.00    -0.288 N 
ATOM      3  C   UNL     1       4.911  -0.113  -1.414  0.00  0.00    +0.163 C 
ATOM      4  C   UNL     1       6.073   0.564  -2.160  0.00  0.00    +0.033 C 
ATOM      5  C   UNL     1       5.664   2.018  -2.361  0.00  0.00    +0.021 C 
ATOM      6  C   UNL     1       4.614   2.282  -1.304  0.00  0.00    +0.109 C 
ATOM      7  O   UNL     1       1.890   1.864  -0.934  0.00  0.00    -0.274 OA
ENDROOT
BRANCH   3   8
ATOM      8  C   UNL     1       5.481  -0.868  -0.196  0.00  0.00    +0.247 C 
ATOM      9  N   UNL     1       5.691  -0.066   0.922  0.00  0.00    -0.249 N 
ATOM     10  H   UNL     1       5.323   0.879   0.943  0.00  0.00    +0.169 HD
ATOM     11  O   UNL     1       5.866  -2.034  -0.253  0.00  0.00    -0.272 OA
BRANCH   9  12
ATOM     12  N   UNL     1       6.164  -0.641   2.122  0.00  0.00    -0.241 NA
ATOM     13  H   UNL     1       6.006  -1.656   2.047  0.00  0.00    +0.144 HD
BRANCH  12  14
ATOM     14  C   UNL     1       7.613  -0.444   2.275  0.00  0.00    +0.102 C 
BRANCH  14  15
ATOM     15  C   UNL     1       8.033   1.023   2.428  0.00  0.00    +0.018 C 
BRANCH  15  16
ATOM     16  C   UNL     1       7.404   1.698   3.653  0.00  0.00    +0.016 C 
BRANCH  16  17
ATOM     17  C   UNL     1       7.842   3.152   3.829  0.00  0.00    +0.077 C 
BRANCH  17  18
ATOM     18  N   UNL     1       9.282   3.272   4.018  0.00  0.00    -0.330 NA
ATOM     19  H   UNL     1       9.520   4.245   4.206  0.00  0.00    +0.118 HD
ATOM     20  H   UNL     1       9.564   2.746   4.845  0.00  0.00    +0.118 HD
ENDBRANCH  17  18
ENDBRANCH  16  17
ENDBRANCH  15  16
ENDBRANCH  14  15
ENDBRANCH  12  14
ENDBRANCH   9  12
ENDBRANCH   3   8
BRANCH   1  21
ATOM     21  C   UNL     1       2.067  -0.483  -0.379  0.00  0.00    +0.167 C 
BRANCH  21  22
ATOM     22  N   UNL     1       1.405  -1.182  -1.482  0.00  0.00    -0.269 N 
ATOM     23  H   UNL     1       0.479  -0.893  -1.768  0.00  0.00    +0.153 HD
ATOM     24  C   UNL     1       1.782  -2.442  -1.856  0.00  0.00    +0.401 C 
ATOM     25  O   UNL     1       2.839  -2.968  -1.543  0.00  0.00    -0.226 OA
BRANCH  24  26
ATOM     26  O   UNL     1       0.791  -3.028  -2.569  0.00  0.00    -0.451 OA
BRANCH  26  27
ATOM     27  C   UNL     1       0.996  -4.419  -2.878  0.00  0.00    +0.230 C 
ATOM     28  C   UNL     1       0.675  -5.294  -1.676  0.00  0.00    +0.048 C 
ENDBRANCH  26  27
ENDBRANCH  24  26
ENDBRANCH  21  22
BRANCH  21  29
ATOM     29  C   UNL     1       1.081  -0.235   0.796  0.00  0.00    +0.067 C 
BRANCH  29  30
ATOM     30  C   UNL     1       0.562  -1.456   1.530  0.00  0.00    -0.045 A 
ATOM     31  C   UNL     1      -0.657  -1.371   2.227  0.00  0.00    +0.004 A 
ATOM     32  C   UNL     1      -1.173  -2.483   2.902  0.00  0.00    +0.000 A 
ATOM     33  C   UNL     1      -0.486  -3.693   2.879  0.00  0.00    +0.000 A 
ATOM     34  C   UNL     1       0.740  -3.777   2.229  0.00  0.00    +0.000 A 
ATOM     35  C   UNL     1       1.273  -2.658   1.589  0.00  0.00    +0.004 A 
ENDBRANCH  29  30
ENDBRANCH  21  29
ENDBRANCH   1  21
TORSDOF 13
