REMARK  Name = 
REMARK  10 active torsions:
REMARK  status: ('A' for Active; 'I' for Inactive)
REMARK    1  A    between atoms: C_2  and  C_24
REMARK    2  A    between atoms: C_8  and  O_10
REMARK    3  A    between atoms: O_10  and  C_11
REMARK    4  A    between atoms: C_11  and  C_12
REMARK    5  A    between atoms: C_11  and  C_13
REMARK    6  A    between atoms: C_11  and  C_14
REMARK    7  A    between atoms: C_16  and  N_17
REMARK    8  A    between atoms: N_17  and  S_18
REMARK    9  A    between atoms: S_18  and  O_19
REMARK   10  A    between atoms: N_26  and  C_27
REMARK                            x       y       z     vdW  Elec       q    Type
REMARK                         _______ _______ _______ _____ _____    ______ ____
ROOT
ATOM      1  C   UNL     1       2.019  -0.103   0.155  0.00  0.00    +0.170 C 
ATOM      2  N   UNL     1       2.576  -1.265   0.865  0.00  0.00    -0.251 N 
ATOM      3  C   UNL     1       1.990  -2.086   1.810  0.00  0.00    +0.404 C 
ATOM      4  O   UNL     1       2.575  -3.058   2.262  0.00  0.00    -0.226 OA
ATOM      5  C   UNL     1       4.016  -1.419   0.680  0.00  0.00    +0.147 C 
ATOM      6  C   UNL     1       4.770  -0.114   0.858  0.00  0.00    -0.025 A 
ATOM      7  C   UNL     1       6.161  -0.157   1.046  0.00  0.00    +0.030 A 
ATOM      8  C   UNL     1       6.887   1.016   1.239  0.00  0.00    +0.050 A 
ATOM      9  C   UNL     1       6.251   2.253   1.169  0.00  0.00    +0.025 A 
ATOM     10  C   UNL     1       4.869   2.312   0.964  0.00  0.00    +0.006 A 
ATOM     11  C   UNL     1       4.117   1.136   0.820  0.00  0.00    -0.040 A 
ATOM     12  C   UNL     1       2.608   1.210   0.696  0.00  0.00    +0.067 C 
ENDROOT
BRANCH   1  13
ATOM     13  C   UNL     1       0.517   0.029  -0.159  0.00  0.00    +0.234 C 
ATOM     14  N   UNL     1      -0.266   0.492   0.875  0.00  0.00    -0.317 N 
ATOM     15  H   UNL     1       0.019   0.190   1.802  0.00  0.00    +0.148 HD
ATOM     16  C   UNL     1      -1.665   0.759   0.656  0.00  0.00    +0.128 C 
ATOM     17  O   UNL     1       0.066  -0.208  -1.278  0.00  0.00    -0.274 OA
ENDBRANCH   1  13
BRANCH   8  18
ATOM     18  N   UNL     1       8.277   0.916   1.532  0.00  0.00    -0.197 N 
ATOM     19  H   UNL     1       8.591   1.480   2.320  0.00  0.00    +0.176 HD
BRANCH  18  20
ATOM     20  S   UNL     1       9.366   1.064   0.268  0.00  0.00    +0.164 S 
ATOM     21  O   UNL     1      10.685   0.993   0.851  0.00  0.00    -0.127 OA
ATOM     22  O   UNL     1       8.969   2.169  -0.573  0.00  0.00    -0.127 OA
BRANCH  20  23
ATOM     23  O   UNL     1       9.126  -0.267  -0.597  0.00  0.00    -0.238 OA
ATOM     24  H   UNL     1       8.568  -0.016  -1.363  0.00  0.00    +0.246 HD
ENDBRANCH  20  23
ENDBRANCH  18  20
ENDBRANCH   8  18
BRANCH   3  25
ATOM     25  O   UNL     1       0.731  -1.734   2.193  0.00  0.00    -0.445 OA
BRANCH  25  26
ATOM     26  C   UNL     1       0.024  -2.614   3.130  0.00  0.00    +0.107 C 
ATOM     27  C   UNL     1      -0.221  -4.004   2.519  0.00  0.00    +0.055 C 
ATOM     28  C   UNL     1      -1.349  -1.966   3.376  0.00  0.00    +0.055 C 
ATOM     29  C   UNL     1       0.738  -2.715   4.489  0.00  0.00    +0.055 C 
ENDBRANCH  25  26
ENDBRANCH   3  25
TORSDOF 6
