REMARK  Name = 
REMARK  12 active torsions:
REMARK  status: ('A' for Active; 'I' for Inactive)
REMARK    1  A    between atoms: C_2  and  N_3
REMARK    2  A    between atoms: C_4  and  O_6
REMARK    3  A    between atoms: C_7  and  C_9
REMARK    4  A    between atoms: C_9  and  O_10
REMARK    5  A    between atoms: C_12  and  O_14
REMARK    6  A    between atoms: O_14  and  C_15
REMARK    7  A    between atoms: C_15  and  C_16
REMARK    8  A    between atoms: C_16  and  C_17
REMARK    9  A    between atoms: C_17  and  C_18
REMARK   10  A    between atoms: C_18  and  C_19
REMARK   11  A    between atoms: C_19  and  C_20
REMARK   12  A    between atoms: C_21  and  O_23
REMARK                            x       y       z     vdW  Elec       q    Type
REMARK                         _______ _______ _______ _____ _____    ______ ____
ROOT
ATOM      1  C   UNL     1       2.286   0.066   0.330  0.00  0.00    +0.116 C 
ATOM      2  C   UNL     1       2.572   1.060  -0.803  0.00  0.00    +0.189 C 
ATOM      3  C   UNL     1       1.952   0.616  -2.137  0.00  0.00    +0.281 C 
ATOM      4  O   UNL     1       2.408  -0.683  -2.520  0.00  0.00    -0.341 OA
ATOM      5  C   UNL     1       2.324  -1.741  -1.544  0.00  0.00    +0.177 C 
ATOM      6  C   UNL     1       2.696  -1.355  -0.097  0.00  0.00    +0.165 C 
ENDROOT
BRANCH   1   7
ATOM      7  N   UNL     1       0.904   0.086   0.856  0.00  0.00    -0.323 NA
ATOM      8  H   UNL     1       0.717   1.016   1.239  0.00  0.00    +0.119 HD
ATOM      9  H   UNL     1       0.245   0.001   0.071  0.00  0.00    +0.119 HD
ENDBRANCH   1   7
BRANCH   2  10
ATOM     10  O   UNL     1       4.001   1.193  -0.950  0.00  0.00    -0.385 OA
ATOM     11  H   UNL     1       4.308   0.483  -1.550  0.00  0.00    +0.210 HD
ENDBRANCH   2  10
BRANCH   6  12
ATOM     12  O   UNL     1       2.211  -2.311   0.853  0.00  0.00    -0.388 OA
ATOM     13  H   UNL     1       1.595  -1.811   1.431  0.00  0.00    +0.210 HD
ENDBRANCH   6  12
BRANCH   3  14
ATOM     14  O   UNL     1       0.528   0.758  -2.147  0.00  0.00    -0.349 OA
BRANCH  14  15
ATOM     15  C   UNL     1       0.029   0.828  -3.490  0.00  0.00    +0.163 C 
BRANCH  15  16
ATOM     16  C   UNL     1      -1.418   1.334  -3.535  0.00  0.00    +0.028 C 
BRANCH  16  17
ATOM     17  C   UNL     1      -1.541   2.822  -3.162  0.00  0.00    +0.002 C 
BRANCH  17  18
ATOM     18  C   UNL     1      -2.971   3.337  -3.374  0.00  0.00    -0.000 C 
BRANCH  18  19
ATOM     19  C   UNL     1      -3.107   4.811  -2.980  0.00  0.00    -0.003 C 
ATOM     20  C   UNL     1      -4.525   5.324  -3.175  0.00  0.00    +0.004 C 
ENDBRANCH  18  19
ENDBRANCH  17  18
ENDBRANCH  16  17
ENDBRANCH  15  16
ENDBRANCH  14  15
ENDBRANCH   3  14
BRANCH   5  21
ATOM     21  C   UNL     1       1.030  -2.549  -1.707  0.00  0.00    +0.190 C 
BRANCH  21  22
ATOM     22  O   UNL     1       0.848  -2.911  -3.082  0.00  0.00    -0.392 OA
ATOM     23  H   UNL     1       1.264  -2.203  -3.608  0.00  0.00    +0.210 HD
ENDBRANCH  21  22
ENDBRANCH   5  21
TORSDOF 11
