REMARK  Name = 
REMARK  5 active torsions:
REMARK  status: ('A' for Active; 'I' for Inactive)
REMARK    1  A    between atoms: C_2  and  C_3
REMARK    2  A    between atoms: C_3  and  C_4
REMARK    3  A    between atoms: C_4  and  C_5
REMARK    4  A    between atoms: C_5  and  C_6
REMARK    5  A    between atoms: C_6  and  C_7
REMARK                            x       y       z     vdW  Elec       q    Type
REMARK                         _______ _______ _______ _____ _____    ______ ____
ROOT
ATOM      1  C   UNL     1       2.076   0.034  -0.176  0.00  0.00    +0.069 C 
ATOM      2  C   UNL     1       2.608   0.970  -1.293  0.00  0.00    +0.108 C 
ATOM      3  C   UNL     1       3.004   2.312  -0.671  0.00  0.00    +0.105 C 
ATOM      4  N   UNL     1       1.776   3.067  -0.762  0.00  0.00    -0.294 N 
ATOM      5  H   UNL     1       1.646   4.030  -0.479  0.00  0.00    +0.151 HD
ATOM      6  C   UNL     1       1.040   2.600  -1.844  0.00  0.00    +0.300 C 
ATOM      7  O   UNL     1       0.078   3.143  -2.348  0.00  0.00    -0.253 OA
ATOM      8  C   UNL     1       3.592   2.105   0.707  0.00  0.00    +0.093 C 
ATOM      9  N   UNL     1       1.603   1.394  -2.243  0.00  0.00    -0.294 N 
ATOM     10  H   UNL     1       1.150   0.826  -2.947  0.00  0.00    +0.151 HD
ATOM     11  S   UNL     1       2.900   0.572   1.367  0.00  0.00    -0.154 S 
ENDROOT
BRANCH   1  12
ATOM     12  C   UNL     1       0.543  -0.013  -0.000  0.00  0.00    +0.016 C 
BRANCH  12  13
ATOM     13  C   UNL     1       0.067  -1.002   1.073  0.00  0.00    +0.002 C 
BRANCH  13  14
ATOM     14  C   UNL     1      -1.459  -1.013   1.181  0.00  0.00    +0.007 C 
BRANCH  14  15
ATOM     15  C   UNL     1      -1.917  -1.962   2.281  0.00  0.00    +0.071 C 
BRANCH  15  16
ATOM     16  C   UNL     1      -3.418  -1.956   2.382  0.00  0.00    +0.223 C 
ATOM     17  O   UNL     1      -4.103  -2.968   2.276  0.00  0.00    -0.301 OA
ENDBRANCH  15  16
ENDBRANCH  14  15
ENDBRANCH  13  14
ENDBRANCH  12  13
ENDBRANCH   1  12
TORSDOF 5
