REMARK  Name = 
REMARK  11 active torsions:
REMARK  status: ('A' for Active; 'I' for Inactive)
REMARK    1  A    between atoms: C_2  and  O_3
REMARK    2  A    between atoms: C_2  and  C_4
REMARK    3  A    between atoms: C_2  and  C_28
REMARK    4  A    between atoms: C_4  and  O_5
REMARK    5  A    between atoms: O_5  and  C_6
REMARK    6  A    between atoms: C_9  and  N_10
REMARK    7  A    between atoms: C_13  and  N_14
REMARK    8  A    between atoms: N_14  and  C_15
REMARK    9  A    between atoms: C_28  and  N_29
REMARK   10  A    between atoms: N_29  and  C_30
REMARK   11  A    between atoms: N_29  and  C_31
REMARK                            x       y       z     vdW  Elec       q    Type
REMARK                         _______ _______ _______ _____ _____    ______ ____
ROOT
ATOM      1  N   UNL     1       2.749  -7.808  -0.485  0.00  0.00    -0.284 N 
ATOM      2  H   UNL     1       1.835  -8.221  -0.648  0.00  0.00    +0.155 HD
ATOM      3  C   UNL     1       3.598  -8.425  -1.412  0.00  0.00    +0.221 A 
ATOM      4  N   UNL     1       4.896  -8.098  -1.481  0.00  0.00    -0.223 NA
ATOM      5  C   UNL     1       5.634  -8.729  -2.408  0.00  0.00    +0.118 A 
ATOM      6  C   UNL     1       5.126  -9.664  -3.274  0.00  0.00    +0.063 A 
ATOM      7  C   UNL     1       3.776  -9.909  -3.166  0.00  0.00    +0.128 A 
ATOM      8  N   UNL     1       3.020  -9.321  -2.219  0.00  0.00    -0.199 NA
ENDROOT
BRANCH   1  12
ATOM      9  C   UNL     1       2.159  -3.674   0.171  0.00  0.00    +0.121 A 
ATOM     10  C   UNL     1       1.630  -4.619   1.050  0.00  0.00    +0.047 A 
ATOM     11  C   UNL     1       1.851  -5.984   0.831  0.00  0.00    +0.027 A 
ATOM     12  C   UNL     1       2.627  -6.422  -0.251  0.00  0.00    +0.034 A 
ATOM     13  C   UNL     1       3.202  -5.459  -1.086  0.00  0.00    +0.027 A 
ATOM     14  C   UNL     1       2.976  -4.097  -0.875  0.00  0.00    +0.047 A 
BRANCH   9  15
ATOM     15  O   UNL     1       1.843  -2.362   0.416  0.00  0.00    -0.489 OA
BRANCH  15  16
ATOM     16  C   UNL     1       1.676  -1.579  -0.779  0.00  0.00    +0.261 C 
BRANCH  16  17
ATOM     17  C   UNL     1       1.163  -0.177  -0.419  0.00  0.00    +0.166 C 
BRANCH  17  18
ATOM     18  O   UNL     1      -0.086  -0.205   0.282  0.00  0.00    -0.387 OA
ATOM     19  H   UNL     1      -0.525  -1.042   0.053  0.00  0.00    +0.210 HD
ENDBRANCH  17  18
BRANCH  17  20
ATOM     20  C   UNL     1       1.065   0.731  -1.671  0.00  0.00    +0.118 C 
BRANCH  20  21
ATOM     21  N   UNL     1       0.207   0.268  -2.792  0.00  0.00    -0.306 NA
ATOM     22  C   UNL     1       0.342   1.202  -3.918  0.00  0.00    +0.104 C 
ATOM     23  C   UNL     1      -1.206   0.188  -2.409  0.00  0.00    +0.104 C 
ENDBRANCH  20  21
ENDBRANCH  17  20
ENDBRANCH  16  17
ENDBRANCH  15  16
ENDBRANCH   9  15
ENDBRANCH   1  12
BRANCH   7  24
ATOM     24  N   UNL     1       3.157 -10.724  -4.134  0.00  0.00    -0.298 N 
ATOM     25  H   UNL     1       3.495 -11.682  -4.123  0.00  0.00    +0.154 HD
BRANCH  24  26
ATOM     26  C   UNL     1       1.838 -10.575  -4.623  0.00  0.00    +0.052 A 
ATOM     27  C   UNL     1       1.217  -9.315  -4.631  0.00  0.00    +0.044 A 
ATOM     28  C   UNL     1      -0.055  -9.134  -5.173  0.00  0.00    +0.043 A 
ATOM     29 CL   UNL     1      -0.785  -7.581  -5.133  0.00  0.00    -0.083 Cl
ATOM     30  C   UNL     1      -0.727 -10.208  -5.751  0.00  0.00    +0.021 A 
ATOM     31  C   UNL     1      -0.129 -11.468  -5.770  0.00  0.00    +0.023 A 
ATOM     32  C   UNL     1       1.143 -11.650  -5.212  0.00  0.00    +0.062 A 
ATOM     33 CL   UNL     1       1.836 -13.234  -5.247  0.00  0.00    -0.082 Cl
ENDBRANCH  24  26
ENDBRANCH   7  24
TORSDOF 9
