REMARK  Name = 
REMARK  10 active torsions:
REMARK  status: ('A' for Active; 'I' for Inactive)
REMARK    1  A    between atoms: C_1  and  C_2
REMARK    2  A    between atoms: C_2  and  C_3
REMARK    3  A    between atoms: C_3  and  C_4
REMARK    4  A    between atoms: C_4  and  C_5
REMARK    5  A    between atoms: C_5  and  C_6
REMARK    6  A    between atoms: C_6  and  C_7
REMARK    7  A    between atoms: C_7  and  C_8
REMARK    8  A    between atoms: C_8  and  C_9
REMARK    9  A    between atoms: C_9  and  C_10
REMARK   10  A    between atoms: C_10  and  S_11
REMARK                            x       y       z     vdW  Elec       q    Type
REMARK                         _______ _______ _______ _____ _____    ______ ____
ROOT
ATOM      1  C   UNL     1       6.583  -2.545   1.518  0.00  0.00    +0.000 C 
ENDROOT
BRANCH   1   2
ATOM      2  C   UNL     1       5.054  -2.524   1.506  0.00  0.00    -0.000 C 
BRANCH   2   3
ATOM      3  C   UNL     1       4.518  -1.281   0.795  0.00  0.00    -0.000 C 
BRANCH   3   4
ATOM      4  C   UNL     1       2.989  -1.265   0.787  0.00  0.00    -0.000 C 
BRANCH   4   6
ATOM      5  C   UNL     1       0.928  -0.008   0.070  0.00  0.00    +0.004 C 
ATOM      6  C   UNL     1       2.448  -0.025   0.076  0.00  0.00    -0.003 C 
ENDBRANCH   4   6
ENDBRANCH   3   4
ENDBRANCH   2   3
ENDBRANCH   1   2
BRANCH   1   7
ATOM      7  C   UNL     1       7.113  -3.790   2.231  0.00  0.00    +0.000 C 
BRANCH   7   8
ATOM      8  C   UNL     1       8.642  -3.815   2.246  0.00  0.00    +0.001 C 
BRANCH   8   9
ATOM      9  C   UNL     1       9.169  -5.061   2.961  0.00  0.00    +0.010 C 
BRANCH   9  10
ATOM     10  C   UNL     1      10.695  -5.078   2.974  0.00  0.00    +0.065 C 
BRANCH  10  11
ATOM     11  S   UNL     1      11.312  -6.561   3.820  0.00  0.00    -0.178 S 
ATOM     12  H   UNL     1      10.758  -6.301   5.013  0.00  0.00    +0.102 HD
ENDBRANCH  10  11
ENDBRANCH   9  10
ENDBRANCH   8   9
ENDBRANCH   7   8
ENDBRANCH   1   7
TORSDOF 9
