REMARK  Name = 
REMARK  10 active torsions:
REMARK  status: ('A' for Active; 'I' for Inactive)
REMARK    1  A    between atoms: C_2  and  C_3
REMARK    2  A    between atoms: C_2  and  N_7
REMARK    3  A    between atoms: C_2  and  C_12
REMARK    4  A    between atoms: C_3  and  C_4
REMARK    5  A    between atoms: C_4  and  C_5
REMARK    6  A    between atoms: C_4  and  C_6
REMARK    7  A    between atoms: N_7  and  O_8
REMARK    8  A    between atoms: C_9  and  C_10
REMARK    9  A    between atoms: C_12  and  O_14
REMARK   10  A    between atoms: O_14  and  C_15
REMARK                            x       y       z     vdW  Elec       q    Type
REMARK                         _______ _______ _______ _____ _____    ______ ____
ROOT
ATOM      1  C   UNL     1       1.991   0.140  -0.006  0.00  0.00    +0.214 C 
ENDROOT
BRANCH   1   2
ATOM      2  N   UNL     1       2.561  -0.572   1.153  0.00  0.00    -0.170 N 
ATOM      3  C   UNL     1       3.103   0.064   2.242  0.00  0.00    +0.236 C 
ATOM      4  O   UNL     1       3.271   1.285   2.283  0.00  0.00    -0.274 OA
ATOM      5  C   UNL     1       3.549  -0.796   3.402  0.00  0.00    +0.111 C 
BRANCH   2   6
ATOM      6  O   UNL     1       2.115  -1.902   1.289  0.00  0.00    -0.292 OA
ATOM      7  H   UNL     1       2.841  -2.402   0.866  0.00  0.00    +0.242 HD
ENDBRANCH   2   6
ENDBRANCH   1   2
BRANCH   1   8
ATOM      8  C   UNL     1       2.663  -0.254  -1.331  0.00  0.00    +0.330 C 
ATOM      9  O   UNL     1       2.261   0.121  -2.429  0.00  0.00    -0.249 OA
BRANCH   8  10
ATOM     10  O   UNL     1       3.782  -1.011  -1.147  0.00  0.00    -0.467 OA
ATOM     11  C   UNL     1       4.513  -1.315  -2.340  0.00  0.00    +0.280 C 
ENDBRANCH   8  10
ENDBRANCH   1   8
BRANCH   1  12
ATOM     12  C   UNL     1       0.463  -0.020  -0.125  0.00  0.00    +0.039 C 
BRANCH  12  13
ATOM     13  C   UNL     1      -0.351   0.559   1.049  0.00  0.00    -0.015 C 
ATOM     14  C   UNL     1      -1.835   0.234   0.846  0.00  0.00    +0.007 C 
ATOM     15  C   UNL     1      -0.181   2.073   1.189  0.00  0.00    +0.007 C 
ENDBRANCH  12  13
ENDBRANCH   1  12
TORSDOF 6
