REMARK  Name = 
REMARK  7 active torsions:
REMARK  status: ('A' for Active; 'I' for Inactive)
REMARK    1  A    between atoms: C_2  and  C_3
REMARK    2  A    between atoms: C_3  and  S_4
REMARK    3  A    between atoms: S_4  and  C_5
REMARK    4  A    between atoms: C_5  and  C_6
REMARK    5  A    between atoms: C_8  and  N_10
REMARK    6  A    between atoms: C_20  and  O_22
REMARK    7  A    between atoms: C_23  and  O_25
REMARK                            x       y       z     vdW  Elec       q    Type
REMARK                         _______ _______ _______ _____ _____    ______ ____
ROOT
ATOM      1  C   UNL     1       2.135  -0.024   0.118  0.00  0.00    +0.162 C 
ATOM      2  C   UNL     1       2.675  -1.361   0.628  0.00  0.00    +0.177 C 
ATOM      3  C   UNL     1       3.948  -1.002   1.402  0.00  0.00    +0.195 C 
ATOM      4  C   UNL     1       4.036   0.526   1.296  0.00  0.00    +0.253 C 
ATOM      5  O   UNL     1       2.704   0.967   0.985  0.00  0.00    -0.347 OA
ENDROOT
BRANCH   4   6
ATOM      6  N   UNL     1       4.486   1.247   2.467  0.00  0.00    -0.286 N 
ATOM      7  C   UNL     1       5.402   0.845   3.402  0.00  0.00    +0.167 A 
ATOM      8  N   UNL     1       6.007  -0.352   3.516  0.00  0.00    -0.216 NA
ATOM      9  C   UNL     1       6.826  -0.369   4.594  0.00  0.00    +0.225 A 
ATOM     10  N   UNL     1       7.099   0.626   5.464  0.00  0.00    -0.219 NA
ATOM     11  C   UNL     1       6.497   1.822   5.278  0.00  0.00    +0.147 A 
ATOM     12  N   UNL     1       6.802   2.862   6.144  0.00  0.00    -0.341 N 
ATOM     13  H   UNL     1       6.112   3.605   6.151  0.00  0.00    +0.144 HD
ATOM     14  H   UNL     1       7.175   2.548   7.028  0.00  0.00    +0.144 HD
ATOM     15  C   UNL     1       5.581   1.951   4.221  0.00  0.00    +0.147 A 
ATOM     16  N   UNL     1       4.790   3.002   3.815  0.00  0.00    -0.231 NA
ATOM     17  C   UNL     1       4.152   2.549   2.758  0.00  0.00    +0.203 A 
ENDBRANCH   4   6
BRANCH   2  18
ATOM     18  O   UNL     1       2.923  -2.258  -0.452  0.00  0.00    -0.386 OA
ATOM     19  H   UNL     1       3.891  -2.419  -0.446  0.00  0.00    +0.210 HD
ENDBRANCH   2  18
BRANCH   3  20
ATOM     20  O   UNL     1       5.082  -1.662   0.824  0.00  0.00    -0.385 OA
ATOM     21  H   UNL     1       5.822  -1.527   1.454  0.00  0.00    +0.210 HD
ENDBRANCH   3  20
BRANCH   1  22
ATOM     22  C   UNL     1       0.606   0.043   0.166  0.00  0.00    +0.103 C 
BRANCH  22  23
ATOM     23  S   UNL     1       0.012   1.620  -0.546  0.00  0.00    -0.158 S 
BRANCH  23  24
ATOM     24  C   UNL     1      -1.768   1.416  -0.239  0.00  0.00    +0.066 C 
ATOM     25  C   UNL     1      -2.512   2.645  -0.731  0.00  0.00    +0.015 C 
ENDBRANCH  23  24
ENDBRANCH  22  23
ENDBRANCH   1  22
TORSDOF 6
