REMARK  Name = 
REMARK  10 active torsions:
REMARK  status: ('A' for Active; 'I' for Inactive)
REMARK    1  A    between atoms: O_1  and  P_2
REMARK    2  A    between atoms: P_2  and  O_3
REMARK    3  A    between atoms: P_2  and  O_5
REMARK    4  A    between atoms: O_5  and  C_6
REMARK    5  A    between atoms: C_6  and  C_7
REMARK    6  A    between atoms: C_7  and  N_8
REMARK    7  A    between atoms: N_8  and  S_9
REMARK    8  A    between atoms: S_9  and  C_12
REMARK    9  A    between atoms: C_15  and  O_16
REMARK   10  A    between atoms: O_16  and  C_17
REMARK                            x       y       z     vdW  Elec       q    Type
REMARK                         _______ _______ _______ _____ _____    ______ ____
ROOT
ATOM      1  S   UNL     1       8.895  -1.123  -2.381  0.00  0.00    +0.058 S 
ATOM      2  O   UNL     1       9.256  -2.083  -1.360  0.00  0.00    -0.153 OA
ATOM      3  O   UNL     1       9.434   0.215  -2.409  0.00  0.00    -0.153 OA
ENDROOT
BRANCH   1   4
ATOM      4  C   UNL     1       9.207  -1.905  -3.945  0.00  0.00    +0.105 A 
ATOM      5  C   UNL     1       8.752  -3.211  -4.157  0.00  0.00    +0.032 A 
ATOM      6  C   UNL     1       8.997  -3.847  -5.380  0.00  0.00    +0.048 A 
ATOM      7  C   UNL     1       9.740  -3.200  -6.367  0.00  0.00    +0.130 A 
ATOM      8  C   UNL     1      10.185  -1.890  -6.141  0.00  0.00    +0.048 A 
ATOM      9  C   UNL     1       9.928  -1.238  -4.933  0.00  0.00    +0.032 A 
BRANCH   7  10
ATOM     10  O   UNL     1      10.066  -3.697  -7.591  0.00  0.00    -0.406 OA
BRANCH  10  11
ATOM     11  C   UNL     1      10.197  -5.098  -7.787  0.00  0.00    +0.575 C 
ATOM     12  F   UNL     1      11.354  -5.328  -8.447  0.00  0.00    -0.133 F 
ATOM     13  F   UNL     1       9.179  -5.540  -8.555  0.00  0.00    -0.133 F 
ATOM     14  F   UNL     1      10.225  -5.816  -6.645  0.00  0.00    -0.133 F 
ENDBRANCH  10  11
ENDBRANCH   7  10
ENDBRANCH   1   4
BRANCH   1  15
ATOM     15  N   UNL     1       7.206  -1.008  -2.360  0.00  0.00    -0.188 NA
ATOM     16  H   UNL     1       6.775  -1.921  -2.512  0.00  0.00    +0.148 HD
BRANCH  15  17
ATOM     17  C   UNL     1       6.594   0.081  -3.152  0.00  0.00    +0.134 C 
BRANCH  17  18
ATOM     18  C   UNL     1       5.065  -0.016  -3.033  0.00  0.00    +0.189 C 
BRANCH  18  19
ATOM     19  O   UNL     1       4.593   0.045  -1.681  0.00  0.00    -0.285 OA
BRANCH  19  20
ATOM     20  P   UNL     1       5.110   1.408  -0.749  0.00  0.00    +0.472 P 
ATOM     21  O   UNL     1       5.014   2.388  -1.921  0.00  0.00    -0.228 OA
BRANCH  20  22
ATOM     22  O   UNL     1       5.626   2.770   0.184  0.00  0.00    -0.303 OA
ATOM     23  H   UNL     1       5.496   3.503  -0.456  0.00  0.00    +0.222 HD
ENDBRANCH  20  22
BRANCH  20  24
ATOM     24  O   UNL     1       3.673   1.483   0.011  0.00  0.00    -0.303 OA
ATOM     25  H   UNL     1       3.706   1.078   0.894  0.00  0.00    +0.222 HD
ENDBRANCH  20  24
ENDBRANCH  19  20
ENDBRANCH  18  19
ENDBRANCH  17  18
ENDBRANCH  15  17
ENDBRANCH   1  15
TORSDOF 10
