REMARK  Name = 
REMARK  10 active torsions:
REMARK  status: ('A' for Active; 'I' for Inactive)
REMARK    1  A    between atoms: C_6  and  C_7
REMARK    2  A    between atoms: C_7  and  O_9
REMARK    3  A    between atoms: O_9  and  C_10
REMARK    4  A    between atoms: C_11  and  C_12
REMARK    5  A    between atoms: C_12  and  O_14
REMARK    6  A    between atoms: O_14  and  C_15
REMARK    7  A    between atoms: C_16  and  C_25
REMARK    8  A    between atoms: C_17  and  C_18
REMARK    9  A    between atoms: C_21  and  O_22
REMARK   10  A    between atoms: C_28  and  O_29
REMARK                            x       y       z     vdW  Elec       q    Type
REMARK                         _______ _______ _______ _____ _____    ______ ____
ROOT
ATOM      1  C   UNL     1       2.233  -0.053  -0.176  0.00  0.00    +0.188 C 
ATOM      2  C   UNL     1       2.838  -1.324  -0.755  0.00  0.00    -0.001 C 
ATOM      3  C   UNL     1       4.133  -1.307  -0.348  0.00  0.00    -0.001 C 
ATOM      4  C   UNL     1       4.313  -0.047   0.466  0.00  0.00    +0.188 C 
ATOM      5  C   UNL     1       4.147   1.160  -0.409  0.00  0.00    +0.082 C 
ATOM      6  C   UNL     1       2.862   1.155  -0.812  0.00  0.00    +0.082 C 
ATOM      7  O   UNL     1       2.985  -0.028   1.088  0.00  0.00    -0.354 OA
ENDROOT
BRANCH   2   8
ATOM      8  C   UNL     1       2.148  -2.225  -1.686  0.00  0.00    -0.018 A 
ATOM      9  C   UNL     1       1.118  -1.761  -2.516  0.00  0.00    +0.012 A 
ATOM     10  C   UNL     1       0.550  -2.597  -3.486  0.00  0.00    +0.046 A 
ATOM     11  C   UNL     1       1.003  -3.901  -3.630  0.00  0.00    +0.117 A 
ATOM     12  C   UNL     1       1.971  -4.406  -2.778  0.00  0.00    +0.046 A 
ATOM     13  C   UNL     1       2.519  -3.573  -1.802  0.00  0.00    +0.012 A 
BRANCH  11  14
ATOM     14  O   UNL     1       0.481  -4.661  -4.631  0.00  0.00    -0.507 OA
ATOM     15  H   UNL     1       1.015  -5.469  -4.710  0.00  0.00    +0.292 HD
ENDBRANCH  11  14
ENDBRANCH   2   8
BRANCH   3  16
ATOM     16  C   UNL     1       5.235  -2.185  -0.709  0.00  0.00    -0.018 A 
ATOM     17  C   UNL     1       5.459  -3.364   0.012  0.00  0.00    +0.012 A 
ATOM     18  C   UNL     1       6.371  -4.310  -0.458  0.00  0.00    +0.046 A 
ATOM     19  C   UNL     1       7.079  -4.061  -1.628  0.00  0.00    +0.117 A 
ATOM     20  C   UNL     1       6.916  -2.866  -2.321  0.00  0.00    +0.046 A 
ATOM     21  C   UNL     1       5.987  -1.928  -1.862  0.00  0.00    +0.012 A 
BRANCH  19  22
ATOM     22  O   UNL     1       7.915  -5.036  -2.084  0.00  0.00    -0.507 OA
ATOM     23  H   UNL     1       8.247  -4.776  -2.959  0.00  0.00    +0.292 HD
ENDBRANCH  19  22
ENDBRANCH   3  16
BRANCH   5  24
ATOM     24  C   UNL     1       5.216   2.098  -0.714  0.00  0.00    +0.338 C 
ATOM     25  O   UNL     1       5.055   3.271  -1.002  0.00  0.00    -0.245 OA
BRANCH  24  26
ATOM     26  O   UNL     1       6.408   1.461  -0.601  0.00  0.00    -0.465 OA
ATOM     27  C   UNL     1       7.532   2.284  -0.919  0.00  0.00    +0.280 C 
ENDBRANCH  24  26
ENDBRANCH   5  24
BRANCH   6  28
ATOM     28  C   UNL     1       2.186   2.043  -1.745  0.00  0.00    +0.338 C 
ATOM     29  O   UNL     1       2.744   2.661  -2.636  0.00  0.00    -0.245 OA
BRANCH  28  30
ATOM     30  O   UNL     1       0.852   2.026  -1.505  0.00  0.00    -0.465 OA
ATOM     31  C   UNL     1       0.106   2.894  -2.362  0.00  0.00    +0.280 C 
ENDBRANCH  28  30
ENDBRANCH   6  28
TORSDOF 8
