REMARK  Name = 
REMARK  7 active torsions:
REMARK  status: ('A' for Active; 'I' for Inactive)
REMARK    1  A    between atoms: C_7  and  C_8
REMARK    2  A    between atoms: C_8  and  C_11
REMARK    3  A    between atoms: C_11  and  N_12
REMARK    4  A    between atoms: N_18  and  C_19
REMARK    5  A    between atoms: C_19  and  C_20
REMARK    6  A    between atoms: N_22  and  C_23
REMARK    7  A    between atoms: C_23  and  C_24
REMARK                            x       y       z     vdW  Elec       q    Type
REMARK                         _______ _______ _______ _____ _____    ______ ____
ROOT
ATOM      1  N   UNL     1       0.193  -3.746  -0.403  0.00  0.00    -0.318 N 
ATOM      2  H   UNL     1       0.599  -2.838  -0.632  0.00  0.00    +0.148 HD
ATOM      3  C   UNL     1      -1.189  -3.797  -0.345  0.00  0.00    +0.185 A 
ATOM      4  C   UNL     1      -1.938  -2.458  -0.549  0.00  0.00    +0.293 A 
ATOM      5  O   UNL     1      -1.300  -1.497  -0.961  0.00  0.00    -0.264 OA
ATOM      6  N   UNL     1      -3.292  -2.477  -0.258  0.00  0.00    -0.286 N 
ATOM      7  C   UNL     1      -3.908  -3.693  -0.026  0.00  0.00    +0.131 A 
ATOM      8 CL   UNL     1      -5.611  -3.739   0.204  0.00  0.00    -0.062 Cl
ATOM      9  C   UNL     1      -3.195  -4.827  -0.010  0.00  0.00    +0.151 A 
ATOM     10  N   UNL     1      -1.831  -4.909  -0.122  0.00  0.00    -0.232 NA
ENDROOT
BRANCH   1  11
ATOM     11  C   UNL     1       1.030  -4.920  -0.653  0.00  0.00    +0.190 C 
BRANCH  11  12
ATOM     12  C   UNL     1       0.902  -5.511  -2.082  0.00  0.00    +0.347 C 
ATOM     13  F   UNL     1       1.732  -6.596  -2.174  0.00  0.00    -0.192 F 
ATOM     14  F   UNL     1      -0.352  -6.064  -2.195  0.00  0.00    -0.192 F 
BRANCH  12  17
ATOM     15  O   UNL     1       3.294  -4.174  -2.424  0.00  0.00    -0.619 OA
ATOM     16  N   UNL     1       2.392  -3.955  -3.286  0.00  0.00    -0.169 N 
ATOM     17  C   UNL     1       1.139  -4.532  -3.196  0.00  0.00    +0.266 A 
ATOM     18  C   UNL     1       0.156  -4.234  -4.160  0.00  0.00    +0.081 A 
ATOM     19  C   UNL     1       0.436  -3.359  -5.207  0.00  0.00    +0.012 A 
ATOM     20  C   UNL     1       1.692  -2.782  -5.302  0.00  0.00    +0.071 A 
ATOM     21  C   UNL     1       2.655  -3.089  -4.341  0.00  0.00    +0.322 A 
ENDBRANCH  12  17
ENDBRANCH  11  12
ENDBRANCH   1  11
BRANCH   6  22
ATOM     22  C   UNL     1      -4.012  -1.205  -0.234  0.00  0.00    +0.222 C 
BRANCH  22  23
ATOM     23  C   UNL     1      -4.991  -0.987  -1.385  0.00  0.00    +0.233 C 
ATOM     24  N   UNL     1      -4.693  -1.623  -2.571  0.00  0.00    -0.310 N 
ATOM     25  H   UNL     1      -3.740  -1.942  -2.722  0.00  0.00    +0.149 HD
ATOM     26  O   UNL     1      -5.936  -0.208  -1.277  0.00  0.00    -0.274 OA
BRANCH  24  27
ATOM     27  C   UNL     1      -5.554  -1.418  -3.709  0.00  0.00    +0.142 C 
BRANCH  27  28
ATOM     28  C   UNL     1      -5.162  -2.237  -4.902  0.00  0.00    +0.005 A 
ATOM     29  C   UNL     1      -5.119  -3.639  -4.848  0.00  0.00    +0.008 A 
ATOM     30  C   UNL     1      -4.836  -4.383  -5.998  0.00  0.00    +0.000 A 
ATOM     31  C   UNL     1      -4.590  -3.738  -7.210  0.00  0.00    +0.003 A 
ATOM     32  C   UNL     1      -4.625  -2.345  -7.274  0.00  0.00    +0.038 A 
ATOM     33  C   UNL     1      -4.909  -1.612  -6.125  0.00  0.00    +0.128 A 
ATOM     34  F   UNL     1      -4.953  -0.275  -6.218  0.00  0.00    -0.205 F 
ENDBRANCH  27  28
ENDBRANCH  24  27
ENDBRANCH  22  23
ENDBRANCH   6  22
TORSDOF 7
