REMARK  Name = 
REMARK  8 active torsions:
REMARK  status: ('A' for Active; 'I' for Inactive)
REMARK    1  A    between atoms: C_2  and  N_3
REMARK    2  A    between atoms: C_2  and  C_4
REMARK    3  A    between atoms: C_2  and  C_13
REMARK    4  A    between atoms: C_13  and  C_15
REMARK    5  A    between atoms: C_13  and  C_20
REMARK    6  A    between atoms: N_17  and  C_18
REMARK    7  A    between atoms: N_17  and  C_19
REMARK    8  A    between atoms: C_24  and  C_28
REMARK                            x       y       z     vdW  Elec       q    Type
REMARK                         _______ _______ _______ _____ _____    ______ ____
ROOT
ATOM      1  C   UNL     1       2.517   1.361   0.146  0.00  0.00    +0.104 C 
ENDROOT
BRANCH   1   2
ATOM      2  C   UNL     1       4.077   1.484   0.141  0.00  0.00    +0.003 C 
ATOM      3  C   UNL     1       4.530   2.967   0.167  0.00  0.00    +0.005 C 
ATOM      4  C   UNL     1       4.271   3.710  -1.155  0.00  0.00    +0.010 C 
ATOM      5  C   UNL     1       4.876   3.010  -2.398  0.00  0.00    +0.038 C 
ATOM      6  C   UNL     1       4.427   1.529  -2.381  0.00  0.00    +0.010 C 
ATOM      7  C   UNL     1       4.768   0.829  -1.065  0.00  0.00    +0.005 C 
BRANCH   5   8
ATOM      8  C   UNL     1       6.394   3.139  -2.562  0.00  0.00    +0.048 A 
ATOM      9  N   UNL     1       6.979   2.575  -3.724  0.00  0.00    -0.217 N 
ATOM     10  C   UNL     1       8.364   2.510  -3.927  0.00  0.00    +0.156 A 
ATOM     11  N   UNL     1       8.636   1.870  -5.042  0.00  0.00    -0.215 NA
ATOM     12  C   UNL     1       7.400   1.590  -5.534  0.00  0.00    +0.246 A 
ATOM     13  C   UNL     1       9.209   3.087  -2.945  0.00  0.00    +0.048 A 
ATOM     14  C   UNL     1       8.664   3.697  -1.880  0.00  0.00    +0.005 A 
ATOM     15  N   UNL     1       6.371   2.017  -4.807  0.00  0.00    -0.153 NA
ATOM     16  C   UNL     1       7.226   3.742  -1.683  0.00  0.00    +0.024 A 
ENDBRANCH   5   8
ENDBRANCH   1   2
BRANCH   1  17
ATOM     17  C   UNL     1       1.957   2.121   1.359  0.00  0.00    +0.220 C 
ATOM     18  N   UNL     1       0.795   2.865   1.245  0.00  0.00    -0.307 N 
ATOM     19  C   UNL     1       0.264   3.494   2.447  0.00  0.00    +0.131 C 
ATOM     20  C   UNL     1      -0.044   2.984   0.061  0.00  0.00    +0.131 C 
ATOM     21  O   UNL     1       2.520   1.992   2.455  0.00  0.00    -0.275 OA
ENDBRANCH   1  17
BRANCH   1  22
ATOM     22  C   UNL     1       1.914  -0.072   0.233  0.00  0.00    +0.150 C 
BRANCH  22  23
ATOM     23  C   UNL     1       2.044  -0.893  -1.091  0.00  0.00    +0.233 C 
ATOM     24  N   UNL     1       2.621  -2.148  -1.118  0.00  0.00    -0.297 N 
ATOM     25  C   UNL     1       3.377  -2.820  -0.063  0.00  0.00    +0.144 C 
ATOM     26  C   UNL     1       3.947  -4.086  -0.688  0.00  0.00    +0.185 C 
ATOM     27  F   UNL     1       3.795  -5.139   0.154  0.00  0.00    -0.244 F 
ATOM     28  C   UNL     1       3.104  -4.304  -1.931  0.00  0.00    +0.057 C 
ATOM     29  C   UNL     1       2.735  -2.894  -2.362  0.00  0.00    +0.111 C 
ATOM     30  O   UNL     1       1.573  -0.401  -2.125  0.00  0.00    -0.274 OA
ENDBRANCH  22  23
BRANCH  22  31
ATOM     31  N   UNL     1       2.306  -0.804   1.454  0.00  0.00    -0.319 NA
ATOM     32  H   UNL     1       2.333  -0.152   2.246  0.00  0.00    +0.119 HD
ATOM     33  H   UNL     1       1.566  -1.470   1.676  0.00  0.00    +0.119 HD
ENDBRANCH  22  31
ENDBRANCH   1  22
TORSDOF 6
