REMARK  Name = 
REMARK  11 active torsions:
REMARK  status: ('A' for Active; 'I' for Inactive)
REMARK    1  A    between atoms: CA_2  and  C_3
REMARK    2  A    between atoms: CA_2  and  N_5
REMARK    3  A    between atoms: CA_2  and  CB_27
REMARK    4  A    between atoms: C_3  and  O_4
REMARK    5  A    between atoms: N_12  and  C_13
REMARK    6  A    between atoms: C_13  and  C_14
REMARK    7  A    between atoms: C_13  and  C_15
REMARK    8  A    between atoms: N_17  and  C_18
REMARK    9  A    between atoms: C_23  and  N_24
REMARK   10  A    between atoms: CB_27  and  CG1_28
REMARK   11  A    between atoms: CB_27  and  CG2_29
REMARK                            x       y       z     vdW  Elec       q    Type
REMARK                         _______ _______ _______ _____ _____    ______ ____
ROOT
ATOM      1  N   VAL A   1       2.632  -1.553   0.107  0.00  0.00    -0.308 N 
ATOM      2  H   VAL A   1       1.920  -1.729  -0.596  0.00  0.00    +0.149 HD
ATOM      3  C   UNK A   0       2.278  -2.246   1.258  0.00  0.00    +0.219 A 
ATOM      4  N   UNK A   0       1.944  -1.554   2.363  0.00  0.00    -0.197 NA
ATOM      5  C   UNK A   0       1.681  -2.195   3.535  0.00  0.00    +0.156 A 
ATOM      6  N   UNK A   0       1.327  -1.467   4.685  0.00  0.00    -0.297 N 
ATOM      7  H   UNK A   0       1.156  -2.081   5.479  0.00  0.00    +0.154 HD
ATOM      8  C   UNK A   0       1.822  -3.588   3.555  0.00  0.00    +0.148 A 
ATOM      9  N   UNK A   0       1.677  -4.521   4.560  0.00  0.00    -0.231 NA
ATOM     10  C   UNK A   0       1.951  -5.670   3.983  0.00  0.00    +0.201 A 
ATOM     11  N   UNK A   0       2.263  -5.523   2.655  0.00  0.00    -0.312 N 
ATOM     12  C   UNK A   0       2.154  -4.192   2.356  0.00  0.00    +0.167 A 
ATOM     13  N   UNK A   0       2.352  -3.585   1.175  0.00  0.00    -0.195 NA
ENDROOT
BRANCH   6  14
ATOM     14  C   UNK A   0       0.599  -0.264   4.717  0.00  0.00    +0.036 A 
ATOM     15  C   UNK A   0       0.788   0.624   5.784  0.00  0.00    +0.046 A 
ATOM     16  C   UNK A   0       0.147   1.869   5.817  0.00  0.00    +0.028 A 
ATOM     17  C   UNK A   0      -0.803   2.162   4.837  0.00  0.00    +0.042 A 
ATOM     18  C   UNK A   0      -1.022   1.273   3.787  0.00  0.00    +0.044 A 
ATOM     19 CL   UNK A   0      -2.177   1.656   2.569  0.00  0.00    -0.083 Cl
ATOM     20  C   UNK A   0      -0.320   0.074   3.718  0.00  0.00    +0.043 A 
BRANCH  16  21
ATOM     21  N   UNK A   0       0.293   2.710   6.929  0.00  0.00    -0.358 N 
ATOM     22  H   UNK A   0       1.185   2.604   7.403  0.00  0.00    +0.142 HD
ATOM     23  H   UNK A   0       0.081   3.684   6.733  0.00  0.00    +0.142 HD
ENDBRANCH  16  21
ENDBRANCH   6  14
BRANCH  11  24
ATOM     24  C   UNK A   0       2.680  -6.579   1.742  0.00  0.00    +0.084 C 
ATOM     25  C   UNK A   0       1.553  -7.583   1.502  0.00  0.00    +0.030 C 
ATOM     26  C   UNK A   0       3.947  -7.283   2.233  0.00  0.00    +0.030 C 
ENDBRANCH  11  24
BRANCH   1  27
ATOM     27  CA  VAL A   1       2.976  -0.127   0.236  0.00  0.00    +0.101 C 
BRANCH  27  28
ATOM     28  CB  VAL A   1       4.373   0.009   0.914  0.00  0.00    +0.005 C 
ATOM     29  CG2 VAL A   1       4.828   1.463   1.065  0.00  0.00    +0.009 C 
ATOM     30  CG1 VAL A   1       5.462  -0.805   0.204  0.00  0.00    +0.009 C 
ENDBRANCH  27  28
BRANCH  27  31
ATOM     31  C   VAL A   1       2.931   0.511  -1.175  0.00  0.00    +0.178 C 
BRANCH  31  32
ATOM     32  O   VAL A   1       1.597   0.469  -1.695  0.00  0.00    -0.393 OA
ATOM     33  H   VAL A   1       1.312   1.390  -1.829  0.00  0.00    +0.209 HD
ENDBRANCH  31  32
ENDBRANCH  27  31
ENDBRANCH   1  27
TORSDOF 7
