REMARK  Name = 
REMARK  7 active torsions:
REMARK  status: ('A' for Active; 'I' for Inactive)
REMARK    1  A    between atoms: C_2  and  N_3
REMARK    2  A    between atoms: C_2  and  C_4
REMARK    3  A    between atoms: C_2  and  C_11
REMARK    4  A    between atoms: C_4  and  C_5
REMARK    5  A    between atoms: C_17  and  C_19
REMARK    6  A    between atoms: N_21  and  C_22
REMARK    7  A    between atoms: C_22  and  C_23
REMARK                            x       y       z     vdW  Elec       q    Type
REMARK                         _______ _______ _______ _____ _____    ______ ____
ROOT
ATOM      1  C   UNL     1       2.890   0.970  -1.266  0.00  0.00    +0.233 C 
ATOM      2  N   UNL     1       4.274   1.111  -1.235  0.00  0.00    -0.289 N 
ATOM      3  C   UNL     1       5.118  -0.050  -1.568  0.00  0.00    +0.162 C 
ATOM      4  C   UNL     1       6.303   0.552  -2.351  0.00  0.00    +0.033 C 
ATOM      5  C   UNL     1       5.982   2.034  -2.519  0.00  0.00    +0.021 C 
ATOM      6  C   UNL     1       5.040   2.334  -1.373  0.00  0.00    +0.108 C 
ATOM      7  O   UNL     1       2.378  -0.134  -1.071  0.00  0.00    -0.274 OA
ENDROOT
BRANCH   3   8
ATOM      8  C   UNL     1       5.680  -0.882  -0.397  0.00  0.00    +0.234 C 
ATOM      9  N   UNL     1       5.316  -0.487   0.866  0.00  0.00    -0.310 N 
ATOM     10  H   UNL     1       4.701   0.310   0.969  0.00  0.00    +0.149 HD
ATOM     11  O   UNL     1       6.454  -1.817  -0.600  0.00  0.00    -0.274 OA
BRANCH   9  12
ATOM     12  C   UNL     1       5.888  -1.112   2.037  0.00  0.00    +0.139 C 
BRANCH  12  13
ATOM     13  C   UNL     1       4.931  -1.163   3.194  0.00  0.00    -0.030 A 
ATOM     14  C   UNL     1       5.258  -0.583   4.428  0.00  0.00    +0.005 A 
ATOM     15  C   UNL     1       4.398  -0.705   5.522  0.00  0.00    +0.000 A 
ATOM     16  C   UNL     1       3.204  -1.413   5.396  0.00  0.00    +0.000 A 
ATOM     17  C   UNL     1       2.864  -1.991   4.175  0.00  0.00    +0.000 A 
ATOM     18  C   UNL     1       3.723  -1.870   3.081  0.00  0.00    +0.005 A 
ENDBRANCH  12  13
ENDBRANCH   9  12
ENDBRANCH   3   8
BRANCH   1  19
ATOM     19  C   UNL     1       2.053   2.224  -1.667  0.00  0.00    +0.142 C 
BRANCH  19  20
ATOM     20  N   UNL     1       0.650   2.095  -1.226  0.00  0.00    -0.320 NA
ATOM     21  H   UNL     1       0.611   2.084  -0.208  0.00  0.00    +0.119 HD
ATOM     22  H   UNL     1       0.117   2.904  -1.544  0.00  0.00    +0.119 HD
ENDBRANCH  19  20
BRANCH  19  23
ATOM     23  C   UNL     1       2.133   2.351  -3.204  0.00  0.00    +0.063 C 
BRANCH  23  24
ATOM     24  C   UNL     1       1.622   3.632  -3.826  0.00  0.00    -0.045 A 
ATOM     25  C   UNL     1       0.737   3.564  -4.914  0.00  0.00    +0.004 A 
ATOM     26  C   UNL     1       0.349   4.717  -5.596  0.00  0.00    +0.000 A 
ATOM     27  C   UNL     1       0.839   5.958  -5.198  0.00  0.00    +0.000 A 
ATOM     28  C   UNL     1       1.709   6.043  -4.112  0.00  0.00    +0.000 A 
ATOM     29  C   UNL     1       2.103   4.888  -3.431  0.00  0.00    +0.004 A 
ENDBRANCH  23  24
ENDBRANCH  19  23
ENDBRANCH   1  19
TORSDOF 7
