REMARK  Name = 
REMARK  7 active torsions:
REMARK  status: ('A' for Active; 'I' for Inactive)
REMARK    1  A    between atoms: C_1  and  C_2
REMARK    2  A    between atoms: C_2  and  C_3
REMARK    3  A    between atoms: C_2  and  C_4
REMARK    4  A    between atoms: C_2  and  O_5
REMARK    5  A    between atoms: O_5  and  C_6
REMARK    6  A    between atoms: N_8  and  C_9
REMARK    7  A    between atoms: C_9  and  C_10
REMARK                            x       y       z     vdW  Elec       q    Type
REMARK                         _______ _______ _______ _____ _____    ______ ____
ROOT
ATOM      1  C   UNL     1       6.417  -1.884  -4.302  0.00  0.00    +0.002 A 
ATOM      2  C   UNL     1       6.525  -3.269  -4.604  0.00  0.00    +0.088 A 
ATOM      3  C   UNL     1       6.540  -4.471  -3.809  0.00  0.00    +0.262 A 
ATOM      4  N   UNL     1       6.718  -5.613  -4.567  0.00  0.00    -0.295 N 
ATOM      5  H   UNL     1       6.778  -6.469  -4.047  0.00  0.00    +0.172 HD
ATOM      6  C   UNL     1       6.874  -5.617  -5.935  0.00  0.00    +0.195 A 
ATOM      7  N   UNL     1       6.851  -4.542  -6.675  0.00  0.00    -0.198 NA
ATOM      8  N   UNL     1       7.056  -6.833  -6.511  0.00  0.00    -0.329 N 
ATOM      9  H   UNL     1       6.919  -6.814  -7.516  0.00  0.00    +0.145 HD
ATOM     10  H   UNL     1       6.632  -7.634  -6.061  0.00  0.00    +0.145 HD
ATOM     11  O   UNL     1       6.419  -4.503  -2.589  0.00  0.00    -0.267 OA
ATOM     12  C   UNL     1       6.681  -3.404  -5.964  0.00  0.00    +0.147 A 
ATOM     13  N   UNL     1       6.673  -2.156  -6.516  0.00  0.00    -0.345 N 
ATOM     14  H   UNL     1       6.797  -1.967  -7.500  0.00  0.00    +0.167 HD
ATOM     15  C   UNL     1       6.514  -1.222  -5.519  0.00  0.00    +0.090 A 
ENDROOT
BRANCH   1  16
ATOM     16  C   UNL     1       6.305  -1.275  -2.952  0.00  0.00    +0.145 C 
BRANCH  16  18
ATOM     17  C   UNL     1       4.634  -0.480  -1.411  0.00  0.00    +0.401 C 
ATOM     18  N   UNL     1       4.925  -1.045  -2.616  0.00  0.00    -0.277 N 
ATOM     19  H   UNL     1       4.172  -1.413  -3.175  0.00  0.00    +0.152 HD
ATOM     20  O   UNL     1       5.489  -0.110  -0.621  0.00  0.00    -0.226 OA
BRANCH  17  21
ATOM     21  O   UNL     1       3.292  -0.380  -1.233  0.00  0.00    -0.445 OA
BRANCH  21  23
ATOM     22  C   UNL     1       3.276   1.692   0.115  0.00  0.00    +0.055 C 
ATOM     23  C   UNL     1       2.797   0.238  -0.011  0.00  0.00    +0.107 C 
ATOM     24  C   UNL     1       1.264   0.260  -0.132  0.00  0.00    +0.055 C 
ATOM     25  C   UNL     1       3.165  -0.602   1.221  0.00  0.00    +0.055 C 
ENDBRANCH  21  23
ENDBRANCH  17  21
ENDBRANCH  16  18
ENDBRANCH   1  16
TORSDOF 4
