REMARK  Name = 
REMARK  6 active torsions:
REMARK  status: ('A' for Active; 'I' for Inactive)
REMARK    1  A    between atoms: C_2  and  C_19
REMARK    2  A    between atoms: C_10  and  C_11
REMARK    3  A    between atoms: C_12  and  C_13
REMARK    4  A    between atoms: N_16  and  C_17
REMARK    5  A    between atoms: N_16  and  C_18
REMARK    6  A    between atoms: C_21  and  O_22
REMARK                            x       y       z     vdW  Elec       q    Type
REMARK                         _______ _______ _______ _____ _____    ______ ____
ROOT
ATOM      1  C   UNL     1       2.136   0.087  -0.021  0.00  0.00    +0.067 C 
ATOM      2  C   UNL     1       2.451   0.830   1.285  0.00  0.00    -0.034 A 
ATOM      3  C   UNL     1       2.238   2.210   1.387  0.00  0.00    +0.005 A 
ATOM      4  C   UNL     1       2.656   2.911   2.517  0.00  0.00    +0.004 A 
ATOM      5  C   UNL     1       3.296   2.256   3.579  0.00  0.00    -0.047 A 
ATOM      6  C   UNL     1       3.405   0.848   3.556  0.00  0.00    -0.043 A 
ATOM      7  C   UNL     1       3.999   0.094   4.723  0.00  0.00    +0.044 C 
ATOM      8  C   UNL     1       3.843   3.087   4.709  0.00  0.00    +0.044 C 
ATOM      9  C   UNL     1       2.940   0.130   2.417  0.00  0.00    -0.023 A 
ATOM     10  C   UNL     1       2.976  -1.400   2.423  0.00  0.00    +0.145 C 
ATOM     11  N   UNL     1       2.312  -1.993   1.259  0.00  0.00    -0.280 N 
ATOM     12  C   UNL     1       1.351  -2.949   1.501  0.00  0.00    +0.305 C 
ATOM     13  N   UNL     1       0.520  -3.441   0.513  0.00  0.00    -0.292 N 
ATOM     14  C   UNL     1      -0.379  -4.532   0.891  0.00  0.00    +0.133 C 
ATOM     15  C   UNL     1       0.495  -3.155  -0.911  0.00  0.00    +0.133 C 
ATOM     16  O   UNL     1       1.223  -3.383   2.656  0.00  0.00    -0.252 OA
ATOM     17  C   UNL     1       2.738  -1.336   0.032  0.00  0.00    +0.122 C 
ENDROOT
BRANCH   1  18
ATOM     18  C   UNL     1       2.629   0.754  -1.307  0.00  0.00    -0.035 A 
ATOM     19  C   UNL     1       3.881   1.390  -1.380  0.00  0.00    +0.004 A 
ATOM     20  C   UNL     1       4.342   1.928  -2.584  0.00  0.00    +0.004 A 
ATOM     21  C   UNL     1       3.571   1.818  -3.738  0.00  0.00    +0.045 A 
ATOM     22  C   UNL     1       2.342   1.177  -3.681  0.00  0.00    +0.117 A 
ATOM     23  C   UNL     1       1.859   0.655  -2.480  0.00  0.00    +0.049 A 
BRANCH  22  24
ATOM     24  O   UNL     1       1.635   1.061  -4.842  0.00  0.00    -0.507 OA
ATOM     25  H   UNL     1       0.844   0.523  -4.677  0.00  0.00    +0.292 HD
ENDBRANCH  22  24
ENDBRANCH   1  18
TORSDOF 2
