REMARK  Name = 
REMARK  3 active torsions:
REMARK  status: ('A' for Active; 'I' for Inactive)
REMARK    1  A    between atoms: C_2  and  C_3
REMARK    2  A    between atoms: C_3  and  O_4
REMARK    3  A    between atoms: O_4  and  C_5
REMARK                            x       y       z     vdW  Elec       q    Type
REMARK                         _______ _______ _______ _____ _____    ______ ____
ROOT
ATOM      1  C   UNL     1       1.977   0.048   0.193  0.00  0.00    +0.299 C 
ATOM      2  N   UNL     1       2.722  -0.364  -1.001  0.00  0.00    -0.072 NA
ATOM      3  C   UNL     1       2.966   0.466  -1.964  0.00  0.00    +0.321 C 
ATOM      4  N   UNL     1       3.722  -0.071  -2.972  0.00  0.00    -0.246 N 
ATOM      5  H   UNL     1       3.750  -1.083  -2.937  0.00  0.00    +0.288 HD
ATOM      6  H   UNL     1       3.581   0.320  -3.895  0.00  0.00    +0.288 HD
ATOM      7  C   UNL     1       2.458   1.830  -2.007  0.00  0.00    +0.144 A 
ATOM      8  S   UNL     1       2.148   2.504  -3.569  0.00  0.00    -0.086 S 
ATOM      9  C   UNL     1       1.474   3.921  -2.908  0.00  0.00    +0.050 A 
ATOM     10  C   UNL     1       1.551   3.927  -1.537  0.00  0.00    +0.054 A 
ATOM     11  C   UNL     1       2.093   2.717  -1.013  0.00  0.00    +0.143 A 
ATOM     12  O   UNL     1       2.138   2.547   0.330  0.00  0.00    -0.486 OA
ATOM     13  C   UNL     1       2.599   1.300   0.824  0.00  0.00    +0.286 C 
ENDROOT
BRANCH   1  14
ATOM     14  C   UNL     1       0.455   0.095  -0.039  0.00  0.00    +0.286 C 
BRANCH  14  15
ATOM     15  O   UNL     1      -0.159   0.388   1.215  0.00  0.00    -0.487 OA
BRANCH  15  16
ATOM     16  C   UNL     1      -1.517   0.297   1.303  0.00  0.00    +0.121 A 
ATOM     17  C   UNL     1      -2.330  -0.576   0.580  0.00  0.00    +0.050 A 
ATOM     18  C   UNL     1      -3.709  -0.657   0.857  0.00  0.00    -0.027 A 
ATOM     19  C   UNL     1      -4.271   0.186   1.830  0.00  0.00    -0.042 A 
ATOM     20  C   UNL     1      -5.738   0.080   2.166  0.00  0.00    +0.050 C 
ATOM     21  C   UNL     1      -6.529  -0.608   1.051  0.00  0.00    +0.086 C 
ATOM     22  N   UNL     1      -5.895  -1.871   0.673  0.00  0.00    -0.312 NA
ATOM     23  H   UNL     1      -6.475  -2.357  -0.008  0.00  0.00    +0.122 HD
ATOM     24  C   UNL     1      -3.451   1.065   2.547  0.00  0.00    +0.007 A 
ATOM     25  C   UNL     1      -4.574  -1.626   0.078  0.00  0.00    +0.116 C 
ATOM     26  C   UNL     1      -2.083   1.111   2.284  0.00  0.00    +0.046 A 
ENDBRANCH  15  16
ENDBRANCH  14  15
ENDBRANCH   1  14
TORSDOF 3
