REMARK  Name = 
REMARK  15 active torsions:
REMARK  status: ('A' for Active; 'I' for Inactive)
REMARK    1  A    between atoms: C_2  and  C_3
REMARK    2  A    between atoms: C_2  and  C_7
REMARK    3  A    between atoms: C_2  and  C_12
REMARK    4  A    between atoms: C_3  and  C_4
REMARK    5  A    between atoms: C_4  and  C_5
REMARK    6  A    between atoms: C_4  and  C_6
REMARK    7  A    between atoms: C_7  and  C_8
REMARK    8  A    between atoms: N_10  and  O_11
REMARK    9  A    between atoms: N_14  and  C_15
REMARK   10  A    between atoms: C_15  and  C_17
REMARK   11  A    between atoms: C_15  and  C_26
REMARK   12  A    between atoms: C_17  and  C_18
REMARK   13  A    between atoms: C_21  and  O_22
REMARK   14  A    between atoms: O_22  and  C_23
REMARK   15  A    between atoms: N_28  and  C_29
REMARK                            x       y       z     vdW  Elec       q    Type
REMARK                         _______ _______ _______ _____ _____    ______ ____
ROOT
ATOM      1  C   UNL     1       2.595  -1.023  -0.854  0.00  0.00    +0.217 C 
ATOM      2  N   UNL     1       3.824  -0.791  -1.412  0.00  0.00    -0.303 N 
ATOM      3  H   UNL     1       4.472  -0.125  -0.999  0.00  0.00    +0.149 HD
ATOM      4  O   UNL     1       1.818  -1.858  -1.310  0.00  0.00    -0.275 OA
ENDROOT
BRANCH   1   5
ATOM      5  C   UNL     1       2.250  -0.178   0.369  0.00  0.00    +0.084 C 
BRANCH   5   6
ATOM      6  C   UNL     1       0.794  -0.471   0.771  0.00  0.00    +0.110 C 
BRANCH   6   7
ATOM      7  C   UNL     1       0.285   0.421   1.876  0.00  0.00    +0.236 C 
ATOM      8  N   UNL     1      -0.703  -0.154   2.637  0.00  0.00    -0.197 N 
ATOM      9  H   UNL     1      -1.277  -0.924   2.301  0.00  0.00    +0.182 HD
ATOM     10  O   UNL     1       0.682   1.565   2.082  0.00  0.00    -0.274 OA
BRANCH   8  11
ATOM     11  O   UNL     1      -1.283   0.676   3.622  0.00  0.00    -0.295 OA
ATOM     12  H   UNL     1      -0.754   1.499   3.539  0.00  0.00    +0.241 HD
ENDBRANCH   8  11
ENDBRANCH   6   7
ENDBRANCH   5   6
BRANCH   5  13
ATOM     13  C   UNL     1       3.256  -0.360   1.530  0.00  0.00    +0.016 C 
BRANCH  13  14
ATOM     14  C   UNL     1       3.289  -1.736   2.234  0.00  0.00    -0.016 C 
ATOM     15  C   UNL     1       4.204  -1.659   3.461  0.00  0.00    +0.007 C 
ATOM     16  C   UNL     1       3.774  -2.871   1.332  0.00  0.00    +0.007 C 
ENDBRANCH  13  14
ENDBRANCH   5  13
ENDBRANCH   1   5
BRANCH   2  17
ATOM     17  C   UNL     1       4.364  -1.618  -2.496  0.00  0.00    +0.163 C 
BRANCH  17  18
ATOM     18  C   UNL     1       5.846  -1.230  -2.712  0.00  0.00    +0.233 C 
ATOM     19  N   UNL     1       6.511  -1.952  -3.682  0.00  0.00    -0.317 N 
ATOM     20  H   UNL     1       6.030  -2.689  -4.181  0.00  0.00    +0.148 HD
ATOM     21  C   UNL     1       7.858  -1.637  -4.094  0.00  0.00    +0.128 C 
ATOM     22  O   UNL     1       6.392  -0.363  -2.029  0.00  0.00    -0.274 OA
ENDBRANCH  17  18
BRANCH  17  23
ATOM     23  C   UNL     1       3.540  -1.554  -3.797  0.00  0.00    +0.067 C 
BRANCH  23  24
ATOM     24  C   UNL     1       3.408  -0.178  -4.404  0.00  0.00    -0.045 A 
ATOM     25  C   UNL     1       2.337   0.650  -4.047  0.00  0.00    +0.007 A 
ATOM     26  C   UNL     1       2.195   1.918  -4.615  0.00  0.00    +0.046 A 
ATOM     27  C   UNL     1       3.123   2.371  -5.552  0.00  0.00    +0.120 A 
ATOM     28  C   UNL     1       4.210   1.564  -5.887  0.00  0.00    +0.046 A 
ATOM     29  C   UNL     1       4.348   0.293  -5.326  0.00  0.00    +0.007 A 
BRANCH  27  30
ATOM     30  O   UNL     1       3.091   3.599  -6.153  0.00  0.00    -0.495 OA
ATOM     31  C   UNL     1       1.788   4.102  -6.429  0.00  0.00    +0.277 C 
ENDBRANCH  27  30
ENDBRANCH  23  24
ENDBRANCH  17  23
ENDBRANCH   2  17
TORSDOF 11
