REMARK  Name = 
REMARK  3 active torsions:
REMARK  status: ('A' for Active; 'I' for Inactive)
REMARK    1  A    between atoms: O_1  and  C_2
REMARK    2  A    between atoms: C_3  and  O_4
REMARK    3  A    between atoms: C_6  and  C_9
REMARK                            x       y       z     vdW  Elec       q    Type
REMARK                         _______ _______ _______ _____ _____    ______ ____
ROOT
ATOM      1  C   UNL     1       2.372   0.022  -0.054  0.00  0.00    +0.158 A 
ATOM      2  C   UNL     1       3.056  -1.186  -0.124  0.00  0.00    +0.050 A 
ATOM      3  C   UNL     1       4.444  -1.205  -0.314  0.00  0.00    +0.012 A 
ATOM      4  C   UNL     1       5.187  -0.014  -0.419  0.00  0.00    -0.014 A 
ATOM      5  C   UNL     1       4.469   1.193  -0.313  0.00  0.00    +0.057 A 
ATOM      6  C   UNL     1       3.080   1.216  -0.148  0.00  0.00    +0.159 A 
ENDROOT
BRANCH   4   7
ATOM      7  C   UNL     1       6.654  -0.023  -0.648  0.00  0.00    -0.018 A 
ATOM      8  C   UNL     1       7.283   0.990  -1.397  0.00  0.00    +0.008 A 
ATOM      9  C   UNL     1       8.667   0.999  -1.609  0.00  0.00    +0.001 A 
ATOM     10  C   UNL     1       9.456  -0.021  -1.089  0.00  0.00    +0.000 A 
ATOM     11  C   UNL     1       8.863  -1.043  -0.357  0.00  0.00    +0.001 A 
ATOM     12  C   UNL     1       7.481  -1.040  -0.134  0.00  0.00    +0.008 A 
ENDBRANCH   4   7
BRANCH   1  13
ATOM     13  O   UNL     1       1.021  -0.068   0.106  0.00  0.00    -0.503 OA
ATOM     14  H   UNL     1       0.606   0.801   0.064  0.00  0.00    +0.292 HD
ENDBRANCH   1  13
BRANCH   6  15
ATOM     15  O   UNL     1       2.516   2.458  -0.091  0.00  0.00    -0.503 OA
ATOM     16  H   UNL     1       1.554   2.404  -0.090  0.00  0.00    +0.292 HD
ENDBRANCH   6  15
TORSDOF 3
