REMARK  Name = 
REMARK  5 active torsions:
REMARK  status: ('A' for Active; 'I' for Inactive)
REMARK    1  A    between atoms: C_2  and  C_4
REMARK    2  A    between atoms: C_4  and  C_6
REMARK    3  A    between atoms: C_7  and  C_8
REMARK    4  A    between atoms: C_8  and  C_9
REMARK    5  A    between atoms: C_9  and  C_11
REMARK                            x       y       z     vdW  Elec       q    Type
REMARK                         _______ _______ _______ _____ _____    ______ ____
ROOT
ATOM      1  C   UNL     1       6.823  -2.552   0.107  0.00  0.00    +0.107 C 
ENDROOT
BRANCH   1   3
ATOM      2  C   UNL     1       7.234  -0.828   1.862  0.00  0.00    +0.049 C 
ATOM      3  C   UNL     1       6.643  -1.970   1.474  0.00  0.00    -0.015 C 
BRANCH   2   4
ATOM      4  C   UNL     1       7.055  -0.274   3.235  0.00  0.00    +0.201 C 
ATOM      5  O   UNL     1       6.321  -0.799   4.072  0.00  0.00    -0.286 OA
BRANCH   4   7
ATOM      6  O   UNL     1       7.654   1.488   4.786  0.00  0.00    -0.541 OA
ATOM      7  C   UNL     1       7.832   1.004   3.625  0.00  0.00    +0.111 C 
ATOM      8  O   UNL     1       8.607   1.465   2.721  0.00  0.00    -0.541 OA
ENDBRANCH   4   7
ENDBRANCH   2   4
ENDBRANCH   1   3
BRANCH   1   9
ATOM      9  C   UNL     1       7.377  -3.969   0.158  0.00  0.00    +0.167 C 
ATOM     10  O   UNL     1       6.639  -4.953   0.227  0.00  0.00    -0.292 OA
BRANCH   9  11
ATOM     11  C   UNL     1       8.850  -4.173   0.056  0.00  0.00    +0.018 A 
ATOM     12  C   UNL     1       9.319  -5.347  -0.548  0.00  0.00    +0.011 A 
ATOM     13  C   UNL     1      10.692  -5.566  -0.689  0.00  0.00    +0.001 A 
ATOM     14  C   UNL     1      11.600  -4.621  -0.215  0.00  0.00    +0.000 A 
ATOM     15  C   UNL     1      11.139  -3.460   0.405  0.00  0.00    +0.001 A 
ATOM     16  C   UNL     1       9.767  -3.234   0.540  0.00  0.00    +0.011 A 
ENDBRANCH   9  11
ENDBRANCH   1   9
TORSDOF 5
