REMARK  Name = 
REMARK  7 active torsions:
REMARK  status: ('A' for Active; 'I' for Inactive)
REMARK    1  A    between atoms: C_2  and  C_17
REMARK    2  A    between atoms: C_7  and  C_9
REMARK    3  A    between atoms: C_9  and  O_10
REMARK    4  A    between atoms: O_10  and  C_11
REMARK    5  A    between atoms: N_19  and  C_20
REMARK    6  A    between atoms: C_20  and  C_21
REMARK    7  A    between atoms: C_24  and  C_27
REMARK                            x       y       z     vdW  Elec       q    Type
REMARK                         _______ _______ _______ _____ _____    ______ ____
ROOT
ATOM      1  C   UNL     1       2.578   0.109  -1.507  0.00  0.00    +0.234 C 
ATOM      2  N   UNL     1       3.811  -0.363  -1.900  0.00  0.00    -0.310 N 
ATOM      3  H   UNL     1       4.313  -0.964  -1.258  0.00  0.00    +0.149 HD
ATOM      4  O   UNL     1       1.862   0.797  -2.236  0.00  0.00    -0.274 OA
ENDROOT
BRANCH   1   5
ATOM      5  C   UNL     1       2.232  -0.103  -0.018  0.00  0.00    +0.162 C 
ATOM      6  N   UNL     1       2.872  -1.272   0.602  0.00  0.00    -0.288 N 
ATOM      7  C   UNL     1       2.350  -2.551   0.655  0.00  0.00    +0.242 C 
ATOM      8  O   UNL     1       2.841  -3.421   1.378  0.00  0.00    -0.273 OA
ATOM      9  C   UNL     1       3.929  -0.885   1.519  0.00  0.00    +0.109 C 
ATOM     10  C   UNL     1       4.116   0.606   1.306  0.00  0.00    +0.021 C 
ATOM     11  C   UNL     1       2.747   1.071   0.820  0.00  0.00    +0.033 C 
BRANCH   7  12
ATOM     12  C   UNL     1       1.147  -2.870  -0.241  0.00  0.00    +0.256 C 
BRANCH  12  13
ATOM     13  O   UNL     1       1.387  -2.783  -1.635  0.00  0.00    -0.367 OA
BRANCH  13  14
ATOM     14  C   UNL     1       2.416  -3.651  -2.135  0.00  0.00    +0.119 C 
ATOM     15  C   UNL     1       2.555  -3.363  -3.634  0.00  0.00    +0.031 C 
ATOM     16  C   UNL     1       1.307  -3.773  -4.417  0.00  0.00    +0.003 C 
ATOM     17  C   UNL     1       0.927  -5.226  -4.158  0.00  0.00    +0.000 C 
ATOM     18  C   UNL     1       0.826  -5.540  -2.665  0.00  0.00    +0.003 C 
ATOM     19  C   UNL     1       2.103  -5.136  -1.932  0.00  0.00    +0.031 C 
ENDBRANCH  13  14
ENDBRANCH  12  13
ENDBRANCH   7  12
ENDBRANCH   1   5
BRANCH   2  20
ATOM     20  C   UNL     1       4.318  -0.170  -3.240  0.00  0.00    +0.139 C 
BRANCH  20  21
ATOM     21  C   UNL     1       5.078   1.122  -3.367  0.00  0.00    -0.030 A 
ATOM     22  C   UNL     1       4.399   2.307  -3.690  0.00  0.00    +0.006 A 
ATOM     23  C   UNL     1       5.079   3.523  -3.756  0.00  0.00    +0.016 A 
ATOM     24  C   UNL     1       6.451   3.571  -3.491  0.00  0.00    +0.065 A 
ATOM     25  C   UNL     1       7.142   2.389  -3.199  0.00  0.00    +0.016 A 
ATOM     26  C   UNL     1       6.457   1.173  -3.130  0.00  0.00    +0.006 A 
BRANCH  24  27
ATOM     27  C   UNL     1       7.157   4.881  -3.501  0.00  0.00    +0.308 C 
ATOM     28  N   UNL     1       8.190   5.128  -2.759  0.00  0.00    -0.099 NA
ATOM     29  H   UNL     1       8.405   4.340  -2.144  0.00  0.00    +0.363 HD
ATOM     30  N   UNL     1       6.731   5.894  -4.307  0.00  0.00    -0.247 N 
ATOM     31  H   UNL     1       7.418   6.640  -4.347  0.00  0.00    +0.288 HD
ATOM     32  H   UNL     1       6.385   5.628  -5.220  0.00  0.00    +0.288 HD
ENDBRANCH  24  27
ENDBRANCH  20  21
ENDBRANCH   2  20
TORSDOF 7
