REMARK  Name = 
REMARK  18 active torsions:
REMARK  status: ('A' for Active; 'I' for Inactive)
REMARK    1  A    between atoms: C_2  and  C_3
REMARK    2  A    between atoms: C_2  and  C_4
REMARK    3  A    between atoms: C_2  and  C_10
REMARK    4  A    between atoms: C_4  and  C_5
REMARK    5  A    between atoms: C_5  and  C_6
REMARK    6  A    between atoms: C_6  and  C_7
REMARK    7  A    between atoms: C_7  and  C_8
REMARK    8  A    between atoms: C_7  and  C_9
REMARK    9  A    between atoms: C_10  and  C_11
REMARK   10  A    between atoms: C_11  and  C_12
REMARK   11  A    between atoms: C_12  and  C_13
REMARK   12  A    between atoms: C_13  and  C_15
REMARK   13  A    between atoms: C_13  and  C_16
REMARK   14  A    between atoms: C_16  and  C_17
REMARK   15  A    between atoms: C_17  and  O_19
REMARK   16  A    between atoms: C_17  and  P_20
REMARK   17  A    between atoms: P_20  and  O_21
REMARK   18  A    between atoms: P_20  and  O_22
REMARK                            x       y       z     vdW  Elec       q    Type
REMARK                         _______ _______ _______ _____ _____    ______ ____
ROOT
ATOM      1  C   UNL     1       6.058   2.857  -0.479  0.00  0.00    -0.011 C 
ATOM      2  C   UNL     1       6.650   2.019  -1.619  0.00  0.00    +0.007 C 
ENDROOT
BRANCH   1   3
ATOM      3  C   UNL     1       4.509   2.858  -0.504  0.00  0.00    +0.003 C 
BRANCH   3   4
ATOM      4  C   UNL     1       3.956   1.457  -0.287  0.00  0.00    +0.001 C 
BRANCH   4   5
ATOM      5  C   UNL     1       2.433   1.415  -0.169  0.00  0.00    +0.003 C 
BRANCH   5   6
ATOM      6  C   UNL     1       1.904  -0.015   0.073  0.00  0.00    -0.014 C 
ATOM      7  C   UNL     1       2.383  -0.557   1.427  0.00  0.00    +0.007 C 
BRANCH   6   8
ATOM      8  C   UNL     1       2.293  -0.949  -1.090  0.00  0.00    +0.003 C 
BRANCH   8   9
ATOM      9  C   UNL     1       1.730  -2.361  -0.964  0.00  0.00    +0.001 C 
BRANCH   9  10
ATOM     10  C   UNL     1       2.144  -3.222  -2.165  0.00  0.00    +0.003 C 
BRANCH  10  11
ATOM     11  C   UNL     1       1.661  -4.681  -2.048  0.00  0.00    -0.017 C 
ATOM     12  C   UNL     1       2.197  -5.502  -3.219  0.00  0.00    +0.007 C 
ATOM     13  C   UNL     1       0.138  -4.774  -1.991  0.00  0.00    +0.007 C 
ENDBRANCH  10  11
ENDBRANCH   9  10
ENDBRANCH   8   9
ENDBRANCH   6   8
ENDBRANCH   5   6
ENDBRANCH   4   5
ENDBRANCH   3   4
ENDBRANCH   1   3
BRANCH   1  14
ATOM     14  C   UNL     1       6.640   4.277  -0.552  0.00  0.00    +0.047 C 
BRANCH  14  15
ATOM     15  C   UNL     1       6.178   5.181   0.586  0.00  0.00    +0.228 C 
BRANCH  15  16
ATOM     16  P   UNL     1       6.860   6.868   0.396  0.00  0.00    +0.356 P 
ATOM     17  O   UNL     1       7.437   8.296   0.235  0.00  0.00    -0.256 OA
BRANCH  16  18
ATOM     18  O   UNL     1       7.748   6.614   1.772  0.00  0.00    -0.322 OA
ATOM     19  H   UNL     1       7.629   5.718   2.159  0.00  0.00    +0.220 HD
ENDBRANCH  16  18
BRANCH  16  20
ATOM     20  O   UNL     1       5.514   7.427   1.164  0.00  0.00    -0.322 OA
ATOM     21  H   UNL     1       5.688   8.383   1.305  0.00  0.00    +0.220 HD
ENDBRANCH  16  20
ENDBRANCH  15  16
BRANCH  15  22
ATOM     22  O   UNL     1       6.518   4.605   1.865  0.00  0.00    -0.380 OA
ATOM     23  H   UNL     1       5.816   4.914   2.476  0.00  0.00    +0.211 HD
ENDBRANCH  15  22
ENDBRANCH  14  15
ENDBRANCH   1  14
TORSDOF 14
