REMARK  Name = 
REMARK  6 active torsions:
REMARK  status: ('A' for Active; 'I' for Inactive)
REMARK    1  A    between atoms: C_2  and  C_3
REMARK    2  A    between atoms: C_2  and  C_16
REMARK    3  A    between atoms: C_2  and  P_26
REMARK    4  A    between atoms: N_5  and  C_6
REMARK    5  A    between atoms: P_26  and  O_27
REMARK    6  A    between atoms: P_26  and  O_28
REMARK                            x       y       z     vdW  Elec       q    Type
REMARK                         _______ _______ _______ _____ _____    ______ ____
ROOT
ATOM      1  C   UNL     1       2.051   0.063   0.076  0.00  0.00    +0.220 C 
ENDROOT
BRANCH   1   2
ATOM      2  C   UNL     1       2.530  -0.268   1.494  0.00  0.00    -0.009 A 
ATOM      3  C   UNL     1       1.781  -1.052   2.476  0.00  0.00    -0.005 A 
ATOM      4  C   UNL     1       0.535  -1.734   2.376  0.00  0.00    +0.029 A 
ATOM      5  C   UNL     1       0.010  -2.426   3.475  0.00  0.00    +0.042 A 
ATOM      6  C   UNL     1       0.677  -2.442   4.692  0.00  0.00    +0.021 A 
ATOM      7  C   UNL     1       1.898  -1.785   4.823  0.00  0.00    +0.017 A 
ATOM      8 CL   UNL     1      -1.479  -3.276   3.313  0.00  0.00    -0.084 Cl
ATOM      9  C   UNL     1       2.430  -1.108   3.708  0.00  0.00    +0.020 A 
ATOM     10  S   UNL     1       3.941  -0.279   3.667  0.00  0.00    -0.096 S 
ATOM     11  C   UNL     1       3.733   0.159   2.037  0.00  0.00    +0.051 A 
ENDBRANCH   1   2
BRANCH   1  12
ATOM     12  C   UNL     1       2.529   1.439  -0.352  0.00  0.00    +0.236 C 
ATOM     13  N   UNL     1       1.678   2.515  -0.205  0.00  0.00    -0.284 N 
ATOM     14  H   UNL     1       2.191   3.376  -0.054  0.00  0.00    +0.155 HD
ATOM     15  O   UNL     1       3.683   1.628  -0.749  0.00  0.00    -0.274 OA
BRANCH  13  16
ATOM     16  C   UNL     1       0.404   2.398   0.365  0.00  0.00    +0.034 A 
ATOM     17  C   UNL     1      -0.651   1.912  -0.413  0.00  0.00    +0.031 A 
ATOM     18  C   UNL     1      -1.914   1.706   0.159  0.00  0.00    -0.016 A 
ATOM     19  C   UNL     1      -2.097   1.973   1.536  0.00  0.00    -0.018 A 
ATOM     20  C   UNL     1      -3.354   1.753   2.114  0.00  0.00    +0.008 A 
ATOM     21  C   UNL     1      -4.421   1.286   1.345  0.00  0.00    +0.001 A 
ATOM     22  C   UNL     1      -4.245   1.027  -0.014  0.00  0.00    +0.001 A 
ATOM     23  C   UNL     1      -1.017   2.455   2.299  0.00  0.00    +0.010 A 
ATOM     24  C   UNL     1      -2.995   1.233  -0.597  0.00  0.00    +0.008 A 
ATOM     25  C   UNL     1       0.222   2.694   1.711  0.00  0.00    +0.024 A 
ENDBRANCH  13  16
ENDBRANCH   1  12
BRANCH   1  26
ATOM     26  P   UNL     1       2.661  -1.207  -1.092  0.00  0.00    +0.344 P 
ATOM     27  O   UNL     1       3.178  -2.282  -2.080  0.00  0.00    -0.258 OA
BRANCH  26  28
ATOM     28  O   UNL     1       1.842  -0.392  -2.270  0.00  0.00    -0.323 OA
ATOM     29  H   UNL     1       2.396  -0.332  -3.074  0.00  0.00    +0.220 HD
ENDBRANCH  26  28
BRANCH  26  30
ATOM     30  O   UNL     1       1.437  -2.207  -0.633  0.00  0.00    -0.323 OA
ATOM     31  H   UNL     1       1.505  -3.007  -1.194  0.00  0.00    +0.220 HD
ENDBRANCH  26  30
ENDBRANCH   1  26
TORSDOF 6
