REMARK  Name = 
REMARK  12 active torsions:
REMARK  status: ('A' for Active; 'I' for Inactive)
REMARK    1  A    between atoms: C_2  and  N_3
REMARK    2  A    between atoms: C_2  and  C_4
REMARK    3  A    between atoms: C_2  and  C_10
REMARK    4  A    between atoms: C_4  and  C_5
REMARK    5  A    between atoms: C_5  and  S_6
REMARK    6  A    between atoms: S_6  and  C_7
REMARK    7  A    between atoms: C_7  and  C_8
REMARK    8  A    between atoms: C_7  and  C_9
REMARK    9  A    between atoms: C_10  and  O_12
REMARK   10  A    between atoms: C_10  and  C_13
REMARK   11  A    between atoms: N_15  and  N_16
REMARK   12  A    between atoms: C_17  and  C_19
REMARK                            x       y       z     vdW  Elec       q    Type
REMARK                         _______ _______ _______ _____ _____    ______ ____
ROOT
ATOM      1  C   UNL     1       4.327   1.174  -0.702  0.00  0.00    +0.259 C 
ATOM      2  N   UNL     1       4.921   2.394  -0.955  0.00  0.00    -0.232 N 
ATOM      3  H   UNL     1       4.393   3.268  -0.918  0.00  0.00    +0.173 HD
ATOM      4  O   UNL     1       4.981   0.155  -0.496  0.00  0.00    -0.271 OA
ENDROOT
BRANCH   2   5
ATOM      5  N   UNL     1       6.317   2.478  -0.878  0.00  0.00    -0.230 N 
ATOM      6  H   UNL     1       6.813   1.610  -0.681  0.00  0.00    +0.173 HD
ATOM      7  C   UNL     1       6.908   3.724  -0.911  0.00  0.00    +0.260 C 
ATOM      8  O   UNL     1       6.257   4.766  -0.948  0.00  0.00    -0.269 OA
BRANCH   7   9
ATOM      9  C   UNL     1       8.396   3.763  -0.887  0.00  0.00    +0.040 A 
ATOM     10  C   UNL     1       9.178   2.720  -1.406  0.00  0.00    +0.013 A 
ATOM     11  C   UNL     1      10.573   2.822  -1.404  0.00  0.00    +0.002 A 
ATOM     12  C   UNL     1      11.190   3.962  -0.887  0.00  0.00    +0.020 A 
ATOM     13  C   UNL     1      10.411   5.000  -0.378  0.00  0.00    +0.042 A 
ATOM     14 CL   UNL     1      11.175   6.408   0.251  0.00  0.00    -0.084 Cl
ATOM     15  C   UNL     1       9.020   4.910  -0.380  0.00  0.00    +0.033 A 
ENDBRANCH   7   9
ENDBRANCH   2   5
BRANCH   1  16
ATOM     16  C   UNL     1       2.790   1.190  -0.755  0.00  0.00    +0.218 C 
BRANCH  16  17
ATOM     17  O   UNL     1       2.294   2.438  -0.234  0.00  0.00    -0.381 OA
ATOM     18  H   UNL     1       2.408   2.395   0.733  0.00  0.00    +0.210 HD
ENDBRANCH  16  17
BRANCH  16  19
ATOM     19  C   UNL     1       2.240   1.006  -2.195  0.00  0.00    +0.089 C 
BRANCH  19  20
ATOM     20  N   UNL     1       0.760   0.995  -2.141  0.00  0.00    -0.325 NA
ATOM     21  H   UNL     1       0.465   1.802  -1.583  0.00  0.00    +0.119 HD
ATOM     22  H   UNL     1       0.369   1.141  -3.070  0.00  0.00    +0.119 HD
ENDBRANCH  19  20
BRANCH  19  23
ATOM     23  C   UNL     1       2.760  -0.282  -2.859  0.00  0.00    +0.032 C 
BRANCH  23  24
ATOM     24  C   UNL     1       2.271  -0.482  -4.296  0.00  0.00    +0.071 C 
BRANCH  24  25
ATOM     25  S   UNL     1       3.078  -1.966  -4.989  0.00  0.00    -0.158 S 
BRANCH  25  26
ATOM     26  C   UNL     1       2.299  -2.042  -6.646  0.00  0.00    +0.040 C 
ATOM     27  C   UNL     1       2.780  -3.322  -7.326  0.00  0.00    +0.018 C 
ATOM     28  C   UNL     1       2.659  -0.825  -7.492  0.00  0.00    +0.018 C 
ENDBRANCH  25  26
ENDBRANCH  24  25
ENDBRANCH  23  24
ENDBRANCH  19  23
ENDBRANCH  16  19
ENDBRANCH   1  16
TORSDOF 10
