REMARK  Name = 
REMARK  5 active torsions:
REMARK  status: ('A' for Active; 'I' for Inactive)
REMARK    1  A    between atoms: C_1  and  O_2
REMARK    2  A    between atoms: O_2  and  C_3
REMARK    3  A    between atoms: C_5  and  C_10
REMARK    4  A    between atoms: C_8  and  O_9
REMARK    5  A    between atoms: C_17  and  C_18
REMARK                            x       y       z     vdW  Elec       q    Type
REMARK                         _______ _______ _______ _____ _____    ______ ____
ROOT
ATOM      1  C   UNL     1       4.791  -0.318  -4.460  0.00  0.00    -0.016 A 
ATOM      2  C   UNL     1       5.386  -0.972  -5.573  0.00  0.00    +0.009 A 
ATOM      3  C   UNL     1       5.742  -0.289  -6.764  0.00  0.00    +0.011 A 
ATOM      4  C   UNL     1       5.505   1.070  -6.845  0.00  0.00    +0.008 A 
ATOM      5  C   UNL     1       5.671   2.122  -7.882  0.00  0.00    +0.048 C 
ATOM      6  C   UNL     1       5.108   3.390  -7.268  0.00  0.00    +0.249 C 
ATOM      7  N   UNL     1       4.734   3.053  -5.989  0.00  0.00    -0.281 N 
ATOM      8  H   UNL     1       4.301   3.712  -5.363  0.00  0.00    +0.155 HD
ATOM      9  O   UNL     1       4.932   4.483  -7.770  0.00  0.00    -0.270 OA
ATOM     10  C   UNL     1       6.236   1.972  -9.098  0.00  0.00    +0.039 C 
ATOM     11  C   UNL     1       4.933   1.707  -5.744  0.00  0.00    +0.042 A 
ATOM     12  C   UNL     1       4.572   1.062  -4.578  0.00  0.00    +0.032 A 
ENDROOT
BRANCH   1  17
ATOM     13  C   UNL     1       3.586  -3.012  -2.005  0.00  0.00    +0.162 A 
ATOM     14  C   UNL     1       3.595  -2.302  -0.801  0.00  0.00    +0.158 A 
ATOM     15  C   UNL     1       4.005  -0.974  -0.783  0.00  0.00    +0.050 A 
ATOM     16  C   UNL     1       4.416  -0.356  -1.967  0.00  0.00    +0.012 A 
ATOM     17  C   UNL     1       4.395  -1.023  -3.209  0.00  0.00    -0.014 A 
ATOM     18  C   UNL     1       3.954  -2.359  -3.197  0.00  0.00    +0.058 A 
BRANCH  13  20
ATOM     19  C   UNL     1       3.589  -5.197  -1.115  0.00  0.00    +0.277 C 
ATOM     20  O   UNL     1       3.194  -4.317  -2.164  0.00  0.00    -0.491 OA
ENDBRANCH  13  20
BRANCH  14  21
ATOM     21  O   UNL     1       3.185  -2.878   0.367  0.00  0.00    -0.503 OA
ATOM     22  H   UNL     1       3.275  -2.237   1.091  0.00  0.00    +0.292 HD
ENDBRANCH  14  21
ENDBRANCH   1  17
BRANCH  10  23
ATOM     23  C   UNL     1       6.428   2.997 -10.072  0.00  0.00    +0.040 A 
ATOM     24  N   UNL     1       5.547   4.050 -10.199  0.00  0.00    -0.361 N 
ATOM     25  H   UNL     1       4.764   4.228  -9.581  0.00  0.00    +0.165 HD
ATOM     26  C   UNL     1       5.987   4.938 -11.145  0.00  0.00    +0.083 A 
ATOM     27  C   UNL     1       7.126   4.419 -11.707  0.00  0.00    +0.019 A 
ATOM     28  C   UNL     1       7.385   3.182 -11.058  0.00  0.00    +0.027 A 
ENDBRANCH  10  23
TORSDOF 4
