REMARK  Name = 
REMARK  9 active torsions:
REMARK  status: ('A' for Active; 'I' for Inactive)
REMARK    1  A    between atoms: C_2  and  C_3
REMARK    2  A    between atoms: C_2  and  C_4
REMARK    3  A    between atoms: C_2  and  C_15
REMARK    4  A    between atoms: C_5  and  C_6
REMARK    5  A    between atoms: C_7  and  C_8
REMARK    6  A    between atoms: C_17  and  O_18
REMARK    7  A    between atoms: O_18  and  C_19
REMARK    8  A    between atoms: C_21  and  C_23
REMARK    9  A    between atoms: C_26  and  C_27
REMARK                            x       y       z     vdW  Elec       q    Type
REMARK                         _______ _______ _______ _____ _____    ______ ____
ROOT
ATOM      1  C   UNL     1       2.165   0.135  -0.135  0.00  0.00    +0.091 C 
ATOM      2  C   UNL     1       0.651   0.317  -0.293  0.00  0.00    +0.026 C 
ENDROOT
BRANCH   1   3
ATOM      3  C   UNL     1       2.615   0.612   1.237  0.00  0.00    -0.029 A 
ATOM      4  C   UNL     1       3.101  -0.307   2.185  0.00  0.00    +0.013 A 
ATOM      5  C   UNL     1       3.433   0.079   3.500  0.00  0.00    -0.014 A 
ATOM      6  C   UNL     1       3.280   1.442   3.830  0.00  0.00    +0.054 A 
ATOM      7  C   UNL     1       2.840   2.381   2.895  0.00  0.00    +0.121 A 
ATOM      8  C   UNL     1       2.506   1.960   1.609  0.00  0.00    +0.050 A 
BRANCH   5   9
ATOM      9  C   UNL     1       3.892  -0.905   4.516  0.00  0.00    -0.018 A 
ATOM     10  C   UNL     1       4.777  -0.540   5.548  0.00  0.00    +0.009 A 
ATOM     11  C   UNL     1       5.162  -1.444   6.545  0.00  0.00    +0.004 A 
ATOM     12  C   UNL     1       4.689  -2.756   6.533  0.00  0.00    -0.050 A 
ATOM     13  C   UNL     1       5.089  -3.709   7.619  0.00  0.00    +0.044 C 
ATOM     14  C   UNL     1       3.837  -3.151   5.500  0.00  0.00    +0.004 A 
ATOM     15  C   UNL     1       3.441  -2.237   4.515  0.00  0.00    +0.009 A 
ENDBRANCH   5   9
BRANCH   7  16
ATOM     16  O   UNL     1       2.676   3.722   3.118  0.00  0.00    -0.495 OA
ATOM     17  C   UNL     1       3.026   4.207   4.409  0.00  0.00    +0.277 C 
ENDBRANCH   7  16
ENDBRANCH   1   3
BRANCH   1  18
ATOM     18  C   UNL     1       2.877   0.823  -1.231  0.00  0.00    -0.089 C 
ATOM     19  C   UNL     1       3.427   1.418  -2.119  0.00  0.00    -0.060 C 
BRANCH  19  20
ATOM     20  C   UNL     1       4.067   2.188  -3.145  0.00  0.00    +0.085 A 
ATOM     21  C   UNL     1       4.660   1.601  -4.257  0.00  0.00    +0.137 A 
ATOM     22  N   UNL     1       4.619   0.218  -4.479  0.00  0.00    -0.342 N 
ATOM     23  H   UNL     1       4.928  -0.300  -3.665  0.00  0.00    +0.144 HD
ATOM     24  H   UNL     1       5.186   0.025  -5.301  0.00  0.00    +0.144 HD
ATOM     25  N   UNL     1       5.265   2.309  -5.225  0.00  0.00    -0.199 NA
ATOM     26  C   UNL     1       5.300   3.632  -5.071  0.00  0.00    +0.215 A 
ATOM     27  N   UNL     1       5.910   4.381  -6.058  0.00  0.00    -0.327 N 
ATOM     28  H   UNL     1       5.892   3.872  -6.929  0.00  0.00    +0.145 HD
ATOM     29  H   UNL     1       5.520   5.314  -6.057  0.00  0.00    +0.145 HD
ATOM     30  N   UNL     1       4.750   4.299  -4.056  0.00  0.00    -0.219 NA
ATOM     31  C   UNL     1       4.141   3.571  -3.090  0.00  0.00    +0.060 A 
ATOM     32  C   UNL     1       3.540   4.383  -1.979  0.00  0.00    +0.067 C 
ENDBRANCH  19  20
ENDBRANCH   1  18
TORSDOF 5
