REMARK  Name = 
REMARK  6 active torsions:
REMARK  status: ('A' for Active; 'I' for Inactive)
REMARK    1  A    between atoms: C_1  and  C_2
REMARK    2  A    between atoms: C_2  and  C_3
REMARK    3  A    between atoms: C_2  and  C_4
REMARK    4  A    between atoms: C_2  and  C_6
REMARK    5  A    between atoms: N_8  and  C_9
REMARK    6  A    between atoms: C_12  and  C_15
REMARK                            x       y       z     vdW  Elec       q    Type
REMARK                         _______ _______ _______ _____ _____    ______ ____
ROOT
ATOM      1  C   UNL     1       4.658  -2.504  -1.962  0.00  0.00    +0.033 A 
ATOM      2  C   UNL     1       4.345  -3.813  -1.589  0.00  0.00    +0.024 A 
ATOM      3  C   UNL     1       4.658  -4.875  -2.433  0.00  0.00    +0.014 A 
ATOM      4  C   UNL     1       5.284  -4.640  -3.663  0.00  0.00    +0.055 A 
ATOM      5  C   UNL     1       5.693  -3.334  -3.979  0.00  0.00    +0.014 A 
ATOM      6  C   UNL     1       5.400  -2.272  -3.119  0.00  0.00    +0.024 A 
ENDROOT
BRANCH   1   8
ATOM      7  C   UNL     1       2.940  -1.376  -0.632  0.00  0.00    +0.224 C 
ATOM      8  N   UNL     1       4.194  -1.397  -1.226  0.00  0.00    -0.285 N 
ATOM      9  H   UNL     1       4.600  -0.494  -1.452  0.00  0.00    +0.155 HD
ATOM     10  O   UNL     1       2.110  -2.278  -0.753  0.00  0.00    -0.275 OA
BRANCH   7  12
ATOM     11  C   UNL     1       3.719   0.304   1.091  0.00  0.00    +0.022 C 
ATOM     12  C   UNL     1       2.592  -0.086   0.122  0.00  0.00    +0.055 C 
ATOM     13  C   UNL     1       1.330  -0.379   0.969  0.00  0.00    +0.022 C 
BRANCH  12  14
ATOM     14  C   UNL     1       2.238   1.041  -0.868  0.00  0.00    +0.124 C 
ATOM     15 CL   UNL     1       3.607   1.601  -1.868  0.00  0.00    -0.124 Cl
ENDBRANCH  12  14
ENDBRANCH   7  12
ENDBRANCH   1   8
BRANCH   4  16
ATOM     16  C   UNL     1       5.456  -5.780  -4.638  0.00  0.00    +0.417 C 
ATOM     17  F   UNL     1       4.280  -6.410  -4.911  0.00  0.00    -0.166 F 
ATOM     18  F   UNL     1       6.299  -6.742  -4.178  0.00  0.00    -0.166 F 
ATOM     19  F   UNL     1       5.953  -5.387  -5.844  0.00  0.00    -0.166 F 
ENDBRANCH   4  16
TORSDOF 4
