REMARK  Name = 
REMARK  10 active torsions:
REMARK  status: ('A' for Active; 'I' for Inactive)
REMARK    1  A    between atoms: O_1  and  C_2
REMARK    2  A    between atoms: C_2  and  C_4
REMARK    3  A    between atoms: C_4  and  O_5
REMARK    4  A    between atoms: O_5  and  C_6
REMARK    5  A    between atoms: C_7  and  C_26
REMARK    6  A    between atoms: C_9  and  C_12
REMARK    7  A    between atoms: C_16  and  N_17
REMARK    8  A    between atoms: N_17  and  C_18
REMARK    9  A    between atoms: C_18  and  C_19
REMARK   10  A    between atoms: C_26  and  O_27
REMARK                            x       y       z     vdW  Elec       q    Type
REMARK                         _______ _______ _______ _____ _____    ______ ____
ROOT
ATOM      1  C   UNL     1       5.277   1.885  -1.538  0.00  0.00    +0.157 A 
ATOM      2  C   UNL     1       6.199   1.362  -2.521  0.00  0.00    +0.075 A 
ATOM      3 BR   UNL     1       5.897  -0.250  -3.508  0.00  0.00    -0.045 Br
ATOM      4  C   UNL     1       7.329   2.151  -2.699  0.00  0.00    +0.038 A 
ATOM      5  S   UNL     1       7.260   3.506  -1.642  0.00  0.00    -0.077 S 
ATOM      6  C   UNL     1       5.750   3.059  -0.973  0.00  0.00    +0.139 A 
ENDROOT
BRANCH   4   7
ATOM      7  C   UNL     1       8.502   2.008  -3.603  0.00  0.00    -0.008 A 
ATOM      8  C   UNL     1       9.028   0.742  -3.929  0.00  0.00    +0.032 A 
ATOM      9  C   UNL     1      10.075   0.565  -4.849  0.00  0.00    +0.028 A 
ATOM     10  C   UNL     1      10.618   1.706  -5.441  0.00  0.00    +0.023 A 
ATOM     11  C   UNL     1      10.167   2.978  -5.093  0.00  0.00    +0.002 A 
ATOM     12  C   UNL     1       9.114   3.126  -4.190  0.00  0.00    +0.009 A 
BRANCH   9  13
ATOM     13  N   UNL     1      10.436  -0.736  -5.232  0.00  0.00    -0.340 N 
ATOM     14  H   UNL     1      10.081  -1.447  -4.597  0.00  0.00    +0.146 HD
BRANCH  13  15
ATOM     15  C   UNL     1      11.835  -0.967  -5.573  0.00  0.00    +0.136 C 
BRANCH  15  16
ATOM     16  C   UNL     1      12.067  -2.430  -5.865  0.00  0.00    -0.030 A 
ATOM     17  C   UNL     1      12.320  -3.336  -4.825  0.00  0.00    +0.005 A 
ATOM     18  C   UNL     1      12.558  -4.683  -5.104  0.00  0.00    +0.000 A 
ATOM     19  C   UNL     1      12.542  -5.138  -6.422  0.00  0.00    +0.000 A 
ATOM     20  C   UNL     1      12.280  -4.249  -7.462  0.00  0.00    +0.000 A 
ATOM     21  C   UNL     1      12.036  -2.903  -7.185  0.00  0.00    +0.005 A 
ENDBRANCH  15  16
ENDBRANCH  13  15
ENDBRANCH   9  13
ENDBRANCH   4   7
BRANCH   6  22
ATOM     22  C   UNL     1       5.182   3.941   0.042  0.00  0.00    +0.347 C 
ATOM     23  O   UNL     1       5.662   5.003   0.421  0.00  0.00    -0.244 OA
BRANCH  22  24
ATOM     24  O   UNL     1       4.016   3.488   0.569  0.00  0.00    -0.477 OA
ATOM     25  H   UNL     1       3.707   2.642   0.193  0.00  0.00    +0.295 HD
ENDBRANCH  22  24
ENDBRANCH   6  22
BRANCH   1  26
ATOM     26  O   UNL     1       4.088   1.400  -1.074  0.00  0.00    -0.478 OA
BRANCH  26  27
ATOM     27  C   UNL     1       3.323   0.624  -1.983  0.00  0.00    +0.349 C 
BRANCH  27  28
ATOM     28  C   UNL     1       1.855   0.574  -1.606  0.00  0.00    +0.343 C 
ATOM     29  O   UNL     1       1.375   1.123  -0.624  0.00  0.00    -0.247 OA
BRANCH  28  30
ATOM     30  O   UNL     1       1.112  -0.152  -2.473  0.00  0.00    -0.478 OA
ATOM     31  H   UNL     1       1.606  -0.542  -3.219  0.00  0.00    +0.295 HD
ENDBRANCH  28  30
ENDBRANCH  27  28
ENDBRANCH  26  27
ENDBRANCH   1  26
TORSDOF 10
