REMARK  Name = 
REMARK  10 active torsions:
REMARK  status: ('A' for Active; 'I' for Inactive)
REMARK    1  A    between atoms: C_2  and  N_3
REMARK    2  A    between atoms: C_2  and  C_12
REMARK    3  A    between atoms: C_2  and  C_15
REMARK    4  A    between atoms: N_6  and  C_7
REMARK    5  A    between atoms: C_12  and  C_13
REMARK    6  A    between atoms: C_12  and  C_14
REMARK    7  A    between atoms: C_20  and  N_22
REMARK    8  A    between atoms: C_23  and  C_25
REMARK    9  A    between atoms: C_28  and  C_30
REMARK   10  A    between atoms: C_30  and  C_34
REMARK                            x       y       z     vdW  Elec       q    Type
REMARK                         _______ _______ _______ _____ _____    ______ ____
ROOT
ATOM      1  C   UNL     1       2.798   0.522   1.475  0.00  0.00    +0.237 C 
ATOM      2  N   UNL     1       4.174   0.599   1.683  0.00  0.00    -0.294 N 
ATOM      3  C   UNL     1       5.052  -0.584   1.783  0.00  0.00    +0.109 C 
ATOM      4  C   UNL     1       6.469  -0.072   1.400  0.00  0.00    +0.096 C 
ATOM      5  C   UNL     1       6.337   1.434   1.175  0.00  0.00    +0.043 C 
ATOM      6  C   UNL     1       4.948   1.820   1.634  0.00  0.00    +0.110 C 
ATOM      7  O   UNL     1       2.233  -0.549   1.234  0.00  0.00    -0.274 OA
ENDROOT
BRANCH   3   8
ATOM      8  C   UNL     1       5.025  -1.121   3.242  0.00  0.00    +0.046 C 
ATOM      9  C   UNL     1       5.550  -2.606   3.402  0.00  0.00    +0.016 C 
ATOM     10  C   UNL     1       4.431  -2.808   4.448  0.00  0.00    +0.002 C 
ATOM     11  C   UNL     1       3.644  -1.726   3.693  0.00  0.00    +0.016 C 
BRANCH   8  12
ATOM     12  C   UNL     1       5.714  -0.139   4.299  0.00  0.00    +0.232 C 
ATOM     13  O   UNL     1       5.349   0.970   4.685  0.00  0.00    -0.300 OA
ENDBRANCH   8  12
ENDBRANCH   3   8
BRANCH   4  14
ATOM     14  N   UNL     1       7.014  -0.705   0.203  0.00  0.00    -0.310 N 
ATOM     15  H   UNL     1       6.770  -0.334  -0.708  0.00  0.00    +0.149 HD
ATOM     16  C   UNL     1       7.818  -1.812   0.276  0.00  0.00    +0.216 C 
ATOM     17  O   UNL     1       8.104  -2.377   1.326  0.00  0.00    -0.276 OA
BRANCH  16  18
ATOM     18  C   UNL     1       8.375  -2.257  -1.031  0.00  0.00    +0.075 C 
ATOM     19  C   UNL     1       9.165  -3.540  -1.137  0.00  0.00    +0.013 C 
ATOM     20  C   UNL     1       9.872  -2.222  -1.249  0.00  0.00    +0.013 C 
ENDBRANCH  16  18
ENDBRANCH   4  14
BRANCH   1  21
ATOM     21  C   UNL     1       1.965   1.844   1.544  0.00  0.00    +0.163 C 
BRANCH  21  22
ATOM     22  N   UNL     1       0.879   1.764   0.558  0.00  0.00    -0.288 N 
ATOM     23  H   UNL     1       0.626   0.835   0.247  0.00  0.00    +0.151 HD
ATOM     24  C   UNL     1       0.646   2.817  -0.288  0.00  0.00    +0.300 C 
ATOM     25  N   UNL     1      -0.332   2.544  -1.207  0.00  0.00    -0.297 N 
ATOM     26  H   UNL     1      -0.988   1.825  -0.941  0.00  0.00    +0.151 HD
ATOM     27  O   UNL     1       1.246   3.882  -0.229  0.00  0.00    -0.253 OA
BRANCH  25  28
ATOM     28  C   UNL     1      -0.803   3.589  -2.096  0.00  0.00    +0.074 C 
ATOM     29  C   UNL     1      -1.899   4.460  -1.471  0.00  0.00    +0.022 C 
ATOM     30  C   UNL     1      -2.816   4.876  -2.624  0.00  0.00    +0.002 C 
ATOM     31  C   UNL     1      -2.238   4.234  -3.880  0.00  0.00    +0.002 C 
ATOM     32  C   UNL     1      -1.449   3.041  -3.363  0.00  0.00    +0.022 C 
ENDBRANCH  25  28
ENDBRANCH  21  22
BRANCH  21  33
ATOM     33  C   UNL     1       1.425   2.246   2.938  0.00  0.00    +0.012 C 
ATOM     34  C   UNL     1       2.539   2.516   3.943  0.00  0.00    +0.009 C 
ATOM     35  C   UNL     1       0.425   1.261   3.545  0.00  0.00    +0.009 C 
ENDBRANCH  21  33
ENDBRANCH   1  21
TORSDOF 8
