REMARK  Name = 
REMARK  0 active torsions:
REMARK  status: ('A' for Active; 'I' for Inactive)
REMARK                            x       y       z     vdW  Elec       q    Type
REMARK                         _______ _______ _______ _____ _____    ______ ____
ROOT
ATOM      1 BR   UNL     1       1.158  -0.784   0.058  0.00  0.00    -0.050 Br
ATOM      2  C   UNL     1       3.004  -0.365   0.054  0.00  0.00    +0.019 A 
ATOM      3  C   UNL     1       3.953  -1.394   0.054  0.00  0.00    +0.017 A 
ATOM      4  C   UNL     1       5.315  -1.093   0.049  0.00  0.00    +0.025 A 
ATOM      5  C   UNL     1       5.677   0.244   0.046  0.00  0.00    +0.042 A 
ATOM      6  N   UNL     1       6.975   0.746   0.040  0.00  0.00    -0.281 N 
ATOM      7  H   UNL     1       7.820   0.197   0.038  0.00  0.00    +0.155 HD
ATOM      8  C   UNL     1       6.975   2.133   0.036  0.00  0.00    +0.251 C 
ATOM      9  C   UNL     1       5.520   2.536   0.042  0.00  0.00    +0.071 C 
ATOM     10  C   UNL     1       5.192   3.838   0.041  0.00  0.00    +0.092 C 
ATOM     11  C   UNL     1       3.779   4.389   0.055  0.00  0.00    +0.210 C 
ATOM     12  O   UNL     1       2.704   3.834   0.065  0.00  0.00    -0.285 OA
ATOM     13  C   UNL     1       3.924   5.844   0.064  0.00  0.00    +0.045 A 
ATOM     14  C   UNL     1       2.933   6.805   0.074  0.00  0.00    +0.013 A 
ATOM     15  C   UNL     1       3.353   8.130   0.072  0.00  0.00    +0.001 A 
ATOM     16  C   UNL     1       4.728   8.439   0.061  0.00  0.00    +0.002 A 
ATOM     17  C   UNL     1       5.708   7.430   0.051  0.00  0.00    +0.024 A 
ATOM     18  C   UNL     1       5.292   6.118   0.057  0.00  0.00    +0.042 A 
ATOM     19  N   UNL     1       6.032   4.946   0.026  0.00  0.00    -0.310 N 
ATOM     20  H   UNL     1       7.041   4.852   0.061  0.00  0.00    +0.152 HD
ATOM     21  O   UNL     1       7.948   2.868   0.035  0.00  0.00    -0.270 OA
ATOM     22  C   UNL     1       4.741   1.286   0.048  0.00  0.00    +0.011 A 
ATOM     23  C   UNL     1       3.393   0.976   0.050  0.00  0.00    +0.025 A 
ENDROOT
TORSDOF 0
