REMARK  Name = 
REMARK  11 active torsions:
REMARK  status: ('A' for Active; 'I' for Inactive)
REMARK    1  A    between atoms: C_2  and  C_3
REMARK    2  A    between atoms: C_2  and  N_15
REMARK    3  A    between atoms: C_2  and  C_29
REMARK    4  A    between atoms: C_3  and  S_4
REMARK    5  A    between atoms: S_4  and  C_7
REMARK    6  A    between atoms: C_7  and  C_8
REMARK    7  A    between atoms: N_15  and  C_16
REMARK    8  A    between atoms: C_16  and  C_18
REMARK    9  A    between atoms: C_16  and  C_25
REMARK   10  A    between atoms: N_31  and  C_32
REMARK   11  A    between atoms: C_32  and  C_35
REMARK                            x       y       z     vdW  Elec       q    Type
REMARK                         _______ _______ _______ _____ _____    ______ ____
ROOT
ATOM      1  C   UNL     1      -0.594  -0.104   1.640  0.00  0.00    +0.162 C 
ENDROOT
BRANCH   1   2
ATOM      2  C   UNL     1      -0.579   1.458   1.797  0.00  0.00    +0.233 C 
ATOM      3  N   UNL     1      -0.619   1.919   3.100  0.00  0.00    -0.296 N 
ATOM      4  H   UNL     1      -0.747   1.287   3.875  0.00  0.00    +0.150 HD
ATOM      5  O   UNL     1      -0.571   2.225   0.837  0.00  0.00    -0.274 OA
BRANCH   3   6
ATOM      6  C   UNL     1      -0.535   3.316   3.452  0.00  0.00    +0.121 C 
ATOM      7  C   UNL     1       0.739   4.123   3.269  0.00  0.00    +0.044 C 
ATOM      8  C   UNL     1       0.383   3.631   4.634  0.00  0.00    +0.044 C 
BRANCH   6   9
ATOM      9  C   UNL     1      -1.785   4.036   3.386  0.00  0.00    +0.088 C 
ATOM     10  N   UNL     1      -2.807   4.594   3.383  0.00  0.00    -0.194 NA
ENDBRANCH   6   9
ENDBRANCH   3   6
ENDBRANCH   1   2
BRANCH   1  11
ATOM     11  N   UNL     1      -0.303  -0.441   0.226  0.00  0.00    -0.290 NA
ATOM     12  H   UNL     1       0.576   0.003  -0.068  0.00  0.00    +0.124 HD
BRANCH  11  13
ATOM     13  C   UNL     1      -0.272  -1.880  -0.158  0.00  0.00    +0.190 C 
BRANCH  13  14
ATOM     14  C   UNL     1      -1.667  -2.484  -0.052  0.00  0.00    -0.022 A 
ATOM     15  C   UNL     1      -1.918  -3.580   0.791  0.00  0.00    +0.008 A 
ATOM     16  C   UNL     1      -3.202  -4.124   0.872  0.00  0.00    +0.038 A 
ATOM     17  C   UNL     1      -4.232  -3.577   0.114  0.00  0.00    +0.123 A 
ATOM     18  F   UNL     1      -5.459  -4.107   0.193  0.00  0.00    -0.205 F 
ATOM     19  C   UNL     1      -4.007  -2.493  -0.722  0.00  0.00    +0.038 A 
ATOM     20  C   UNL     1      -2.728  -1.943  -0.802  0.00  0.00    +0.008 A 
ENDBRANCH  13  14
BRANCH  13  21
ATOM     21  C   UNL     1       0.398  -2.188  -1.552  0.00  0.00    +0.409 C 
ATOM     22  F   UNL     1      -0.445  -2.739  -2.453  0.00  0.00    -0.169 F 
ATOM     23  F   UNL     1       1.428  -3.059  -1.390  0.00  0.00    -0.169 F 
ATOM     24  F   UNL     1       0.914  -1.069  -2.116  0.00  0.00    -0.169 F 
ENDBRANCH  13  21
ENDBRANCH  11  13
ENDBRANCH   1  11
BRANCH   1  25
ATOM     25  C   UNL     1       0.293  -0.805   2.678  0.00  0.00    +0.194 C 
BRANCH  25  26
ATOM     26  S   UNL     1       2.006  -0.344   2.541  0.00  0.00    -0.027 S 
ATOM     27  O   UNL     1       2.141   1.038   2.937  0.00  0.00    -0.174 OA
ATOM     28  O   UNL     1       2.489  -0.809   1.256  0.00  0.00    -0.174 OA
BRANCH  26  29
ATOM     29  C   UNL     1       2.781  -1.333   3.794  0.00  0.00    +0.188 C 
BRANCH  29  30
ATOM     30  C   UNL     1       4.282  -1.058   3.841  0.00  0.00    +0.094 C 
ATOM     31  N   UNL     1       4.598   0.260   4.323  0.00  0.00    -0.311 N 
ATOM     32  H   UNL     1       4.446   1.127   3.814  0.00  0.00    +0.149 HD
ATOM     33  C   UNL     1       4.882   0.292   5.672  0.00  0.00    +0.213 C 
ATOM     34  O   UNL     1       5.035   1.294   6.341  0.00  0.00    -0.276 OA
ATOM     35  C   UNL     1       4.873  -1.130   6.174  0.00  0.00    +0.097 C 
ATOM     36  C   UNL     1       4.967  -1.942   4.881  0.00  0.00    +0.033 C 
ENDBRANCH  29  30
ENDBRANCH  26  29
ENDBRANCH  25  26
ENDBRANCH   1  25
TORSDOF 11
