REMARK  Name = 
REMARK  9 active torsions:
REMARK  status: ('A' for Active; 'I' for Inactive)
REMARK    1  A    between atoms: C_1  and  C_2
REMARK    2  A    between atoms: C_2  and  C_3
REMARK    3  A    between atoms: C_2  and  N_4
REMARK    4  A    between atoms: N_4  and  C_5
REMARK    5  A    between atoms: C_5  and  C_6
REMARK    6  A    between atoms: C_6  and  C_7
REMARK    7  A    between atoms: C_7  and  N_8
REMARK    8  A    between atoms: C_9  and  S_10
REMARK    9  A    between atoms: S_10  and  C_11
REMARK                            x       y       z     vdW  Elec       q    Type
REMARK                         _______ _______ _______ _____ _____    ______ ____
ROOT
ATOM      1  N   UNL     1       6.653   1.083  -4.102  0.00  0.00    -0.303 N 
ATOM      2  C   UNL     1       7.190   0.351  -5.135  0.00  0.00    +0.166 A 
ATOM      3  N   UNL     1       7.279  -0.991  -5.229  0.00  0.00    -0.216 NA
ATOM      4  C   UNL     1       7.905  -1.361  -6.360  0.00  0.00    +0.225 A 
ATOM      5  N   UNL     1       8.373  -0.575  -7.345  0.00  0.00    -0.219 NA
ATOM      6  C   UNL     1       8.250   0.767  -7.212  0.00  0.00    +0.147 A 
ATOM      7  N   UNL     1       8.729   1.560  -8.245  0.00  0.00    -0.341 N 
ATOM      8  H   UNL     1       8.297   2.481  -8.282  0.00  0.00    +0.144 HD
ATOM      9  H   UNL     1       8.800   1.043  -9.109  0.00  0.00    +0.144 HD
ATOM     10  C   UNL     1       7.638   1.276  -6.052  0.00  0.00    +0.148 A 
ATOM     11  N   UNL     1       7.377   2.562  -5.615  0.00  0.00    -0.216 NA
ATOM     12  C   UNL     1       6.817   2.410  -4.430  0.00  0.00    +0.176 A 
ENDROOT
BRANCH   1  13
ATOM     13  C   UNL     1       5.957   0.497  -2.979  0.00  0.00    +0.127 C 
BRANCH  13  14
ATOM     14  C   UNL     1       6.820  -0.429  -2.120  0.00  0.00    +0.037 C 
BRANCH  14  15
ATOM     15  C   UNL     1       5.973  -1.168  -1.081  0.00  0.00    +0.083 C 
BRANCH  15  16
ATOM     16  N   UNL     1       4.881  -1.959  -1.658  0.00  0.00    -0.314 NA
ATOM     17  H   UNL     1       4.310  -2.339  -0.902  0.00  0.00    +0.122 HD
BRANCH  16  19
ATOM     18  C   UNL     1       6.078  -4.142  -1.785  0.00  0.00    +0.023 C 
ATOM     19  C   UNL     1       5.306  -3.059  -2.540  0.00  0.00    +0.047 C 
ATOM     20  C   UNL     1       4.062  -3.659  -3.198  0.00  0.00    +0.023 C 
ENDBRANCH  16  19
ENDBRANCH  15  16
ENDBRANCH  14  15
ENDBRANCH  13  14
ENDBRANCH   1  13
BRANCH  12  21
ATOM     21  S   UNL     1       6.464   3.735  -3.356  0.00  0.00    -0.050 S 
BRANCH  21  22
ATOM     22  C   UNL     1       4.809   4.169  -3.899  0.00  0.00    +0.033 A 
ATOM     23  C   UNL     1       4.586   4.432  -5.259  0.00  0.00    +0.065 A 
ATOM     24  C   UNL     1       3.292   4.644  -5.681  0.00  0.00    +0.167 A 
ATOM     25  C   UNL     1       2.235   4.682  -4.802  0.00  0.00    +0.167 A 
ATOM     26  O   UNL     1       1.043   4.832  -5.443  0.00  0.00    -0.453 OA
ATOM     27  C   UNL     1       1.463   4.628  -6.807  0.00  0.00    +0.466 C 
ATOM     28  C   UNL     1       2.413   4.536  -3.446  0.00  0.00    +0.066 A 
ATOM     29  O   UNL     1       2.886   4.786  -6.973  0.00  0.00    -0.453 OA
ATOM     30  C   UNL     1       3.712   4.264  -2.992  0.00  0.00    +0.035 A 
ATOM     31 BR   UNL     1       3.906   3.999  -1.116  0.00  0.00    -0.049 Br
ENDBRANCH  21  22
ENDBRANCH  12  21
TORSDOF 7
