REMARK  Name = 
REMARK  14 active torsions:
REMARK  status: ('A' for Active; 'I' for Inactive)
REMARK    1  A    between atoms: C_2  and  C_3
REMARK    2  A    between atoms: C_2  and  N_7
REMARK    3  A    between atoms: C_2  and  B_31
REMARK    4  A    between atoms: C_3  and  C_4
REMARK    5  A    between atoms: C_4  and  C_5
REMARK    6  A    between atoms: C_5  and  N_6
REMARK    7  A    between atoms: C_8  and  C_10
REMARK    8  A    between atoms: C_16  and  C_18
REMARK    9  A    between atoms: C_18  and  C_20
REMARK   10  A    between atoms: C_18  and  N_27
REMARK   11  A    between atoms: C_20  and  C_21
REMARK   12  A    between atoms: C_28  and  C_29
REMARK   13  A    between atoms: B_31  and  O_32
REMARK   14  A    between atoms: B_31  and  O_33
REMARK                            x       y       z     vdW  Elec       q    Type
REMARK                         _______ _______ _______ _____ _____    ______ ____
ROOT
ATOM      1  C   UNL     1       2.622  -2.017  -3.202  0.00  0.00    +0.000 C 
ATOM      2  N   UNL     1       2.741  -3.474  -3.377  0.00  0.00    +0.000 N 
ATOM      3  C   UNL     1       2.052  -4.400  -2.592  0.00  0.00    +0.000 C 
ATOM      4  O   UNL     1       1.160  -3.988  -1.865  0.00  0.00    +0.000 OA
ATOM      5  C   UNL     1       4.022  -3.790  -3.995  0.00  0.00    +0.000 C 
ATOM      6  C   UNL     1       4.605  -2.481  -4.468  0.00  0.00    +0.000 C 
ATOM      7  C   UNL     1       4.078  -1.542  -3.400  0.00  0.00    +0.000 C 
ENDROOT
BRANCH   1  10
ATOM      8  N   UNL     1       0.643  -1.408  -4.917  0.00  0.00    +0.000 N 
ATOM      9  H   UNL     1       0.057  -0.614  -5.227  0.00  0.00    +0.000 HD
ATOM     10  C   UNL     1       1.612  -1.110  -3.983  0.00  0.00    +0.000 C 
ATOM     11  O   UNL     1       1.689   0.069  -3.664  0.00  0.00    +0.000 OA
BRANCH   8  12
ATOM     12  C   UNL     1       0.332  -2.687  -5.525  0.00  0.00    +0.000 C 
BRANCH  12  13
ATOM     13  B   UNL     1       1.565  -3.092  -6.478  0.00  0.00    +0.000 B 
BRANCH  13  14
ATOM     14  O   UNL     1       2.205  -4.394  -6.330  0.00  0.00    +0.000 OA
ATOM     15  H   UNL     1       1.648  -4.904  -5.687  0.00  0.00    +0.000 HD
ENDBRANCH  13  14
BRANCH  13  16
ATOM     16  O   UNL     1       1.980  -2.208  -7.575  0.00  0.00    +0.000 OA
ATOM     17  H   UNL     1       1.156  -1.922  -8.045  0.00  0.00    +0.000 HD
ENDBRANCH  13  16
ENDBRANCH  12  13
BRANCH  12  18
ATOM     18  C   UNL     1      -0.981  -2.630  -6.390  0.00  0.00    +0.000 C 
BRANCH  18  19
ATOM     19  C   UNL     1      -1.308  -4.034  -6.958  0.00  0.00    +0.000 C 
BRANCH  19  20
ATOM     20  C   UNL     1      -2.503  -4.104  -7.911  0.00  0.00    +0.000 C 
BRANCH  20  21
ATOM     21  N   UNL     1      -2.674  -5.489  -8.355  0.00  0.00    +0.000 NA
ATOM     22  H   UNL     1      -3.454  -5.541  -9.048  0.00  0.00    +0.000 HD
ATOM     23  H   UNL     1      -1.802  -5.818  -8.833  0.00  0.00    +0.000 HD
ENDBRANCH  20  21
ENDBRANCH  19  20
ENDBRANCH  18  19
ENDBRANCH  12  18
ENDBRANCH   8  12
ENDBRANCH   1  10
BRANCH   3  24
ATOM     24  C   UNL     1       2.373  -5.939  -2.542  0.00  0.00    +0.000 C 
BRANCH  24  25
ATOM     25  N   UNL     1       1.657  -6.683  -1.486  0.00  0.00    +0.000 N 
ATOM     26  H   UNL     1       2.228  -7.237  -0.827  0.00  0.00    +0.000 HD
ATOM     27  C   UNL     1       0.325  -6.807  -1.274  0.00  0.00    +0.000 C 
ATOM     28  O   UNL     1      -0.483  -6.205  -1.969  0.00  0.00    +0.000 OA
ATOM     29  C   UNL     1      -0.158  -7.714  -0.163  0.00  0.00    +0.000 C 
ENDBRANCH  24  25
BRANCH  24  30
ATOM     30  C   UNL     1       3.874  -6.319  -2.315  0.00  0.00    +0.000 C 
BRANCH  30  31
ATOM     31  C   UNL     1       4.396  -5.896  -0.942  0.00  0.00    +0.000 A 
ATOM     32  C   UNL     1       4.407  -4.559  -0.496  0.00  0.00    +0.000 A 
ATOM     33  C   UNL     1       4.854  -4.235   0.787  0.00  0.00    +0.000 A 
ATOM     34  C   UNL     1       5.304  -5.241   1.647  0.00  0.00    +0.000 A 
ATOM     35  C   UNL     1       5.303  -6.558   1.221  0.00  0.00    +0.000 A 
ATOM     36  C   UNL     1       4.866  -6.890  -0.062  0.00  0.00    +0.000 A 
ENDBRANCH  30  31
ENDBRANCH  24  30
ENDBRANCH   3  24
TORSDOF 13
