REMARK  Name = 
REMARK  10 active torsions:
REMARK  status: ('A' for Active; 'I' for Inactive)
REMARK    1  A    between atoms: C_1  and  N_2
REMARK    2  A    between atoms: C_3  and  C_5
REMARK    3  A    between atoms: C_6  and  C_25
REMARK    4  A    between atoms: C_10  and  N_11
REMARK    5  A    between atoms: N_11  and  C_12
REMARK    6  A    between atoms: N_11  and  S_15
REMARK    7  A    between atoms: C_12  and  C_13
REMARK    8  A    between atoms: C_13  and  O_14
REMARK    9  A    between atoms: S_15  and  C_16
REMARK   10  A    between atoms: C_19  and  C_22
REMARK                            x       y       z     vdW  Elec       q    Type
REMARK                         _______ _______ _______ _____ _____    ______ ____
ROOT
ATOM      1  C   UNL     1       4.346  -0.814   1.013  0.00  0.00    +0.090 A 
ATOM      2  C   UNL     1       5.186  -0.823   2.178  0.00  0.00    +0.033 A 
ATOM      3  C   UNL     1       6.488  -0.709   1.728  0.00  0.00    +0.138 A 
ATOM      4  C   UNL     1       7.604  -0.636   2.565  0.00  0.00    +0.072 A 
ATOM      5  C   UNL     1       7.383  -0.680   3.958  0.00  0.00    +0.058 A 
ATOM      6  C   UNL     1       6.075  -0.862   4.481  0.00  0.00    -0.021 A 
ATOM      7  O   UNL     1       6.508  -0.660   0.370  0.00  0.00    -0.454 OA
ATOM      8  C   UNL     1       4.991  -0.896   3.567  0.00  0.00    +0.018 A 
ATOM      9  C   UNL     1       5.212  -0.735  -0.075  0.00  0.00    +0.148 A 
ENDROOT
BRANCH   9  10
ATOM     10  C   UNL     1       5.063  -0.773  -1.531  0.00  0.00    +0.018 A 
ATOM     11  C   UNL     1       4.066  -1.558  -2.135  0.00  0.00    +0.014 A 
ATOM     12  C   UNL     1       3.949  -1.628  -3.527  0.00  0.00    +0.039 A 
ATOM     13  C   UNL     1       4.831  -0.913  -4.324  0.00  0.00    +0.123 A 
ATOM     14  F   UNL     1       4.731  -0.993  -5.657  0.00  0.00    -0.205 F 
ATOM     15  C   UNL     1       5.821  -0.121  -3.756  0.00  0.00    +0.039 A 
ATOM     16  C   UNL     1       5.936  -0.052  -2.363  0.00  0.00    +0.014 A 
ENDBRANCH   9  10
BRANCH   1  20
ATOM     17  C   UNL     1       0.840  -1.715   1.958  0.00  0.00    +0.128 C 
ATOM     18  N   UNL     1       2.274  -1.579   1.917  0.00  0.00    -0.314 N 
ATOM     19  H   UNL     1       2.832  -2.202   2.483  0.00  0.00    +0.149 HD
ATOM     20  C   UNL     1       2.891  -0.834   0.939  0.00  0.00    +0.248 C 
ATOM     21  O   UNL     1       2.262  -0.255   0.056  0.00  0.00    -0.270 OA
ENDBRANCH   1  20
BRANCH   6  22
ATOM     22  C   UNL     1       5.687  -1.085   5.929  0.00  0.00    +0.021 C 
ATOM     23  C   UNL     1       4.920   0.029   6.623  0.00  0.00    +0.009 C 
ATOM     24  C   UNL     1       6.267  -0.393   7.125  0.00  0.00    +0.009 C 
ENDBRANCH   6  22
BRANCH   5  25
ATOM     25  N   UNL     1       8.517  -0.513   4.844  0.00  0.00    -0.205 N 
BRANCH  25  26
ATOM     26  S   UNL     1       9.390  -1.914   5.301  0.00  0.00    +0.043 S 
ATOM     27  O   UNL     1       8.464  -2.969   5.650  0.00  0.00    -0.155 OA
ATOM     28  O   UNL     1      10.429  -1.506   6.228  0.00  0.00    -0.155 OA
ATOM     29  C   UNL     1      10.212  -2.399   3.787  0.00  0.00    +0.218 C 
ENDBRANCH  25  26
BRANCH  25  30
ATOM     30  C   UNL     1       9.362   0.728   4.804  0.00  0.00    +0.159 C 
BRANCH  30  31
ATOM     31  C   UNL     1       8.653   2.029   4.426  0.00  0.00    +0.176 C 
BRANCH  31  32
ATOM     32  O   UNL     1       7.640   2.395   5.352  0.00  0.00    -0.393 OA
ATOM     33  H   UNL     1       6.922   1.745   5.256  0.00  0.00    +0.209 HD
ENDBRANCH  31  32
ENDBRANCH  30  31
ENDBRANCH  25  30
ENDBRANCH   5  25
TORSDOF 8
