REMARK  Name = 
REMARK  4 active torsions:
REMARK  status: ('A' for Active; 'I' for Inactive)
REMARK    1  A    between atoms: C_1  and  C_2
REMARK    2  A    between atoms: C_4  and  C_15
REMARK    3  A    between atoms: N_6  and  C_7
REMARK    4  A    between atoms: C_15  and  O_16
REMARK                            x       y       z     vdW  Elec       q    Type
REMARK                         _______ _______ _______ _____ _____    ______ ____
ROOT
ATOM      1  C   UNL     1       1.343   0.448  -0.001  0.00  0.00    +0.088 C 
ATOM      2  C   UNL     1       2.796   0.163  -0.001  0.00  0.00    +0.131 A 
ATOM      3  N   UNL     1       3.415  -1.083  -0.000  0.00  0.00    -0.217 N 
ATOM      4  N   UNL     1       4.769  -0.900  -0.011  0.00  0.00    -0.138 NA
ATOM      5  C   UNL     1       4.901   0.438  -0.010  0.00  0.00    +0.259 A 
ATOM      6  N   UNL     1       3.713   1.110  -0.004  0.00  0.00    -0.206 NA
ENDROOT
BRANCH   3   7
ATOM      7  C   UNL     1       2.904  -2.419   0.012  0.00  0.00    +0.070 A 
ATOM      8  C   UNL     1       1.539  -2.720   0.036  0.00  0.00    +0.048 A 
ATOM      9  C   UNL     1       1.113  -4.056   0.050  0.00  0.00    +0.044 A 
ATOM     10 CL   UNL     1      -0.573  -4.404   0.082  0.00  0.00    -0.083 Cl
ATOM     11  C   UNL     1       2.027  -5.104   0.040  0.00  0.00    +0.040 A 
ATOM     12  C   UNL     1       3.383  -4.811   0.016  0.00  0.00    +0.044 A 
ATOM     13 CL   UNL     1       4.533  -6.091   0.004  0.00  0.00    -0.083 Cl
ATOM     14  C   UNL     1       3.824  -3.487   0.001  0.00  0.00    +0.048 A 
ENDBRANCH   3   7
BRANCH   5  15
ATOM     15  C   UNL     1       6.235   1.064  -0.015  0.00  0.00    +0.376 C 
ATOM     16  O   UNL     1       6.455   2.267  -0.010  0.00  0.00    -0.242 OA
BRANCH  15  17
ATOM     17  O   UNL     1       7.244   0.140  -0.025  0.00  0.00    -0.475 OA
ATOM     18  H   UNL     1       6.823  -0.750  -0.027  0.00  0.00    +0.296 HD
ENDBRANCH  15  17
ENDBRANCH   5  15
TORSDOF 3
