REMARK  Name = 
REMARK  10 active torsions:
REMARK  status: ('A' for Active; 'I' for Inactive)
REMARK    1  A    between atoms: O_1  and  C_2
REMARK    2  A    between atoms: C_2  and  C_3
REMARK    3  A    between atoms: C_2  and  P_23
REMARK    4  A    between atoms: C_2  and  P_27
REMARK    5  A    between atoms: C_3  and  C_4
REMARK    6  A    between atoms: C_6  and  C_10
REMARK    7  A    between atoms: P_23  and  O_24
REMARK    8  A    between atoms: P_23  and  O_25
REMARK    9  A    between atoms: P_27  and  O_28
REMARK   10  A    between atoms: P_27  and  O_29
REMARK                            x       y       z     vdW  Elec       q    Type
REMARK                         _______ _______ _______ _____ _____    ______ ____
ROOT
ATOM      1  C   UNL     1       1.988   1.846  -1.895  0.00  0.00    -0.043 A 
ATOM      2  C   UNL     1       2.228   3.163  -2.313  0.00  0.00    +0.004 A 
ATOM      3  C   UNL     1       2.118   3.501  -3.658  0.00  0.00    +0.001 A 
ATOM      4  C   UNL     1       1.830   2.519  -4.600  0.00  0.00    +0.008 A 
ATOM      5  C   UNL     1       1.558   1.191  -4.209  0.00  0.00    -0.014 A 
ATOM      6  C   UNL     1       1.539   0.921  -2.840  0.00  0.00    +0.012 A 
ENDROOT
BRANCH   5   7
ATOM      7  C   UNL     1       1.418   0.114  -5.206  0.00  0.00    +0.025 A 
ATOM      8  C   UNL     1       1.984  -1.171  -5.025  0.00  0.00    +0.144 A 
ATOM      9  O   UNL     1       2.595  -1.652  -3.886  0.00  0.00    -0.454 OA
ATOM     10  C   UNL     1       3.053  -2.906  -4.167  0.00  0.00    +0.136 A 
ATOM     11  C   UNL     1       3.742  -3.741  -3.291  0.00  0.00    +0.047 A 
ATOM     12  C   UNL     1       4.188  -4.965  -3.809  0.00  0.00    +0.004 A 
ATOM     13  C   UNL     1       3.934  -5.328  -5.133  0.00  0.00    +0.001 A 
ATOM     14  C   UNL     1       3.210  -4.483  -5.980  0.00  0.00    +0.012 A 
ATOM     15  C   UNL     1       2.760  -3.247  -5.481  0.00  0.00    +0.028 A 
ATOM     16  C   UNL     1       2.033  -2.145  -6.022  0.00  0.00    +0.029 A 
ATOM     17  C   UNL     1       1.443  -1.877  -7.264  0.00  0.00    +0.012 A 
ATOM     18  C   UNL     1       0.827  -0.641  -7.469  0.00  0.00    +0.001 A 
ATOM     19  C   UNL     1       0.818   0.328  -6.464  0.00  0.00    +0.012 A 
ENDBRANCH   5   7
BRANCH   1  20
ATOM     20  C   UNL     1       2.320   1.487  -0.466  0.00  0.00    +0.095 C 
BRANCH  20  21
ATOM     21  C   UNL     1       2.433   0.002  -0.015  0.00  0.00    +0.271 C 
BRANCH  21  22
ATOM     22  O   UNL     1       3.331  -0.758  -0.900  0.00  0.00    -0.367 OA
ATOM     23  H   UNL     1       3.307  -0.353  -1.790  0.00  0.00    +0.212 HD
ENDBRANCH  21  22
BRANCH  21  24
ATOM     24  P   UNL     1       3.318   0.013   1.620  0.00  0.00    +0.371 P 
ATOM     25  O   UNL     1       3.280  -1.179   2.519  0.00  0.00    -0.255 OA
BRANCH  24  26
ATOM     26  O   UNL     1       2.891   1.377   2.347  0.00  0.00    -0.322 OA
ATOM     27  H   UNL     1       3.181   1.386   3.279  0.00  0.00    +0.220 HD
ENDBRANCH  24  26
BRANCH  24  28
ATOM     28  O   UNL     1       4.838   0.348   1.185  0.00  0.00    -0.322 OA
ATOM     29  H   UNL     1       5.083  -0.158   0.379  0.00  0.00    +0.220 HD
ENDBRANCH  24  28
ENDBRANCH  21  24
BRANCH  21  30
ATOM     30  P   UNL     1       0.808  -0.820   0.037  0.00  0.00    +0.371 P 
ATOM     31  O   UNL     1      -0.387   0.070  -0.046  0.00  0.00    -0.255 OA
BRANCH  30  32
ATOM     32  O   UNL     1       0.794  -1.741   1.338  0.00  0.00    -0.322 OA
ATOM     33  H   UNL     1      -0.097  -2.070   1.559  0.00  0.00    +0.220 HD
ENDBRANCH  30  32
BRANCH  30  34
ATOM     34  O   UNL     1       0.836  -1.942  -1.118  0.00  0.00    -0.322 OA
ATOM     35  H   UNL     1       1.713  -2.094  -1.531  0.00  0.00    +0.220 HD
ENDBRANCH  30  34
ENDBRANCH  21  30
ENDBRANCH  20  21
ENDBRANCH   1  20
TORSDOF 10
