REMARK  Name = 
REMARK  6 active torsions:
REMARK  status: ('A' for Active; 'I' for Inactive)
REMARK    1  A    between atoms: C_1  and  O_2
REMARK    2  A    between atoms: O_2  and  C_3
REMARK    3  A    between atoms: N_9  and  S_10
REMARK    4  A    between atoms: S_10  and  C_13
REMARK    5  A    between atoms: C_22  and  C_24
REMARK    6  A    between atoms: C_26  and  N_27
REMARK                            x       y       z     vdW  Elec       q    Type
REMARK                         _______ _______ _______ _____ _____    ______ ____
ROOT
ATOM      1  C   UNL     1       3.173   1.341   0.224  0.00  0.00    +0.123 A 
ATOM      2  C   UNL     1       2.453   2.525   0.014  0.00  0.00    +0.058 A 
ATOM      3  C   UNL     1       3.037   3.813   0.105  0.00  0.00    +0.030 A 
ATOM      4  C   UNL     1       4.402   3.791   0.415  0.00  0.00    +0.165 A 
ATOM      5  O   UNL     1       5.258   4.856   0.532  0.00  0.00    -0.423 OA
ATOM      6  C   UNL     1       6.444   4.301   0.905  0.00  0.00    +0.308 A 
ATOM      7  N   UNL     1       6.421   2.996   1.053  0.00  0.00    -0.194 NA
ATOM      8  N   UNL     1       7.555   5.073   1.283  0.00  0.00    -0.169 N 
ATOM      9  H   UNL     1       8.099   4.576   1.988  0.00  0.00    +0.178 HD
ATOM     10  C   UNL     1       5.143   2.650   0.681  0.00  0.00    +0.115 A 
ATOM     11  C   UNL     1       4.530   1.393   0.563  0.00  0.00    +0.077 A 
ENDROOT
BRANCH   3  12
ATOM     12  C   UNL     1       2.265   5.052  -0.106  0.00  0.00    -0.012 A 
ATOM     13  C   UNL     1       2.837   6.196  -0.683  0.00  0.00    +0.009 A 
ATOM     14  C   UNL     1       2.089   7.357  -0.886  0.00  0.00    +0.002 A 
ATOM     15  C   UNL     1       0.738   7.386  -0.546  0.00  0.00    +0.023 A 
ATOM     16  C   UNL     1       0.118   6.256  -0.023  0.00  0.00    +0.025 A 
ATOM     17  C   UNL     1       0.902   5.130   0.255  0.00  0.00    +0.031 A 
BRANCH  16  18
ATOM     18  N   UNL     1      -1.208   6.321   0.425  0.00  0.00    -0.358 N 
ATOM     19  H   UNL     1      -1.773   6.999  -0.078  0.00  0.00    +0.142 HD
ATOM     20  H   UNL     1      -1.667   5.419   0.492  0.00  0.00    +0.142 HD
ENDBRANCH  16  18
ENDBRANCH   3  12
BRANCH   8  21
ATOM     21  S   UNL     1       8.608   5.348  -0.005  0.00  0.00    +0.077 S 
ATOM     22  O   UNL     1       8.765   4.114  -0.740  0.00  0.00    -0.150 OA
ATOM     23  O   UNL     1       9.779   6.003   0.540  0.00  0.00    -0.150 OA
BRANCH  21  24
ATOM     24  C   UNL     1       7.805   6.514  -1.067  0.00  0.00    +0.128 A 
ATOM     25  C   UNL     1       7.420   7.781  -0.625  0.00  0.00    +0.068 A 
ATOM     26 CL   UNL     1       7.598   8.336   0.997  0.00  0.00    -0.082 Cl
ATOM     27  C   UNL     1       6.849   8.678  -1.540  0.00  0.00    +0.023 A 
ATOM     28  C   UNL     1       6.676   8.319  -2.879  0.00  0.00    +0.021 A 
ATOM     29  C   UNL     1       7.073   7.057  -3.311  0.00  0.00    +0.043 A 
ATOM     30 CL   UNL     1       6.881   6.619  -4.962  0.00  0.00    -0.083 Cl
ATOM     31  C   UNL     1       7.635   6.153  -2.414  0.00  0.00    +0.050 A 
ENDBRANCH  21  24
ENDBRANCH   8  21
BRANCH   1  33
ATOM     32  C   UNL     1       1.261  -0.032  -0.161  0.00  0.00    +0.277 C 
ATOM     33  O   UNL     1       2.652   0.077   0.128  0.00  0.00    -0.495 OA
ENDBRANCH   1  33
TORSDOF 5
