REMARK  Name = 
REMARK  7 active torsions:
REMARK  status: ('A' for Active; 'I' for Inactive)
REMARK    1  A    between atoms: O_1  and  C_2
REMARK    2  A    between atoms: C_2  and  C_4
REMARK    3  A    between atoms: C_4  and  O_5
REMARK    4  A    between atoms: O_5  and  C_6
REMARK    5  A    between atoms: C_12  and  C_13
REMARK    6  A    between atoms: N_15  and  C_16
REMARK    7  A    between atoms: C_16  and  C_17
REMARK                            x       y       z     vdW  Elec       q    Type
REMARK                         _______ _______ _______ _____ _____    ______ ____
ROOT
ATOM      1  C   UNL     1       5.465   1.748  -1.188  0.00  0.00    +0.135 A 
ATOM      2  C   UNL     1       6.440   1.266  -2.081  0.00  0.00    +0.078 A 
ATOM      3  C   UNL     1       7.253   2.179  -2.776  0.00  0.00    +0.018 A 
ATOM      4  C   UNL     1       7.069   3.554  -2.628  0.00  0.00    +0.021 A 
ATOM      5  C   UNL     1       6.060   4.023  -1.796  0.00  0.00    +0.044 A 
ATOM      6 CL   UNL     1       5.809   5.717  -1.628  0.00  0.00    -0.083 Cl
ATOM      7  C   UNL     1       5.256   3.132  -1.083  0.00  0.00    +0.066 A 
ENDROOT
BRANCH   2   8
ATOM      8  C   UNL     1       6.702  -0.182  -2.336  0.00  0.00    +0.248 C 
ATOM      9  N   UNL     1       5.650  -1.059  -2.180  0.00  0.00    -0.307 N 
ATOM     10  H   UNL     1       4.735  -0.709  -1.924  0.00  0.00    +0.149 HD
ATOM     11  O   UNL     1       7.811  -0.542  -2.717  0.00  0.00    -0.270 OA
BRANCH   9  12
ATOM     12  C   UNL     1       5.814  -2.455  -2.533  0.00  0.00    +0.142 C 
BRANCH  12  13
ATOM     13  C   UNL     1       4.534  -3.235  -2.415  0.00  0.00    +0.005 A 
ATOM     14  C   UNL     1       3.431  -2.954  -3.237  0.00  0.00    +0.009 A 
ATOM     15  C   UNL     1       2.259  -3.709  -3.135  0.00  0.00    +0.016 A 
ATOM     16  C   UNL     1       2.185  -4.754  -2.212  0.00  0.00    +0.021 A 
ATOM     17 BR   UNL     1       0.599  -5.774  -2.076  0.00  0.00    -0.050 Br
ATOM     18  C   UNL     1       3.270  -5.053  -1.395  0.00  0.00    +0.054 A 
ATOM     19  C   UNL     1       4.432  -4.294  -1.506  0.00  0.00    +0.129 A 
ATOM     20  F   UNL     1       5.475  -4.604  -0.724  0.00  0.00    -0.205 F 
ENDBRANCH  12  13
ENDBRANCH   9  12
ENDBRANCH   2   8
BRANCH   1  21
ATOM     21  O   UNL     1       4.764   0.831  -0.444  0.00  0.00    -0.480 OA
BRANCH  21  22
ATOM     22  C   UNL     1       4.211   1.311   0.787  0.00  0.00    +0.349 C 
BRANCH  22  23
ATOM     23  C   UNL     1       3.977   0.139   1.724  0.00  0.00    +0.343 C 
ATOM     24  O   UNL     1       3.194   0.166   2.662  0.00  0.00    -0.247 OA
BRANCH  23  25
ATOM     25  O   UNL     1       4.769  -0.928   1.462  0.00  0.00    -0.478 OA
ATOM     26  H   UNL     1       5.335  -0.777   0.675  0.00  0.00    +0.295 HD
ENDBRANCH  23  25
ENDBRANCH  22  23
ENDBRANCH  21  22
ENDBRANCH   1  21
TORSDOF 7
