REMARK  Name = 
REMARK  7 active torsions:
REMARK  status: ('A' for Active; 'I' for Inactive)
REMARK    1  A    between atoms: C_2  and  O_3
REMARK    2  A    between atoms: N_5  and  C_6
REMARK    3  A    between atoms: C_6  and  C_7
REMARK    4  A    between atoms: N_9  and  C_10
REMARK    5  A    between atoms: C_14  and  N_17
REMARK    6  A    between atoms: C_25  and  N_27
REMARK    7  A    between atoms: C_28  and  C_30
REMARK                            x       y       z     vdW  Elec       q    Type
REMARK                         _______ _______ _______ _____ _____    ______ ____
ROOT
ATOM      1  C   UNL     1       5.112   0.802   0.250  0.00  0.00    +0.181 C 
ENDROOT
BRANCH   1   5
ATOM      2  C   UNL     1       3.834   2.575   2.423  0.00  0.00    +0.150 C 
ATOM      3  C   UNL     1       2.586   2.402   1.548  0.00  0.00    +0.117 C 
ATOM      4  C   UNL     1       2.768   1.032   0.862  0.00  0.00    +0.109 C 
ATOM      5  N   UNL     1       4.084   0.489   1.269  0.00  0.00    -0.290 NA
ATOM      6  C   UNL     1       4.358   1.150   2.565  0.00  0.00    +0.118 C 
BRANCH   3   7
ATOM      7  N   UNL     1       2.437   3.493   0.598  0.00  0.00    -0.304 N 
ATOM      8  H   UNL     1       3.263   3.904   0.180  0.00  0.00    +0.149 HD
ATOM      9  C   UNL     1       1.209   3.870   0.098  0.00  0.00    +0.251 C 
ATOM     10  O   UNL     1       0.170   3.349   0.493  0.00  0.00    -0.270 OA
BRANCH   9  11
ATOM     11  C   UNL     1       1.236   4.903  -0.927  0.00  0.00    +0.075 A 
ATOM     12  S   UNL     1       2.706   5.545  -1.546  0.00  0.00    -0.072 S 
ATOM     13  C   UNL     1       1.879   6.539  -2.634  0.00  0.00    +0.079 A 
ATOM     14 CL   UNL     1       2.764   7.540  -3.712  0.00  0.00    -0.076 Cl
ATOM     15  C   UNL     1       0.516   6.434  -2.545  0.00  0.00    +0.028 A 
ATOM     16  C   UNL     1       0.142   5.486  -1.547  0.00  0.00    +0.022 A 
ENDBRANCH   9  11
ENDBRANCH   3   7
BRANCH   2  17
ATOM     17  O   UNL     1       3.548   3.179   3.677  0.00  0.00    -0.389 OA
ATOM     18  H   UNL     1       2.738   2.782   4.039  0.00  0.00    +0.210 HD
ENDBRANCH   2  17
ENDBRANCH   1   5
BRANCH   1  19
ATOM     19  C   UNL     1       6.493   0.344   0.727  0.00  0.00    +0.231 C 
ATOM     20  N   UNL     1       6.642  -1.028   0.772  0.00  0.00    -0.282 N 
ATOM     21  H   UNL     1       6.065  -1.575   0.143  0.00  0.00    +0.155 HD
ATOM     22  O   UNL     1       7.359   1.162   1.036  0.00  0.00    -0.274 OA
BRANCH  20  23
ATOM     23  C   UNL     1       7.792  -1.656   1.283  0.00  0.00    +0.069 A 
ATOM     24  C   UNL     1       8.417  -1.227   2.451  0.00  0.00    +0.028 A 
ATOM     25  C   UNL     1       9.552  -1.901   2.929  0.00  0.00    +0.028 A 
ATOM     26  C   UNL     1      10.114  -2.991   2.235  0.00  0.00    +0.052 A 
ATOM     27  C   UNL     1       9.470  -3.387   1.051  0.00  0.00    +0.066 A 
ATOM     28  C   UNL     1       8.309  -2.754   0.610  0.00  0.00    +0.146 A 
ATOM     29  F   UNL     1       7.727  -3.169  -0.526  0.00  0.00    -0.203 F 
BRANCH  26  30
ATOM     30  N   UNL     1      11.316  -3.662   2.712  0.00  0.00    -0.284 N 
ATOM     31  C   UNL     1      11.606  -4.978   2.282  0.00  0.00    +0.256 A 
ATOM     32  O   UNL     1      10.902  -5.708   1.586  0.00  0.00    -0.267 OA
ATOM     33  C   UNL     1      12.892  -5.569   2.749  0.00  0.00    +0.071 A 
ATOM     34  C   UNL     1      13.684  -4.913   3.599  0.00  0.00    +0.007 A 
ATOM     35  C   UNL     1      13.310  -3.605   4.053  0.00  0.00    +0.018 A 
ATOM     36  C   UNL     1      12.186  -3.028   3.608  0.00  0.00    +0.095 A 
ENDBRANCH  26  30
ENDBRANCH  20  23
ENDBRANCH   1  19
TORSDOF 7
