REMARK  Name = 
REMARK  11 active torsions:
REMARK  status: ('A' for Active; 'I' for Inactive)
REMARK    1  A    between atoms: C_2  and  C_3
REMARK    2  A    between atoms: C_2  and  C_5
REMARK    3  A    between atoms: C_2  and  N_27
REMARK    4  A    between atoms: C_3  and  O_4
REMARK    5  A    between atoms: C_5  and  C_6
REMARK    6  A    between atoms: C_6  and  N_7
REMARK    7  A    between atoms: C_13  and  N_14
REMARK    8  A    between atoms: C_15  and  C_17
REMARK    9  A    between atoms: C_17  and  C_18
REMARK   10  A    between atoms: C_18  and  C_19
REMARK   11  A    between atoms: C_30  and  C_32
REMARK                            x       y       z     vdW  Elec       q    Type
REMARK                         _______ _______ _______ _____ _____    ______ ____
ROOT
ATOM      1  N   UNL     1       2.588  -2.881   2.479  0.00  0.00    -0.347 N 
ATOM      2  C   UNL     1       2.149  -4.130   2.085  0.00  0.00    +0.051 A 
ATOM      3  C   UNL     1       1.220  -4.514   1.104  0.00  0.00    +0.049 A 
ATOM      4  C   UNL     1       0.905  -5.868   0.948  0.00  0.00    +0.035 A 
ATOM      5  C   UNL     1       1.573  -6.819   1.720  0.00  0.00    +0.024 A 
ATOM      6  C   UNL     1       2.517  -6.434   2.688  0.00  0.00    +0.012 A 
ATOM      7  C   UNL     1       2.805  -5.068   2.880  0.00  0.00    -0.000 A 
ATOM      8  C   UNL     1       3.675  -4.349   3.745  0.00  0.00    +0.027 A 
ATOM      9  C   UNL     1       3.530  -3.008   3.469  0.00  0.00    +0.087 A 
ENDROOT
BRANCH   4  10
ATOM     10  N   UNL     1      -0.065  -6.312   0.013  0.00  0.00    -0.285 N 
ATOM     11  H   UNL     1      -0.126  -7.311  -0.137  0.00  0.00    +0.155 HD
ATOM     12  C   UNL     1      -1.021  -5.509  -0.591  0.00  0.00    +0.218 C 
ATOM     13  O   UNL     1      -1.245  -4.337  -0.296  0.00  0.00    -0.275 OA
BRANCH  12  14
ATOM     14  C   UNL     1      -1.853  -6.220  -1.642  0.00  0.00    +0.101 C 
BRANCH  14  15
ATOM     15  C   UNL     1      -2.370  -5.186  -2.647  0.00  0.00    +0.044 C 
BRANCH  15  16
ATOM     16  C   UNL     1      -3.274  -5.761  -3.705  0.00  0.00    -0.047 A 
ATOM     17  C   UNL     1      -2.750  -6.250  -4.908  0.00  0.00    +0.003 A 
ATOM     18  C   UNL     1      -3.600  -6.745  -5.899  0.00  0.00    +0.000 A 
ATOM     19  C   UNL     1      -4.979  -6.759  -5.695  0.00  0.00    +0.000 A 
ATOM     20  C   UNL     1      -5.510  -6.275  -4.501  0.00  0.00    +0.000 A 
ATOM     21  C   UNL     1      -4.662  -5.780  -3.510  0.00  0.00    +0.003 A 
ENDBRANCH  15  16
ENDBRANCH  14  15
ENDBRANCH  12  14
ENDBRANCH   4  10
BRANCH   1  22
ATOM     22  C   UNL     1       2.112  -1.610   1.955  0.00  0.00    +0.124 C 
BRANCH  22  23
ATOM     23  C   UNL     1       0.622  -1.338   2.208  0.00  0.00    +0.049 C 
BRANCH  23  24
ATOM     24  C   UNL     1       0.220  -1.379   3.693  0.00  0.00    +0.115 C 
BRANCH  24  25
ATOM     25  N   UNL     1       0.878  -0.322   4.453  0.00  0.00    -0.331 N 
ATOM     26  C   UNL     1       0.772   1.022   4.237  0.00  0.00    +0.120 A 
ATOM     27  C   UNL     1       1.535   1.619   5.220  0.00  0.00    +0.143 A 
ATOM     28  N   UNL     1       2.103   0.644   6.029  0.00  0.00    -0.231 NA
ATOM     29  C   UNL     1       1.686  -0.504   5.543  0.00  0.00    +0.200 A 
BRANCH  27  30
ATOM     30  C   UNL     1       1.728   3.053   5.407  0.00  0.00    +0.261 C 
ATOM     31  O   UNL     1       1.228   3.914   4.692  0.00  0.00    -0.269 OA
ATOM     32  N   UNL     1       2.523   3.369   6.468  0.00  0.00    -0.324 N 
ATOM     33  H   UNL     1       2.691   4.339   6.685  0.00  0.00    +0.145 HD
ATOM     34  H   UNL     1       2.900   2.627   7.043  0.00  0.00    +0.145 HD
ENDBRANCH  27  30
ENDBRANCH  24  25
BRANCH  24  35
ATOM     35  C   UNL     1      -1.309  -1.289   3.850  0.00  0.00    +0.181 C 
BRANCH  35  36
ATOM     36  O   UNL     1      -1.701  -1.494   5.207  0.00  0.00    -0.393 OA
ATOM     37  H   UNL     1      -1.312  -0.780   5.746  0.00  0.00    +0.209 HD
ENDBRANCH  35  36
ENDBRANCH  24  35
ENDBRANCH  23  24
ENDBRANCH  22  23
ENDBRANCH   1  22
TORSDOF 11
