REMARK  Name = 
REMARK  6 active torsions:
REMARK  status: ('A' for Active; 'I' for Inactive)
REMARK    1  A    between atoms: C_1  and  C_2
REMARK    2  A    between atoms: C_2  and  C_16
REMARK    3  A    between atoms: N_6  and  N_7
REMARK    4  A    between atoms: N_7  and  C_8
REMARK    5  A    between atoms: C_19  and  O_20
REMARK    6  A    between atoms: O_20  and  C_21
REMARK                            x       y       z     vdW  Elec       q    Type
REMARK                         _______ _______ _______ _____ _____    ______ ____
ROOT
ATOM      1  C   UNL     1       1.113   0.183   0.410  0.00  0.00    +0.071 C 
ATOM      2  C   UNL     1       2.605   0.042   0.104  0.00  0.00    +0.214 C 
ATOM      3  C   UNL     1       3.139  -1.265   0.657  0.00  0.00    +0.289 C 
ATOM      4  O   UNL     1       2.867  -2.381   0.232  0.00  0.00    -0.269 OA
ATOM      5  N   UNL     1       3.997  -0.934   1.677  0.00  0.00    -0.119 N 
ATOM      6  C   UNL     1       4.238   0.402   1.651  0.00  0.00    +0.428 C 
ATOM      7  O   UNL     1       5.175   0.988   2.178  0.00  0.00    -0.224 OA
ATOM      8  O   UNL     1       3.315   1.033   0.869  0.00  0.00    -0.428 OA
ENDROOT
BRANCH   2   9
ATOM      9  C   UNL     1       2.891   0.190  -1.391  0.00  0.00    +0.005 A 
ATOM     10  C   UNL     1       2.257  -0.662  -2.313  0.00  0.00    +0.011 A 
ATOM     11  C   UNL     1       2.499  -0.556  -3.682  0.00  0.00    +0.046 A 
ATOM     12  C   UNL     1       3.444   0.352  -4.159  0.00  0.00    +0.128 A 
ATOM     13  C   UNL     1       4.051   1.234  -3.266  0.00  0.00    +0.046 A 
ATOM     14  C   UNL     1       3.777   1.157  -1.895  0.00  0.00    +0.011 A 
BRANCH  12  15
ATOM     15  O   UNL     1       3.809   0.472  -5.483  0.00  0.00    -0.456 OA
BRANCH  15  16
ATOM     16  C   UNL     1       3.758  -0.635  -6.304  0.00  0.00    +0.128 A 
ATOM     17  C   UNL     1       4.070  -1.933  -5.887  0.00  0.00    +0.046 A 
ATOM     18  C   UNL     1       3.908  -3.008  -6.763  0.00  0.00    +0.004 A 
ATOM     19  C   UNL     1       3.505  -2.780  -8.077  0.00  0.00    +0.000 A 
ATOM     20  C   UNL     1       3.281  -1.477  -8.521  0.00  0.00    +0.004 A 
ATOM     21  C   UNL     1       3.407  -0.404  -7.635  0.00  0.00    +0.046 A 
ENDBRANCH  15  16
ENDBRANCH  12  15
ENDBRANCH   2   9
BRANCH   5  22
ATOM     22  N   UNL     1       5.016  -1.813   2.052  0.00  0.00    -0.252 N 
ATOM     23  H   UNL     1       5.923  -1.392   2.254  0.00  0.00    +0.171 HD
BRANCH  22  24
ATOM     24  C   UNL     1       4.694  -2.987   2.755  0.00  0.00    +0.045 A 
ATOM     25  C   UNL     1       3.454  -3.228   3.360  0.00  0.00    +0.024 A 
ATOM     26  C   UNL     1       3.138  -4.493   3.868  0.00  0.00    +0.002 A 
ATOM     27  C   UNL     1       4.055  -5.536   3.770  0.00  0.00    +0.000 A 
ATOM     28  C   UNL     1       5.305  -5.305   3.205  0.00  0.00    +0.002 A 
ATOM     29  C   UNL     1       5.625  -4.036   2.717  0.00  0.00    +0.024 A 
ENDBRANCH  22  24
ENDBRANCH   5  22
TORSDOF 5
