REMARK  Name = 
REMARK  8 active torsions:
REMARK  status: ('A' for Active; 'I' for Inactive)
REMARK    1  A    between atoms: C_1  and  C_2
REMARK    2  A    between atoms: C_2  and  C_3
REMARK    3  A    between atoms: C_3  and  C_4
REMARK    4  A    between atoms: C_4  and  C_5
REMARK    5  A    between atoms: C_5  and  C_6
REMARK    6  A    between atoms: C_6  and  C_7
REMARK    7  A    between atoms: C_7  and  C_8
REMARK    8  A    between atoms: C_9  and  O_10
REMARK                            x       y       z     vdW  Elec       q    Type
REMARK                         _______ _______ _______ _____ _____    ______ ____
ROOT
ATOM      1  C   UNL     1       8.736   2.472   3.384  0.00  0.00    +0.047 C 
ATOM      2  C   UNL     1       9.265   1.317   4.208  0.00  0.00    +0.212 C 
ATOM      3  O   UNL     1       8.507   0.549   4.790  0.00  0.00    -0.285 OA
ATOM      4  C   UNL     1      10.715   1.205   4.244  0.00  0.00    +0.129 A 
ATOM      5  N   UNL     1      11.401   0.303   5.050  0.00  0.00    -0.243 NA
ATOM      6  C   UNL     1      12.696   0.447   4.865  0.00  0.00    +0.157 A 
ATOM      7  S   UNL     1      13.166   1.633   3.715  0.00  0.00    -0.071 S 
ATOM      8  C   UNL     1      11.524   1.999   3.469  0.00  0.00    +0.093 A 
ATOM      9  C   UNL     1      11.047   3.012   2.573  0.00  0.00    +0.236 C 
ATOM     10  O   UNL     1      11.754   3.653   1.802  0.00  0.00    -0.283 OA
ATOM     11  C   UNL     1       9.547   3.256   2.633  0.00  0.00    +0.172 C 
ENDROOT
BRANCH  11  12
ATOM     12  O   UNL     1       9.081   4.303   1.848  0.00  0.00    -0.503 OA
ATOM     13  H   UNL     1       8.117   4.372   1.889  0.00  0.00    +0.292 HD
ENDBRANCH  11  12
BRANCH   1  14
ATOM     14  C   UNL     1       7.227   2.634   3.470  0.00  0.00    +0.043 C 
BRANCH  14  15
ATOM     15  C   UNL     1       6.550   1.796   2.386  0.00  0.00    +0.005 C 
BRANCH  15  16
ATOM     16  C   UNL     1       5.019   1.831   2.440  0.00  0.00    +0.000 C 
BRANCH  16  17
ATOM     17  C   UNL     1       4.465   0.978   1.294  0.00  0.00    +0.000 C 
BRANCH  17  18
ATOM     18  C   UNL     1       2.939   0.938   1.247  0.00  0.00    -0.000 C 
BRANCH  18  20
ATOM     19  C   UNL     1       0.958   0.007  -0.020  0.00  0.00    +0.004 C 
ATOM     20  C   UNL     1       2.472   0.076   0.071  0.00  0.00    -0.003 C 
ENDBRANCH  18  20
ENDBRANCH  17  18
ENDBRANCH  16  17
ENDBRANCH  15  16
ENDBRANCH  14  15
ENDBRANCH   1  14
TORSDOF 7
