REMARK  Name = 
REMARK  2 active torsions:
REMARK  status: ('A' for Active; 'I' for Inactive)
REMARK    1  A    between atoms: C_3  and  C_8
REMARK    2  A    between atoms: C_10  and  C_14
REMARK                            x       y       z     vdW  Elec       q    Type
REMARK                         _______ _______ _______ _____ _____    ______ ____
ROOT
ATOM      1  C   UNL     1       2.138   2.393  -0.115  0.00  0.00    +0.074 A 
ATOM      2  N   UNL     1       2.802   3.533   0.204  0.00  0.00    -0.255 NA
ATOM      3  C   UNL     1       2.167   4.710   0.006  0.00  0.00    +0.112 A 
ATOM      4  C   UNL     1       0.885   4.821  -0.505  0.00  0.00    +0.029 A 
ATOM      5  C   UNL     1       0.197   3.655  -0.825  0.00  0.00    +0.002 A 
ATOM      6  C   UNL     1       0.840   2.431  -0.623  0.00  0.00    +0.038 A 
ENDROOT
BRANCH   5   7
ATOM      7  C   UNL     1      -1.147   3.698  -1.404  0.00  0.00    +0.048 A 
ATOM      8  N   UNL     1      -2.088   2.707  -1.190  0.00  0.00    -0.357 N 
ATOM      9  H   UNL     1      -1.947   1.895  -0.602  0.00  0.00    +0.166 HD
ATOM     10  C   UNL     1      -3.230   2.996  -1.879  0.00  0.00    +0.030 A 
ATOM     11  C   UNL     1      -4.452   2.161  -1.901  0.00  0.00    +0.072 C 
ATOM     12  C   UNL     1      -5.533   2.768  -2.821  0.00  0.00    +0.110 C 
ATOM     13  N   UNL     1      -5.277   4.086  -3.397  0.00  0.00    -0.311 N 
ATOM     14  H   UNL     1      -5.978   4.510  -3.988  0.00  0.00    +0.149 HD
ATOM     15  C   UNL     1      -4.100   4.797  -3.343  0.00  0.00    +0.246 C 
ATOM     16  O   UNL     1      -3.971   5.864  -3.933  0.00  0.00    -0.270 OA
ATOM     17  C   UNL     1      -3.059   4.197  -2.531  0.00  0.00    +0.058 A 
ATOM     18  C   UNL     1      -1.748   4.640  -2.228  0.00  0.00    +0.041 A 
ENDBRANCH   5   7
BRANCH   1  25
ATOM     19  F   UNL     1       0.968  -0.181   0.490  0.00  0.00    -0.205 F 
ATOM     20  C   UNL     1       2.285  -0.108   0.231  0.00  0.00    +0.133 A 
ATOM     21  C   UNL     1       2.996  -1.307   0.198  0.00  0.00    +0.039 A 
ATOM     22  C   UNL     1       4.364  -1.294  -0.056  0.00  0.00    +0.003 A 
ATOM     23  C   UNL     1       5.016  -0.079  -0.245  0.00  0.00    +0.001 A 
ATOM     24  C   UNL     1       4.293   1.119  -0.214  0.00  0.00    +0.013 A 
ATOM     25  C   UNL     1       2.900   1.133  -0.006  0.00  0.00    +0.036 A 
ENDBRANCH   1  25
TORSDOF 2
