REMARK  Name = 
REMARK  5 active torsions:
REMARK  status: ('A' for Active; 'I' for Inactive)
REMARK    1  A    between atoms: C_1  and  C_2
REMARK    2  A    between atoms: N_6  and  C_7
REMARK    3  A    between atoms: C_7  and  C_8
REMARK    4  A    between atoms: C_8  and  C_9
REMARK    5  A    between atoms: C_16  and  C_18
REMARK                            x       y       z     vdW  Elec       q    Type
REMARK                         _______ _______ _______ _____ _____    ______ ____
ROOT
ATOM      1  C   UNL     1       1.119  -0.207  -0.030  0.00  0.00    +0.067 C 
ATOM      2  C   UNL     1       2.606  -0.022   0.000  0.00  0.00    +0.062 A 
ATOM      3  N   UNL     1       3.314  -1.172  -0.031  0.00  0.00    -0.230 NA
ATOM      4  C   UNL     1       4.661  -1.095  -0.017  0.00  0.00    +0.180 A 
ATOM      5  N   UNL     1       5.346   0.070   0.005  0.00  0.00    -0.210 NA
ATOM      6  C   UNL     1       4.632   1.214   0.035  0.00  0.00    +0.141 A 
ATOM      7  N   UNL     1       5.314   2.447   0.158  0.00  0.00    -0.327 N 
ATOM      8  H   UNL     1       4.730   3.184  -0.235  0.00  0.00    +0.148 HD
ATOM      9  C   UNL     1       3.231   1.211   0.055  0.00  0.00    +0.102 A 
ATOM     10 CL   UNL     1       2.353   2.702   0.077  0.00  0.00    -0.078 Cl
ENDROOT
BRANCH   4  11
ATOM     11  C   UNL     1       5.430  -2.370  -0.009  0.00  0.00    +0.108 A 
ATOM     12  C   UNL     1       6.826  -2.396   0.046  0.00  0.00    +0.031 A 
ATOM     13  C   UNL     1       7.493  -3.623   0.056  0.00  0.00    +0.004 A 
ATOM     14  C   UNL     1       6.761  -4.799   0.013  0.00  0.00    +0.020 A 
ATOM     15  C   UNL     1       5.383  -4.704  -0.039  0.00  0.00    +0.111 A 
ATOM     16  N   UNL     1       4.712  -3.533  -0.052  0.00  0.00    -0.252 NA
ENDBRANCH   4  11
BRANCH   7  17
ATOM     17  C   UNL     1       6.672   2.482  -0.385  0.00  0.00    +0.107 C 
BRANCH  17  18
ATOM     18  C   UNL     1       7.252   3.889  -0.174  0.00  0.00    +0.054 C 
BRANCH  18  19
ATOM     19  C   UNL     1       8.611   4.066  -0.803  0.00  0.00    -0.046 A 
ATOM     20  C   UNL     1       9.773   3.772  -0.078  0.00  0.00    +0.004 A 
ATOM     21  C   UNL     1      11.031   3.942  -0.659  0.00  0.00    +0.000 A 
ATOM     22  C   UNL     1      11.138   4.403  -1.970  0.00  0.00    +0.000 A 
ATOM     23  C   UNL     1       9.989   4.694  -2.701  0.00  0.00    +0.000 A 
ATOM     24  C   UNL     1       8.730   4.525  -2.122  0.00  0.00    +0.004 A 
ENDBRANCH  18  19
ENDBRANCH  17  18
ENDBRANCH   7  17
TORSDOF 4
