REMARK  Name = 
REMARK  8 active torsions:
REMARK  status: ('A' for Active; 'I' for Inactive)
REMARK    1  A    between atoms: C_2  and  O_3
REMARK    2  A    between atoms: N_5  and  C_6
REMARK    3  A    between atoms: C_6  and  C_7
REMARK    4  A    between atoms: C_7  and  C_8
REMARK    5  A    between atoms: C_8  and  C_9
REMARK    6  A    between atoms: C_16  and  C_18
REMARK    7  A    between atoms: C_18  and  O_19
REMARK    8  A    between atoms: C_20  and  O_22
REMARK                            x       y       z     vdW  Elec       q    Type
REMARK                         _______ _______ _______ _____ _____    ______ ____
ROOT
ATOM      1  C   UNL     1       2.009  -0.025  -0.009  0.00  0.00    +0.157 C 
ATOM      2  C   UNL     1       2.498   1.058  -0.990  0.00  0.00    +0.151 C 
ATOM      3  C   UNL     1       2.114   0.699  -2.425  0.00  0.00    +0.059 C 
ATOM      4  C   UNL     1       2.593  -0.716  -2.770  0.00  0.00    +0.092 C 
ATOM      5  N   UNL     1       2.079  -1.733  -1.833  0.00  0.00    -0.299 NA
ATOM      6  C   UNL     1       2.499  -1.412  -0.458  0.00  0.00    +0.118 C 
ENDROOT
BRANCH   2   7
ATOM      7  O   UNL     1       1.939   2.341  -0.671  0.00  0.00    -0.389 OA
ATOM      8  H   UNL     1       1.035   2.202  -0.341  0.00  0.00    +0.210 HD
ENDBRANCH   2   7
BRANCH   1   9
ATOM      9  O   UNL     1       2.499   0.272   1.302  0.00  0.00    -0.388 OA
ATOM     10  H   UNL     1       2.098  -0.366   1.917  0.00  0.00    +0.210 HD
ENDBRANCH   1   9
BRANCH   3  11
ATOM     11  C   UNL     1       2.661   1.702  -3.448  0.00  0.00    +0.163 C 
BRANCH  11  12
ATOM     12  O   UNL     1       4.078   1.618  -3.561  0.00  0.00    -0.395 OA
ATOM     13  H   UNL     1       4.457   2.009  -2.754  0.00  0.00    +0.209 HD
ENDBRANCH  11  12
ENDBRANCH   3  11
BRANCH   5  14
ATOM     14  C   UNL     1       2.546  -3.090  -2.199  0.00  0.00    +0.085 C 
BRANCH  14  15
ATOM     15  C   UNL     1       2.107  -3.515  -3.608  0.00  0.00    +0.020 C 
BRANCH  15  16
ATOM     16  C   UNL     1       2.549  -4.937  -3.955  0.00  0.00    +0.036 C 
BRANCH  16  17
ATOM     17  C   UNL     1       2.153  -5.276  -5.374  0.00  0.00    -0.047 A 
ATOM     18  C   UNL     1       0.899  -5.839  -5.646  0.00  0.00    +0.003 A 
ATOM     19  C   UNL     1       0.508  -6.099  -6.960  0.00  0.00    +0.000 A 
ATOM     20  C   UNL     1       1.364  -5.792  -8.015  0.00  0.00    +0.000 A 
ATOM     21  C   UNL     1       2.613  -5.226  -7.759  0.00  0.00    +0.000 A 
ATOM     22  C   UNL     1       3.005  -4.967  -6.444  0.00  0.00    +0.003 A 
ENDBRANCH  16  17
ENDBRANCH  15  16
ENDBRANCH  14  15
ENDBRANCH   5  14
TORSDOF 8
