REMARK  Name = 
REMARK  16 active torsions:
REMARK  status: ('A' for Active; 'I' for Inactive)
REMARK    1  A    between atoms: C_2  and  O_3
REMARK    2  A    between atoms: C_2  and  C_4
REMARK    3  A    between atoms: C_2  and  C_10
REMARK    4  A    between atoms: C_4  and  C_5
REMARK    5  A    between atoms: C_5  and  C_6
REMARK    6  A    between atoms: C_6  and  C_7
REMARK    7  A    between atoms: C_7  and  O_8
REMARK    8  A    between atoms: C_11  and  C_12
REMARK    9  A    between atoms: C_13  and  C_14
REMARK   10  A    between atoms: C_14  and  C_15
REMARK   11  A    between atoms: C_16  and  C_17
REMARK   12  A    between atoms: C_17  and  C_18
REMARK   13  A    between atoms: C_19  and  C_20
REMARK   14  A    between atoms: C_20  and  C_21
REMARK   15  A    between atoms: C_22  and  C_23
REMARK   16  A    between atoms: C_23  and  C_24
REMARK                            x       y       z     vdW  Elec       q    Type
REMARK                         _______ _______ _______ _____ _____    ______ ____
ROOT
ATOM      1  C   UNL     1       4.868   0.234   3.602  0.00  0.00    -0.004 C 
ATOM      2  C   UNL     1       5.783   1.109   3.152  0.00  0.00    -0.023 C 
ENDROOT
BRANCH   1   4
ATOM      3  C   UNL     1       3.771  -1.709   2.588  0.00  0.00    +0.004 C 
ATOM      4  C   UNL     1       4.825  -1.148   3.197  0.00  0.00    -0.002 C 
BRANCH   3   5
ATOM      5  C   UNL     1       3.768  -3.124   2.091  0.00  0.00    +0.137 C 
BRANCH   5   6
ATOM      6  O   UNL     1       3.521  -3.064   0.691  0.00  0.00    -0.388 OA
ATOM      7  H   UNL     1       3.863  -3.888   0.304  0.00  0.00    +0.210 HD
ENDBRANCH   5   6
BRANCH   5   8
ATOM      8  C   UNL     1       2.676  -3.952   2.774  0.00  0.00    +0.036 C 
BRANCH   8   9
ATOM      9  C   UNL     1       2.691  -5.414   2.315  0.00  0.00    +0.014 C 
BRANCH   9  10
ATOM     10  C   UNL     1       1.608  -6.231   3.021  0.00  0.00    +0.120 C 
BRANCH  10  11
ATOM     11  C   UNL     1       1.619  -7.675   2.574  0.00  0.00    +0.305 C 
ATOM     12  O   UNL     1       2.399  -8.159   1.768  0.00  0.00    -0.251 OA
BRANCH  11  13
ATOM     13  O   UNL     1       0.655  -8.405   3.178  0.00  0.00    -0.481 OA
ATOM     14  H   UNL     1       0.105  -7.893   3.801  0.00  0.00    +0.295 HD
ENDBRANCH  11  13
ENDBRANCH  10  11
ENDBRANCH   9  10
ENDBRANCH   8   9
ENDBRANCH   5   8
ENDBRANCH   3   5
ENDBRANCH   1   4
BRANCH   2  15
ATOM     15  C   UNL     1       6.808   0.840   2.086  0.00  0.00    +0.054 C 
BRANCH  15  16
ATOM     16  C   UNL     1       8.222   0.966   2.578  0.00  0.00    -0.027 C 
ATOM     17  C   UNL     1       9.293   0.661   1.823  0.00  0.00    -0.027 C 
BRANCH  17  18
ATOM     18  C   UNL     1       9.241   0.226   0.384  0.00  0.00    +0.053 C 
BRANCH  18  19
ATOM     19  C   UNL     1       9.132  -1.266   0.237  0.00  0.00    -0.027 C 
ATOM     20  C   UNL     1       8.921  -1.889  -0.937  0.00  0.00    -0.027 C 
BRANCH  20  21
ATOM     21  C   UNL     1       8.870  -1.211  -2.277  0.00  0.00    +0.053 C 
BRANCH  21  22
ATOM     22  C   UNL     1       7.479  -0.824  -2.686  0.00  0.00    -0.027 C 
ATOM     23  C   UNL     1       7.188  -0.111  -3.789  0.00  0.00    -0.031 C 
BRANCH  23  24
ATOM     24  C   UNL     1       8.185   0.385  -4.797  0.00  0.00    +0.023 C 
ATOM     25  C   UNL     1       8.176   1.901  -4.907  0.00  0.00    +0.008 C 
ENDBRANCH  23  24
ENDBRANCH  21  22
ENDBRANCH  20  21
ENDBRANCH  18  19
ENDBRANCH  17  18
ENDBRANCH  15  16
ENDBRANCH   2  15
TORSDOF 15
