REMARK  Name = 
REMARK  17 active torsions:
REMARK  status: ('A' for Active; 'I' for Inactive)
REMARK    1  A    between atoms: C_2  and  C_3
REMARK    2  A    between atoms: C_2  and  N_4
REMARK    3  A    between atoms: C_2  and  C_23
REMARK    4  A    between atoms: C_5  and  C_7
REMARK    5  A    between atoms: C_7  and  N_9
REMARK    6  A    between atoms: C_7  and  C_20
REMARK    7  A    between atoms: C_10  and  O_12
REMARK    8  A    between atoms: O_12  and  C_13
REMARK    9  A    between atoms: C_13  and  C_14
REMARK   10  A    between atoms: C_20  and  C_21
REMARK   11  A    between atoms: C_20  and  C_22
REMARK   12  A    between atoms: N_25  and  C_26
REMARK   13  A    between atoms: C_26  and  C_28
REMARK   14  A    between atoms: C_26  and  C_32
REMARK   15  A    between atoms: C_28  and  C_29
REMARK   16  A    between atoms: C_29  and  O_30
REMARK   17  A    between atoms: C_32  and  C_33
REMARK                            x       y       z     vdW  Elec       q    Type
REMARK                         _______ _______ _______ _____ _____    ______ ____
ROOT
ATOM      1  N   UNL     1       2.204  -1.721   2.638  0.00  0.00    -0.303 N 
ATOM      2  H   UNL     1       2.753  -2.221   3.328  0.00  0.00    +0.149 HD
ATOM      3  C   UNL     1       2.280  -2.222   1.359  0.00  0.00    +0.234 C 
ATOM      4  O   UNL     1       2.098  -1.539   0.355  0.00  0.00    -0.274 OA
ENDROOT
BRANCH   1   5
ATOM      5  C   UNL     1       1.821  -0.357   2.986  0.00  0.00    +0.156 C 
ATOM      6  C   UNL     1       0.407  -0.029   2.522  0.00  0.00    +0.038 C 
BRANCH   5   7
ATOM      7  C   UNL     1       1.943  -0.247   4.530  0.00  0.00    +0.234 C 
ATOM      8  N   UNL     1       3.212  -0.556   5.016  0.00  0.00    -0.304 N 
ATOM      9  H   UNL     1       3.969  -0.291   4.388  0.00  0.00    +0.149 HD
ATOM     10  O   UNL     1       1.027   0.084   5.275  0.00  0.00    -0.274 OA
BRANCH   8  11
ATOM     11  C   UNL     1       3.488  -0.434   6.457  0.00  0.00    +0.149 C 
BRANCH  11  12
ATOM     12  C   UNL     1       3.834   1.029   6.770  0.00  0.00    +0.151 C 
ATOM     13  O   UNL     1       4.413   1.737   5.939  0.00  0.00    -0.296 OA
ATOM     14  C   UNL     1       3.545   1.543   8.160  0.00  0.00    +0.088 C 
ENDBRANCH  11  12
BRANCH  11  15
ATOM     15  C   UNL     1       4.678  -1.288   6.880  0.00  0.00    +0.150 C 
BRANCH  15  16
ATOM     16  C   UNL     1       4.361  -2.755   6.928  0.00  0.00    +0.307 C 
ATOM     17  O   UNL     1       4.481  -3.428   7.941  0.00  0.00    -0.251 OA
BRANCH  16  18
ATOM     18  O   UNL     1       3.998  -3.296   5.750  0.00  0.00    -0.481 OA
ATOM     19  H   UNL     1       4.093  -2.702   4.971  0.00  0.00    +0.295 HD
ENDBRANCH  16  18
ENDBRANCH  15  16
ENDBRANCH  11  15
ENDBRANCH   8  11
ENDBRANCH   5   7
ENDBRANCH   1   5
BRANCH   3  20
ATOM     20  C   UNL     1       2.743  -3.705   1.284  0.00  0.00    +0.165 C 
BRANCH  20  21
ATOM     21  N   UNL     1       4.199  -3.728   1.196  0.00  0.00    -0.270 N 
ATOM     22  H   UNL     1       4.633  -3.995   0.322  0.00  0.00    +0.153 HD
ATOM     23  C   UNL     1       5.039  -3.261   2.155  0.00  0.00    +0.401 C 
ATOM     24  O   UNL     1       4.698  -2.753   3.214  0.00  0.00    -0.226 OA
BRANCH  23  25
ATOM     25  O   UNL     1       6.308  -3.383   1.702  0.00  0.00    -0.446 OA
BRANCH  25  26
ATOM     26  C   UNL     1       7.277  -2.563   2.365  0.00  0.00    +0.269 C 
BRANCH  26  27
ATOM     27  C   UNL     1       7.302  -1.231   1.661  0.00  0.00    -0.010 A 
ATOM     28  C   UNL     1       7.620  -1.167   0.295  0.00  0.00    +0.007 A 
ATOM     29  C   UNL     1       7.566   0.046  -0.391  0.00  0.00    +0.000 A 
ATOM     30  C   UNL     1       7.197   1.208   0.283  0.00  0.00    +0.000 A 
ATOM     31  C   UNL     1       6.891   1.159   1.643  0.00  0.00    +0.000 A 
ATOM     32  C   UNL     1       6.944  -0.054   2.331  0.00  0.00    +0.007 A 
ENDBRANCH  26  27
ENDBRANCH  25  26
ENDBRANCH  23  25
ENDBRANCH  20  21
BRANCH  20  33
ATOM     33  C   UNL     1       2.180  -4.623   2.398  0.00  0.00    +0.012 C 
ATOM     34  C   UNL     1       2.656  -6.071   2.235  0.00  0.00    +0.009 C 
ATOM     35  C   UNL     1       0.647  -4.601   2.422  0.00  0.00    +0.009 C 
ENDBRANCH  20  33
ENDBRANCH   3  20
TORSDOF 13
