REMARK  Name = 
REMARK  2 active torsions:
REMARK  status: ('A' for Active; 'I' for Inactive)
REMARK    1  A    between atoms: N_8  and  C_9
REMARK    2  A    between atoms: C_9  and  C_10
REMARK                            x       y       z     vdW  Elec       q    Type
REMARK                         _______ _______ _______ _____ _____    ______ ____
ROOT
ATOM      1  F   UNL     1       0.955  -0.288  -0.189  0.00  0.00    -0.205 F 
ATOM      2  C   UNL     1       2.292  -0.244  -0.134  0.00  0.00    +0.124 A 
ATOM      3  C   UNL     1       2.937   0.989  -0.195  0.00  0.00    +0.044 A 
ATOM      4  C   UNL     1       4.341   1.065  -0.088  0.00  0.00    -0.008 A 
ATOM      5  C   UNL     1       5.060  -0.127   0.088  0.00  0.00    +0.042 A 
ATOM      6  C   UNL     1       6.515  -0.091   0.385  0.00  0.00    +0.253 C 
ATOM      7  N   UNL     1       7.083   1.165   0.534  0.00  0.00    -0.233 N 
ATOM      8  C   UNL     1       6.584   2.251  -0.165  0.00  0.00    +0.242 C 
ATOM      9  O   UNL     1       7.301   3.099  -0.692  0.00  0.00    -0.274 OA
ATOM     10  O   UNL     1       7.135  -1.143   0.509  0.00  0.00    -0.270 OA
ATOM     11  C   UNL     1       4.400  -1.366   0.110  0.00  0.00    +0.016 A 
ATOM     12  C   UNL     1       5.070   2.400  -0.095  0.00  0.00    +0.157 C 
ATOM     13  C   UNL     1       4.567   3.328  -1.188  0.00  0.00    +0.239 C 
ATOM     14  O   UNL     1       4.489   3.063  -2.378  0.00  0.00    -0.274 OA
ATOM     15  N   UNL     1       4.133   4.482  -0.625  0.00  0.00    -0.255 N 
ATOM     16  H   UNL     1       3.721   5.235  -1.162  0.00  0.00    +0.158 HD
ATOM     17  C   UNL     1       4.148   4.462   0.725  0.00  0.00    +0.221 C 
ATOM     18  O   UNL     1       3.697   5.330   1.451  0.00  0.00    -0.275 OA
ATOM     19  C   UNL     1       4.775   3.187   1.200  0.00  0.00    +0.126 C 
ATOM     20  C   UNL     1       3.011  -1.422   0.005  0.00  0.00    +0.039 A 
ENDROOT
BRANCH   7  21
ATOM     21  C   UNL     1       8.416   1.256   1.126  0.00  0.00    +0.154 C 
BRANCH  21  22
ATOM     22  C   UNL     1       8.279   1.282   2.638  0.00  0.00    +0.006 A 
ATOM     23  C   UNL     1       8.078   2.490   3.314  0.00  0.00    +0.129 A 
ATOM     24  F   UNL     1       8.115   3.645   2.635  0.00  0.00    -0.205 F 
ATOM     25  C   UNL     1       7.785   2.529   4.675  0.00  0.00    +0.054 A 
ATOM     26  C   UNL     1       7.691   1.334   5.381  0.00  0.00    +0.021 A 
ATOM     27 BR   UNL     1       7.195   1.356   7.205  0.00  0.00    -0.050 Br
ATOM     28  C   UNL     1       7.923   0.116   4.743  0.00  0.00    +0.016 A 
ATOM     29  C   UNL     1       8.219   0.090   3.377  0.00  0.00    +0.009 A 
ENDBRANCH  21  22
ENDBRANCH   7  21
TORSDOF 2
