REMARK  Name = 
REMARK  6 active torsions:
REMARK  status: ('A' for Active; 'I' for Inactive)
REMARK    1  A    between atoms: C_1  and  C_2
REMARK    2  A    between atoms: C_2  and  C_3
REMARK    3  A    between atoms: C_3  and  C_4
REMARK    4  A    between atoms: C_4  and  C_5
REMARK    5  A    between atoms: C_6  and  C_14
REMARK    6  A    between atoms: C_17  and  O_18
REMARK                            x       y       z     vdW  Elec       q    Type
REMARK                         _______ _______ _______ _____ _____    ______ ____
ROOT
ATOM      1  C   UNL     1       5.059   2.346  -1.613  0.00  0.00    +0.005 A 
ATOM      2  C   UNL     1       5.827   2.445  -2.807  0.00  0.00    +0.111 A 
ATOM      3  C   UNL     1       6.008   3.792  -3.084  0.00  0.00    +0.157 A 
ATOM      4  N   UNL     1       6.653   4.312  -4.152  0.00  0.00    -0.234 NA
ATOM      5  C   UNL     1       7.135   3.325  -4.949  0.00  0.00    +0.133 A 
ATOM      6  C   UNL     1       6.979   1.969  -4.694  0.00  0.00    +0.131 A 
ATOM      7  N   UNL     1       5.407   4.499  -2.085  0.00  0.00    -0.338 N 
ATOM      8  H   UNL     1       5.396   5.506  -2.054  0.00  0.00    +0.167 HD
ATOM      9  N   UNL     1       6.319   1.475  -3.623  0.00  0.00    -0.250 NA
ATOM     10  C   UNL     1       4.832   3.651  -1.151  0.00  0.00    +0.053 A 
ENDROOT
BRANCH  10  11
ATOM     11  C   UNL     1       4.091   4.157   0.019  0.00  0.00    -0.001 A 
ATOM     12  C   UNL     1       3.376   5.363  -0.034  0.00  0.00    +0.013 A 
ATOM     13  C   UNL     1       2.571   5.767   1.038  0.00  0.00    +0.046 A 
ATOM     14  C   UNL     1       2.462   4.960   2.162  0.00  0.00    +0.117 A 
ATOM     15  C   UNL     1       3.197   3.789   2.264  0.00  0.00    +0.046 A 
ATOM     16  C   UNL     1       4.028   3.411   1.207  0.00  0.00    +0.013 A 
BRANCH  14  17
ATOM     17  O   UNL     1       1.606   5.346   3.149  0.00  0.00    -0.507 OA
ATOM     18  H   UNL     1       1.524   4.619   3.787  0.00  0.00    +0.292 HD
ENDBRANCH  14  17
ENDBRANCH  10  11
BRANCH   1  19
ATOM     19  C   UNL     1       4.580   1.040  -1.046  0.00  0.00    +0.039 C 
BRANCH  19  20
ATOM     20  C   UNL     1       3.053   0.926  -1.032  0.00  0.00    +0.004 C 
BRANCH  20  22
ATOM     21  C   UNL     1       1.077  -0.460  -0.356  0.00  0.00    +0.004 C 
ATOM     22  C   UNL     1       2.594  -0.396  -0.427  0.00  0.00    -0.003 C 
ENDBRANCH  20  22
ENDBRANCH  19  20
ENDBRANCH   1  19
TORSDOF 5
