REMARK  Name = 
REMARK  3 active torsions:
REMARK  status: ('A' for Active; 'I' for Inactive)
REMARK    1  A    between atoms: O_1  and  C_2
REMARK    2  A    between atoms: C_5  and  N_8
REMARK    3  A    between atoms: C_13  and  O_14
REMARK                            x       y       z     vdW  Elec       q    Type
REMARK                         _______ _______ _______ _____ _____    ______ ____
ROOT
ATOM      1  N   UNL     1       6.664   0.306  -0.557  0.00  0.00    -0.220 N 
ATOM      2  C   UNL     1       7.501   1.404  -0.678  0.00  0.00    +0.141 A 
ATOM      3 CL   UNL     1       6.962   3.025  -0.653  0.00  0.00    -0.061 Cl
ATOM      4  C   UNL     1       8.745   0.917  -0.959  0.00  0.00    +0.042 A 
ATOM      5  C   UNL     1       8.623  -0.512  -0.997  0.00  0.00    +0.095 A 
ATOM      6  C   UNL     1       9.743  -1.321  -1.263  0.00  0.00    +0.034 A 
ATOM      7  C   UNL     1      10.932  -0.596  -1.508  0.00  0.00    +0.047 A 
ATOM      8  C   UNL     1      10.987   0.829  -1.486  0.00  0.00    +0.118 A 
ATOM      9  C   UNL     1       9.894   1.665  -1.206  0.00  0.00    +0.058 A 
ATOM     10  N   UNL     1       7.348  -0.863  -0.781  0.00  0.00    -0.165 NA
ENDROOT
BRANCH   1  14
ATOM     11  C   UNL     1       2.497   0.049   0.099  0.00  0.00    +0.117 A 
ATOM     12  C   UNL     1       3.161  -0.959  -0.586  0.00  0.00    +0.047 A 
ATOM     13  C   UNL     1       4.544  -0.881  -0.765  0.00  0.00    +0.031 A 
ATOM     14  C   UNL     1       5.263   0.228  -0.284  0.00  0.00    +0.067 A 
ATOM     15  C   UNL     1       4.582   1.214   0.441  0.00  0.00    +0.031 A 
ATOM     16  C   UNL     1       3.198   1.126   0.629  0.00  0.00    +0.047 A 
BRANCH  11  17
ATOM     17  O   UNL     1       1.145  -0.055   0.234  0.00  0.00    -0.507 OA
ATOM     18  H   UNL     1       0.814   0.740   0.684  0.00  0.00    +0.292 HD
ENDBRANCH  11  17
ENDBRANCH   1  14
BRANCH   8  19
ATOM     19  O   UNL     1      12.172   1.466  -1.760  0.00  0.00    -0.507 OA
ATOM     20  H   UNL     1      12.851   0.800  -1.959  0.00  0.00    +0.292 HD
ENDBRANCH   8  19
TORSDOF 3
