REMARK  Name = 
REMARK  4 active torsions:
REMARK  status: ('A' for Active; 'I' for Inactive)
REMARK    1  A    between atoms: O_1  and  C_2
REMARK    2  A    between atoms: C_2  and  C_4
REMARK    3  A    between atoms: C_4  and  O_5
REMARK    4  A    between atoms: O_5  and  N_6
REMARK                            x       y       z     vdW  Elec       q    Type
REMARK                         _______ _______ _______ _____ _____    ______ ____
ROOT
ATOM      1  N   UNL     1       4.739  -2.243  -1.150  0.00  0.00    -0.082 NA
ATOM      2  C   UNL     1       5.799  -2.148  -0.412  0.00  0.00    +0.137 C 
ATOM      3  C   UNL     1       5.682  -2.241   1.100  0.00  0.00    +0.106 C 
ATOM      4  C   UNL     1       5.160  -3.292   1.751  0.00  0.00    +0.075 C 
ATOM      5  C   UNL     1       4.366  -4.443   1.438  0.00  0.00    +0.009 C 
ATOM      6  C   UNL     1       4.791  -5.462   2.410  0.00  0.00    +0.046 C 
ATOM      7  C   UNL     1       4.304  -6.877   2.309  0.00  0.00    +0.080 C 
ATOM      8  C   UNL     1       2.859  -6.818   1.903  0.00  0.00    -0.021 C 
ATOM      9  C   UNL     1       2.337  -5.768   1.245  0.00  0.00    -0.003 C 
ATOM     10  N   UNL     1       5.551  -4.980   3.348  0.00  0.00    -0.180 NA
ATOM     11  C   UNL     1       3.145  -4.603   0.902  0.00  0.00    +0.010 C 
ATOM     12  C   UNL     1       5.693  -3.616   3.119  0.00  0.00    +0.270 C 
ATOM     13  O   UNL     1       6.235  -2.846   3.881  0.00  0.00    -0.268 OA
ATOM     14  N   UNL     1       6.006  -1.013   1.670  0.00  0.00    -0.248 NA
ATOM     15  C   UNL     1       6.598  -0.312   0.739  0.00  0.00    +0.055 C 
ATOM     16  C   UNL     1       6.891   1.159   0.730  0.00  0.00    +0.083 C 
ATOM     17  C   UNL     1       8.119   1.409  -0.104  0.00  0.00    -0.021 C 
ATOM     18  C   UNL     1       8.626   0.487  -0.944  0.00  0.00    -0.003 C 
ATOM     19  C   UNL     1       7.914  -0.759  -1.210  0.00  0.00    +0.012 C 
ATOM     20  C   UNL     1       6.847  -1.097  -0.474  0.00  0.00    +0.027 C 
ENDROOT
BRANCH   1  21
ATOM     21  O   UNL     1       4.306  -0.918  -1.381  0.00  0.00    -0.382 OA
BRANCH  21  22
ATOM     22  C   UNL     1       2.992  -0.900  -1.909  0.00  0.00    +0.382 C 
BRANCH  22  23
ATOM     23  C   UNL     1       1.896  -0.654  -0.882  0.00  0.00    +0.345 C 
ATOM     24  O   UNL     1       0.719  -0.503  -1.186  0.00  0.00    -0.247 OA
BRANCH  23  25
ATOM     25  O   UNL     1       2.310  -0.613   0.405  0.00  0.00    -0.478 OA
ATOM     26  H   UNL     1       3.279  -0.731   0.490  0.00  0.00    +0.295 HD
ENDBRANCH  23  25
ENDBRANCH  22  23
ENDBRANCH  21  22
ENDBRANCH   1  21
TORSDOF 4
