REMARK  Name = 
REMARK  11 active torsions:
REMARK  status: ('A' for Active; 'I' for Inactive)
REMARK    1  A    between atoms: C_1  and  O_2
REMARK    2  A    between atoms: O_2  and  C_3
REMARK    3  A    between atoms: C_5  and  O_6
REMARK    4  A    between atoms: C_7  and  C_15
REMARK    5  A    between atoms: C_9  and  C_10
REMARK    6  A    between atoms: C_10  and  C_11
REMARK    7  A    between atoms: C_12  and  C_13
REMARK    8  A    between atoms: C_12  and  C_14
REMARK    9  A    between atoms: C_15  and  C_17
REMARK   10  A    between atoms: C_18  and  C_19
REMARK   11  A    between atoms: C_22  and  O_23
REMARK                            x       y       z     vdW  Elec       q    Type
REMARK                         _______ _______ _______ _____ _____    ______ ____
ROOT
ATOM      1  C   UNL     1       3.017  -0.536  -1.132  0.00  0.00    +0.127 A 
ATOM      2  C   UNL     1       2.980  -1.944  -1.087  0.00  0.00    -0.001 A 
ATOM      3  C   UNL     1       3.524  -2.662  -2.176  0.00  0.00    +0.022 A 
ATOM      4  C   UNL     1       4.081  -1.998  -3.284  0.00  0.00    +0.064 A 
ATOM      5  C   UNL     1       4.201  -0.608  -3.249  0.00  0.00    +0.131 A 
ATOM      6  C   UNL     1       3.684   0.114  -2.179  0.00  0.00    +0.092 A 
ENDROOT
BRANCH   1   8
ATOM      7  C   UNL     1       1.885   1.452  -0.542  0.00  0.00    +0.277 C 
ATOM      8  O   UNL     1       2.375   0.167  -0.140  0.00  0.00    -0.495 OA
ENDBRANCH   1   8
BRANCH   4   9
ATOM      9  C   UNL     1       4.512  -2.803  -4.460  0.00  0.00    +0.190 C 
ATOM     10  O   UNL     1       4.935  -3.945  -4.319  0.00  0.00    -0.287 OA
BRANCH   9  11
ATOM     11  C   UNL     1       4.318  -2.195  -5.807  0.00  0.00    +0.052 C 
ATOM     12  C   UNL     1       5.029  -2.602  -6.868  0.00  0.00    +0.012 C 
BRANCH  12  13
ATOM     13  C   UNL     1       4.896  -1.999  -8.204  0.00  0.00    -0.025 A 
ATOM     14  C   UNL     1       5.087  -2.806  -9.333  0.00  0.00    +0.011 A 
ATOM     15  C   UNL     1       4.938  -2.279 -10.619  0.00  0.00    +0.046 A 
ATOM     16  C   UNL     1       4.612  -0.939 -10.782  0.00  0.00    +0.117 A 
ATOM     17  C   UNL     1       4.464  -0.107  -9.679  0.00  0.00    +0.046 A 
ATOM     18  C   UNL     1       4.618  -0.636  -8.393  0.00  0.00    +0.011 A 
BRANCH  16  19
ATOM     19  O   UNL     1       4.441  -0.475 -12.052  0.00  0.00    -0.507 OA
ATOM     20  H   UNL     1       4.116   0.439 -12.008  0.00  0.00    +0.292 HD
ENDBRANCH  16  19
ENDBRANCH  12  13
ENDBRANCH   9  11
ENDBRANCH   4   9
BRANCH   5  21
ATOM     21  O   UNL     1       4.822   0.077  -4.259  0.00  0.00    -0.506 OA
ATOM     22  H   UNL     1       4.860   1.023  -4.041  0.00  0.00    +0.292 HD
ENDBRANCH   5  21
BRANCH   2  23
ATOM     23  C   UNL     1       2.313  -2.712   0.039  0.00  0.00    +0.066 C 
BRANCH  23  24
ATOM     24  C   UNL     1       3.200  -3.127   1.185  0.00  0.00    -0.023 C 
ATOM     25  C   UNL     1       3.593  -4.370   1.544  0.00  0.00    -0.079 C 
ATOM     26  C   UNL     1       4.309  -4.618   2.851  0.00  0.00    +0.038 C 
ATOM     27  C   UNL     1       3.342  -5.625   0.752  0.00  0.00    +0.038 C 
ENDBRANCH  23  24
ENDBRANCH   2  23
TORSDOF 8
