REMARK  Name = 
REMARK  18 active torsions:
REMARK  status: ('A' for Active; 'I' for Inactive)
REMARK    1  A    between atoms: CB_2  and  CG2_3
REMARK    2  A    between atoms: CB_2  and  CG1_4
REMARK    3  A    between atoms: CB_2  and  CA_6
REMARK    4  A    between atoms: CG1_4  and  CD1_5
REMARK    5  A    between atoms: CA_6  and  N_8
REMARK    6  A    between atoms: CA_6  and  C_31
REMARK    7  A    between atoms: C_9  and  CA_11
REMARK    8  A    between atoms: CA_11  and  N_13
REMARK    9  A    between atoms: CA_11  and  CB_26
REMARK   10  A    between atoms: C_14  and  C_16
REMARK   11  A    between atoms: C_19  and  C_21
REMARK   12  A    between atoms: C_21  and  O_23
REMARK   13  A    between atoms: O_23  and  C_24
REMARK   14  A    between atoms: C_24  and  C_25
REMARK   15  A    between atoms: CB_26  and  CG2_28
REMARK   16  A    between atoms: CB_26  and  CG1_29
REMARK   17  A    between atoms: CG1_29  and  CD1_30
REMARK   18  A    between atoms: C_31  and  O_32
REMARK                            x       y       z     vdW  Elec       q    Type
REMARK                         _______ _______ _______ _____ _____    ______ ____
ROOT
ATOM      1  CA  ILE A   1       0.201  -1.562   3.613  0.00  0.00    +0.162 C 
ENDROOT
BRANCH   1   4
ATOM      2  N   ILE A   1       2.156  -0.743   2.360  0.00  0.00    -0.301 N 
ATOM      3  H   ILE A   1       2.617  -0.837   3.257  0.00  0.00    +0.150 HD
ATOM      4  C   ILE A   1       0.810  -1.044   2.281  0.00  0.00    +0.234 C 
ATOM      5  O   ILE A   1       0.226  -1.045   1.199  0.00  0.00    -0.274 OA
BRANCH   2   6
ATOM      6  CA  ILE A   1       2.900  -0.314   1.181  0.00  0.00    +0.185 C 
BRANCH   6   7
ATOM      7  CB  ILE A   1       4.276   0.281   1.566  0.00  0.00    +0.017 C 
ATOM      8  CG2 ILE A   1       5.100   0.682   0.336  0.00  0.00    +0.010 C 
BRANCH   7   9
ATOM      9  CG1 ILE A   1       4.174   1.465   2.557  0.00  0.00    +0.002 C 
ATOM     10  CD1 ILE A   1       3.435   2.692   2.041  0.00  0.00    +0.004 C 
ENDBRANCH   7   9
ENDBRANCH   6   7
BRANCH   6  11
ATOM     11  C   ILE A   1       3.086  -1.544   0.266  0.00  0.00    +0.326 C 
ATOM     12  OXT ILE A   1       3.367  -2.668   0.664  0.00  0.00    -0.249 OA
BRANCH  11  13
ATOM     13  O   ILE A   1       2.977  -1.259  -1.056  0.00  0.00    -0.479 OA
ATOM     14  H   ILE A   1       2.690  -0.345  -1.242  0.00  0.00    +0.295 HD
ENDBRANCH  11  13
ENDBRANCH   6  11
ENDBRANCH   2   6
ENDBRANCH   1   4
BRANCH   1  15
ATOM     15  N   ILE A   1       0.799  -0.873   4.778  0.00  0.00    -0.302 N 
ATOM     16  H   ILE A   1       1.118  -1.443   5.550  0.00  0.00    +0.150 HD
ATOM     17  C   UNK A   0       0.742   0.481   4.949  0.00  0.00    +0.246 C 
ATOM     18  O   UNK A   0       0.368   1.291   4.111  0.00  0.00    -0.273 OA
BRANCH  17  19
ATOM     19  C   UNK A   0       1.206   0.957   6.263  0.00  0.00    +0.244 C 
ATOM     20  C   UNK A   0       2.182   2.107   6.280  0.00  0.00    +0.265 C 
ATOM     21  O   UNK A   0       2.600   0.760   6.559  0.00  0.00    -0.347 OA
BRANCH  20  22
ATOM     22  C   UNK A   0       2.138   3.055   7.407  0.00  0.00    +0.339 C 
ATOM     23  O   UNK A   0       1.465   2.864   8.409  0.00  0.00    -0.248 OA
BRANCH  22  24
ATOM     24  O   UNK A   0       2.830   4.186   7.105  0.00  0.00    -0.463 OA
BRANCH  24  25
ATOM     25  C   UNK A   0       2.474   5.342   7.874  0.00  0.00    +0.229 C 
ATOM     26  C   UNK A   0       1.307   6.022   7.179  0.00  0.00    +0.048 C 
ENDBRANCH  24  25
ENDBRANCH  22  24
ENDBRANCH  20  22
ENDBRANCH  17  19
ENDBRANCH   1  15
BRANCH   1  27
ATOM     27  CB  ILE A   1      -1.352  -1.660   3.660  0.00  0.00    +0.015 C 
ATOM     28  CG2 ILE A   1      -2.057  -0.314   3.442  0.00  0.00    +0.010 C 
BRANCH  27  29
ATOM     29  CG1 ILE A   1      -1.949  -2.691   2.668  0.00  0.00    +0.002 C 
ATOM     30  CD1 ILE A   1      -1.552  -4.135   2.933  0.00  0.00    +0.004 C 
ENDBRANCH  27  29
ENDBRANCH   1  27
TORSDOF 13
