REMARK  Name = 
REMARK  10 active torsions:
REMARK  status: ('A' for Active; 'I' for Inactive)
REMARK    1  A    between atoms: C_1  and  C_2
REMARK    2  A    between atoms: C_4  and  C_9
REMARK    3  A    between atoms: C_6  and  C_7
REMARK    4  A    between atoms: N_11  and  N_12
REMARK    5  A    between atoms: N_11  and  C_26
REMARK    6  A    between atoms: C_13  and  C_15
REMARK    7  A    between atoms: C_16  and  C_17
REMARK    8  A    between atoms: C_26  and  C_27
REMARK    9  A    between atoms: C_26  and  C_28
REMARK   10  A    between atoms: C_26  and  C_29
REMARK                            x       y       z     vdW  Elec       q    Type
REMARK                         _______ _______ _______ _____ _____    ______ ____
ROOT
ATOM      1  C   UNL     1       5.217   2.434  -0.181  0.00  0.00    +0.263 C 
ATOM      2  N   UNL     1       6.625   2.407  -0.028  0.00  0.00    -0.211 N 
ATOM      3  O   UNL     1       4.597   3.501  -0.238  0.00  0.00    -0.268 OA
ENDROOT
BRANCH   1  10
ATOM      4  C   UNL     1       1.101   0.384  -2.100  0.00  0.00    +0.044 C 
ATOM      5  C   UNL     1       2.328   0.252  -1.250  0.00  0.00    -0.049 A 
ATOM      6  C   UNL     1       2.594  -0.937  -0.569  0.00  0.00    +0.006 A 
ATOM      7  C   UNL     1       3.731  -1.068   0.240  0.00  0.00    -0.049 A 
ATOM      8  C   UNL     1       3.981  -2.358   0.963  0.00  0.00    +0.044 C 
ATOM      9  C   UNL     1       4.600   0.025   0.400  0.00  0.00    +0.016 A 
ATOM     10  C   UNL     1       4.374   1.213  -0.301  0.00  0.00    +0.039 A 
ATOM     11  C   UNL     1       3.224   1.320  -1.107  0.00  0.00    +0.016 A 
ENDBRANCH   1  10
BRANCH   2  12
ATOM     12  C   UNL     1       7.420   3.681  -0.042  0.00  0.00    +0.048 C 
ATOM     13  C   UNL     1       7.236   4.427  -1.382  0.00  0.00    +0.033 C 
ATOM     14  C   UNL     1       8.939   3.476   0.128  0.00  0.00    +0.033 C 
ATOM     15  C   UNL     1       6.990   4.613   1.119  0.00  0.00    +0.033 C 
ENDBRANCH   2  12
BRANCH   2  16
ATOM     16  N   UNL     1       7.383   1.195   0.065  0.00  0.00    -0.227 N 
ATOM     17  H   UNL     1       7.791   1.003   0.970  0.00  0.00    +0.173 HD
ATOM     18  C   UNL     1       7.524   0.341  -1.022  0.00  0.00    +0.261 C 
ATOM     19  O   UNL     1       6.935   0.519  -2.087  0.00  0.00    -0.269 OA
BRANCH  18  20
ATOM     20  C   UNL     1       8.393  -0.893  -0.877  0.00  0.00    +0.045 A 
ATOM     21  C   UNL     1       7.992  -1.999  -1.660  0.00  0.00    +0.017 A 
ATOM     22  C   UNL     1       8.766  -3.164  -1.747  0.00  0.00    +0.050 A 
ATOM     23  C   UNL     1       9.938  -3.268  -1.015  0.00  0.00    +0.162 A 
ATOM     24  O   UNL     1      10.665  -4.422  -1.174  0.00  0.00    -0.485 OA
ATOM     25  C   UNL     1      11.938  -4.364  -0.516  0.00  0.00    +0.270 C 
ATOM     26  C   UNL     1      11.789  -3.707   0.841  0.00  0.00    +0.270 C 
ATOM     27  O   UNL     1      11.410  -2.336   0.665  0.00  0.00    -0.485 OA
ATOM     28  C   UNL     1      10.313  -2.223  -0.162  0.00  0.00    +0.166 A 
ATOM     29  C   UNL     1       9.589  -1.004  -0.125  0.00  0.00    +0.007 A 
ATOM     30  C   UNL     1      10.153   0.113   0.703  0.00  0.00    +0.048 C 
ENDBRANCH  18  20
ENDBRANCH   2  16
TORSDOF 4
