REMARK  Name = 
REMARK  12 active torsions:
REMARK  status: ('A' for Active; 'I' for Inactive)
REMARK    1  A    between atoms: C_1  and  O_2
REMARK    2  A    between atoms: O_2  and  C_3
REMARK    3  A    between atoms: C_3  and  C_4
REMARK    4  A    between atoms: C_4  and  N_5
REMARK    5  A    between atoms: N_5  and  S_6
REMARK    6  A    between atoms: S_6  and  C_9
REMARK    7  A    between atoms: C_12  and  N_13
REMARK    8  A    between atoms: C_16  and  C_20
REMARK    9  A    between atoms: C_23  and  C_24
REMARK   10  A    between atoms: N_25  and  C_26
REMARK   11  A    between atoms: C_26  and  C_27
REMARK   12  A    between atoms: C_26  and  C_28
REMARK                            x       y       z     vdW  Elec       q    Type
REMARK                         _______ _______ _______ _____ _____    ______ ____
ROOT
ATOM      1  N   UNL     1       8.055  -3.649  -7.744  0.00  0.00    -0.284 N 
ATOM      2  H   UNL     1       8.449  -3.141  -8.521  0.00  0.00    +0.155 HD
ATOM      3  C   UNL     1       7.759  -4.963  -8.111  0.00  0.00    +0.220 A 
ATOM      4  N   UNL     1       7.353  -5.843  -7.183  0.00  0.00    -0.223 NA
ATOM      5  C   UNL     1       7.118  -7.098  -7.573  0.00  0.00    +0.116 A 
ATOM      6  C   UNL     1       7.265  -7.511  -8.867  0.00  0.00    +0.050 A 
ATOM      7  C   UNL     1       7.699  -6.555  -9.766  0.00  0.00    +0.094 A 
ATOM      8  N   UNL     1       7.950  -5.285  -9.403  0.00  0.00    -0.213 NA
ENDROOT
BRANCH   1  12
ATOM      9  C   UNL     1       7.293  -1.469  -4.215  0.00  0.00    +0.105 A 
ATOM     10  C   UNL     1       6.580  -2.642  -4.462  0.00  0.00    +0.030 A 
ATOM     11  C   UNL     1       6.821  -3.359  -5.633  0.00  0.00    +0.025 A 
ATOM     12  C   UNL     1       7.766  -2.929  -6.575  0.00  0.00    +0.034 A 
ATOM     13  C   UNL     1       8.510  -1.775  -6.276  0.00  0.00    +0.025 A 
ATOM     14  C   UNL     1       8.280  -1.043  -5.103  0.00  0.00    +0.030 A 
BRANCH   9  15
ATOM     15  S   UNL     1       6.934  -0.561  -2.730  0.00  0.00    +0.058 S 
ATOM     16  O   UNL     1       6.847  -1.534  -1.667  0.00  0.00    -0.153 OA
ATOM     17  O   UNL     1       7.822   0.579  -2.670  0.00  0.00    -0.153 OA
BRANCH  15  18
ATOM     18  N   UNL     1       5.365  -0.012  -3.048  0.00  0.00    -0.188 NA
ATOM     19  H   UNL     1       4.751  -0.755  -3.372  0.00  0.00    +0.148 HD
BRANCH  18  20
ATOM     20  C   UNL     1       5.230   1.267  -3.779  0.00  0.00    +0.134 C 
BRANCH  20  21
ATOM     21  C   UNL     1       3.751   1.616  -4.005  0.00  0.00    +0.176 C 
BRANCH  21  23
ATOM     22  C   UNL     1       1.715   2.132  -2.916  0.00  0.00    +0.194 C 
ATOM     23  O   UNL     1       3.076   1.756  -2.753  0.00  0.00    -0.382 OA
ENDBRANCH  21  23
ENDBRANCH  20  21
ENDBRANCH  18  20
ENDBRANCH  15  18
ENDBRANCH   9  15
ENDBRANCH   1  12
BRANCH   7  24
ATOM     24  C   UNL     1       8.020  -6.934 -11.144  0.00  0.00    +0.087 A 
ATOM     25  N   UNL     1       7.979  -6.191 -12.320  0.00  0.00    -0.324 N 
ATOM     26  C   UNL     1       8.378  -7.041 -13.352  0.00  0.00    +0.107 A 
ATOM     27  C   UNL     1       8.470  -6.668 -14.788  0.00  0.00    +0.086 C 
ATOM     28  N   UNL     1       8.654  -8.243 -12.903  0.00  0.00    -0.240 NA
ATOM     29  C   UNL     1       8.451  -8.185 -11.564  0.00  0.00    +0.140 A 
BRANCH  25  30
ATOM     30  C   UNL     1       7.555  -4.809 -12.545  0.00  0.00    +0.083 C 
ATOM     31  C   UNL     1       8.520  -3.751 -12.008  0.00  0.00    +0.030 C 
ATOM     32  C   UNL     1       6.098  -4.536 -12.173  0.00  0.00    +0.030 C 
ENDBRANCH  25  30
ENDBRANCH   7  24
TORSDOF 8
