REMARK  Name = 
REMARK  12 active torsions:
REMARK  status: ('A' for Active; 'I' for Inactive)
REMARK    1  A    between atoms: C_2  and  C_3
REMARK    2  A    between atoms: C_2  and  N_6
REMARK    3  A    between atoms: C_2  and  C_25
REMARK    4  A    between atoms: C_3  and  C_4
REMARK    5  A    between atoms: C_3  and  C_5
REMARK    6  A    between atoms: N_6  and  C_7
REMARK    7  A    between atoms: N_6  and  S_14
REMARK    8  A    between atoms: C_7  and  C_8
REMARK    9  A    between atoms: S_14  and  C_17
REMARK   10  A    between atoms: C_20  and  O_21
REMARK   11  A    between atoms: O_21  and  C_22
REMARK   12  A    between atoms: N_27  and  O_28
REMARK                            x       y       z     vdW  Elec       q    Type
REMARK                         _______ _______ _______ _____ _____    ______ ____
ROOT
ATOM      1  N   UNL     1       2.429   0.730   1.185  0.00  0.00    -0.160 NA
ENDROOT
BRANCH   1   2
ATOM      2  S   UNL     1       1.983   2.380   1.450  0.00  0.00    +0.062 S 
ATOM      3  O   UNL     1       1.750   2.985   0.156  0.00  0.00    -0.153 OA
ATOM      4  O   UNL     1       2.913   2.968   2.392  0.00  0.00    -0.153 OA
BRANCH   2   5
ATOM      5  C   UNL     1       0.448   2.347   2.338  0.00  0.00    +0.106 A 
ATOM      6  C   UNL     1      -0.705   2.914   1.789  0.00  0.00    +0.032 A 
ATOM      7  C   UNL     1      -1.895   2.910   2.524  0.00  0.00    +0.047 A 
ATOM      8  C   UNL     1      -1.923   2.369   3.811  0.00  0.00    +0.120 A 
ATOM      9  C   UNL     1      -0.753   1.839   4.363  0.00  0.00    +0.047 A 
ATOM     10  C   UNL     1       0.438   1.838   3.638  0.00  0.00    +0.032 A 
BRANCH   8  11
ATOM     11  O   UNL     1      -3.031   2.261   4.603  0.00  0.00    -0.495 OA
ATOM     12  C   UNL     1      -4.074   3.200   4.373  0.00  0.00    +0.277 C 
ENDBRANCH   8  11
ENDBRANCH   2   5
ENDBRANCH   1   2
BRANCH   1  13
ATOM     13  C   UNL     1       1.811  -0.002  -0.020  0.00  0.00    +0.170 C 
BRANCH  13  14
ATOM     14  C   UNL     1       2.218  -1.497  -0.086  0.00  0.00    +0.255 C 
ATOM     15  N   UNL     1       2.178  -2.057  -1.344  0.00  0.00    -0.196 N 
ATOM     16  H   UNL     1       1.949  -1.574  -2.206  0.00  0.00    +0.182 HD
ATOM     17  O   UNL     1       2.567  -2.170   0.882  0.00  0.00    -0.272 OA
BRANCH  15  18
ATOM     18  O   UNL     1       2.496  -3.427  -1.456  0.00  0.00    -0.295 OA
ATOM     19  H   UNL     1       2.719  -3.677  -0.533  0.00  0.00    +0.241 HD
ENDBRANCH  15  18
ENDBRANCH  13  14
BRANCH  13  20
ATOM     20  C   UNL     1       0.266   0.125  -0.136  0.00  0.00    +0.011 C 
ATOM     21  C   UNL     1      -0.292  -0.341  -1.491  0.00  0.00    +0.009 C 
ATOM     22  C   UNL     1      -0.503  -0.581   0.981  0.00  0.00    +0.009 C 
ENDBRANCH  13  20
ENDBRANCH   1  13
BRANCH   1  23
ATOM     23  C   UNL     1       3.941   0.557   1.269  0.00  0.00    +0.147 C 
BRANCH  23  24
ATOM     24  C   UNL     1       4.719   1.249   0.176  0.00  0.00    -0.014 A 
ATOM     25  C   UNL     1       4.973   0.624  -1.040  0.00  0.00    +0.115 A 
ATOM     26  N   UNL     1       5.457   1.255  -2.133  0.00  0.00    -0.263 NA
ATOM     27  C   UNL     1       5.734   2.569  -2.002  0.00  0.00    +0.111 A 
ATOM     28  C   UNL     1       5.609   3.265  -0.814  0.00  0.00    +0.020 A 
ATOM     29  C   UNL     1       5.117   2.583   0.293  0.00  0.00    +0.008 A 
ENDBRANCH  23  24
ENDBRANCH   1  23
TORSDOF 9
