REMARK  Name = 
REMARK  1 active torsions:
REMARK  status: ('A' for Active; 'I' for Inactive)
REMARK    1  A    between atoms: C_8  and  C_9
REMARK                            x       y       z     vdW  Elec       q    Type
REMARK                         _______ _______ _______ _____ _____    ______ ____
ROOT
ATOM      1  N   UNL     1       1.182   0.067   0.378  0.00  0.00    -0.279 NA
ATOM      2  H   UNL     1       0.863   1.037   0.416  0.00  0.00    +0.189 HD
ATOM      3  C   UNL     1       2.399   0.013  -0.008  0.00  0.00    +0.158 C 
ATOM      4  S   UNL     1       3.292  -1.455  -0.214  0.00  0.00    -0.049 S 
ATOM      5  C   UNL     1       4.698  -0.602  -0.794  0.00  0.00    +0.079 C 
ATOM      6  C   UNL     1       5.827  -1.256  -1.106  0.00  0.00    +0.048 C 
ATOM      7  C   UNL     1       4.372   0.856  -0.881  0.00  0.00    +0.256 C 
ATOM      8  O   UNL     1       4.996   1.730  -1.460  0.00  0.00    -0.269 OA
ATOM      9  N   UNL     1       3.143   1.092  -0.323  0.00  0.00    -0.261 N 
ATOM     10  H   UNL     1       2.779   2.028  -0.351  0.00  0.00    +0.157 HD
ENDROOT
BRANCH   6  11
ATOM     11  C   UNL     1       7.105  -0.691  -1.542  0.00  0.00    +0.065 A 
ATOM     12  N   UNL     1       7.469   0.496  -1.019  0.00  0.00    -0.256 NA
ATOM     13  C   UNL     1       8.647   1.020  -1.424  0.00  0.00    +0.111 A 
ATOM     14  C   UNL     1       9.515   0.383  -2.294  0.00  0.00    +0.020 A 
ATOM     15  C   UNL     1       9.150  -0.865  -2.783  0.00  0.00    +0.004 A 
ATOM     16  C   UNL     1       7.928  -1.413  -2.402  0.00  0.00    +0.028 A 
ENDBRANCH   6  11
TORSDOF 1
