REMARK  Name = 
REMARK  10 active torsions:
REMARK  status: ('A' for Active; 'I' for Inactive)
REMARK    1  A    between atoms: C_2  and  C_3
REMARK    2  A    between atoms: C_2  and  N_14
REMARK    3  A    between atoms: C_2  and  B_18
REMARK    4  A    between atoms: C_3  and  C_4
REMARK    5  A    between atoms: C_8  and  C_9
REMARK    6  A    between atoms: C_9  and  O_10
REMARK    7  A    between atoms: C_12  and  O_13
REMARK    8  A    between atoms: C_15  and  C_16
REMARK    9  A    between atoms: B_18  and  O_19
REMARK   10  A    between atoms: B_18  and  O_20
REMARK                            x       y       z     vdW  Elec       q    Type
REMARK                         _______ _______ _______ _____ _____    ______ ____
ROOT
ATOM      1  C   UNL     1       2.823  -1.051   0.749  0.00  0.00    +0.000 C 
ENDROOT
BRANCH   1   2
ATOM      2  C   UNL     1       2.230  -1.231   2.158  0.00  0.00    +0.000 A 
ATOM      3  C   UNL     1       1.153  -0.480   2.726  0.00  0.00    +0.000 A 
ATOM      4  C   UNL     1       0.696  -0.768   4.062  0.00  0.00    +0.000 A 
ATOM      5  C   UNL     1       1.353  -1.793   4.774  0.00  0.00    +0.000 A 
ATOM      6  C   UNL     1       2.401  -2.513   4.215  0.00  0.00    +0.000 A 
ATOM      7  C   UNL     1       2.828  -2.242   2.924  0.00  0.00    +0.000 A 
BRANCH   3   8
ATOM      8  O   UNL     1       0.599   0.490   1.979  0.00  0.00    +0.000 OA
ATOM      9  H   UNL     1      -0.015   1.178   2.245  0.00  0.00    +0.000 HD
ENDBRANCH   3   8
BRANCH   4  10
ATOM     10  C   UNL     1      -0.459  -0.043   4.729  0.00  0.00    +0.000 C 
ATOM     11  O   UNL     1      -1.043   0.864   4.163  0.00  0.00    +0.000 OA
BRANCH  10  12
ATOM     12  O   UNL     1      -0.916  -0.377   5.956  0.00  0.00    +0.000 OA
ATOM     13  H   UNL     1      -0.595  -1.091   6.513  0.00  0.00    +0.000 HD
ENDBRANCH  10  12
ENDBRANCH   4  10
ENDBRANCH   1   2
BRANCH   1  14
ATOM     14  C   UNL     1       2.293   0.061  -0.191  0.00  0.00    +0.000 C 
BRANCH  14  15
ATOM     15  N   UNL     1       2.946  -0.044  -1.491  0.00  0.00    +0.000 N 
ATOM     16  H   UNL     1       3.970   0.073  -1.526  0.00  0.00    +0.000 HD
ATOM     17  C   UNL     1       2.269  -0.238  -2.658  0.00  0.00    +0.000 C 
ATOM     18  O   UNL     1       1.057  -0.385  -2.665  0.00  0.00    +0.000 OA
ATOM     19  C   UNL     1       2.999  -0.252  -3.971  0.00  0.00    +0.000 C 
ENDBRANCH  14  15
BRANCH  14  20
ATOM     20  B   UNL     1       2.581   1.557   0.353  0.00  0.00    +0.000 B 
BRANCH  20  21
ATOM     21  O   UNL     1       2.088   2.722  -0.388  0.00  0.00    +0.000 OA
ATOM     22  H   UNL     1       1.755   2.387  -1.259  0.00  0.00    +0.000 HD
ENDBRANCH  20  21
BRANCH  20  23
ATOM     23  O   UNL     1       3.225   1.762   1.651  0.00  0.00    +0.000 OA
ATOM     24  H   UNL     1       4.152   1.435   1.538  0.00  0.00    +0.000 HD
ENDBRANCH  20  23
ENDBRANCH  14  20
ENDBRANCH   1  14
TORSDOF 9
