REMARK  Name = 
REMARK  11 active torsions:
REMARK  status: ('A' for Active; 'I' for Inactive)
REMARK    1  A    between atoms: C_2  and  O_3
REMARK    2  A    between atoms: C_2  and  C_10
REMARK    3  A    between atoms: C_2  and  C_19
REMARK    4  A    between atoms: O_3  and  C_4
REMARK    5  A    between atoms: C_4  and  C_5
REMARK    6  A    between atoms: C_5  and  AS_6
REMARK    7  A    between atoms: AS_6  and  C_7
REMARK    8  A    between atoms: AS_6  and  C_8
REMARK    9  A    between atoms: AS_6  and  C_9
REMARK   10  A    between atoms: C_15  and  N_16
REMARK   11  A    between atoms: N_16  and  O_17
REMARK                            x       y       z     vdW  Elec       q    Type
REMARK                         _______ _______ _______ _____ _____    ______ ____
ROOT
ATOM      1  C   UNL     1       2.121   0.156  -0.006  0.00  0.00    +0.000 C 
ENDROOT
BRANCH   1   2
ATOM      2  C   UNL     1       2.552  -0.851  -1.084  0.00  0.00    +0.000 A 
ATOM      3  C   UNL     1       2.193  -0.783  -2.481  0.00  0.00    +0.000 A 
ATOM      4  C   UNL     1       2.759  -1.752  -3.346  0.00  0.00    +0.000 A 
ATOM      5  C   UNL     1       3.613  -2.748  -2.877  0.00  0.00    +0.000 A 
ATOM      6  C   UNL     1       3.929  -2.820  -1.532  0.00  0.00    +0.000 A 
ATOM      7  C   UNL     1       3.412  -1.885  -0.646  0.00  0.00    +0.000 A 
BRANCH   3   8
ATOM      8  N   UNL     1       1.280   0.207  -3.016  0.00  0.00    +1.000 N 
ATOM      9  O   UNL     1       0.611   0.866  -2.289  0.00  0.00    +0.000 OA
BRANCH   8  10
ATOM     10  O   UNL     1       1.075   0.367  -4.315  0.00  0.00    +0.000 OA
ATOM     11  H   UNL     1       1.547  -0.096  -5.012  0.00  0.00    +0.000 HD
ENDBRANCH   8  10
ENDBRANCH   3   8
ENDBRANCH   1   2
BRANCH   1  12
ATOM     12  C   UNL     1       2.734   1.574  -0.282  0.00  0.00    +0.000 C 
ATOM     13  F   UNL     1       1.834   2.459  -0.845  0.00  0.00    +0.000 F 
ATOM     14  F   UNL     1       3.832   1.489  -1.124  0.00  0.00    +0.000 F 
ATOM     15  F   UNL     1       3.169   2.122   0.912  0.00  0.00    +0.000 F 
ENDBRANCH   1  12
BRANCH   1  16
ATOM     16  O   UNL     1       0.709   0.120   0.110  0.00  0.00    +0.000 OA
BRANCH  16  17
ATOM     17  C   UNL     1       0.221   0.909   1.176  0.00  0.00    +0.000 C 
BRANCH  17  18
ATOM     18  C   UNL     1      -1.301   0.895   1.117  0.00  0.00    +0.000 C 
BRANCH  18  19
ATOM     19 AS   UNL     1      -2.044   2.175   2.413  0.00  0.00    +0.000 As
ATOM     20  C   UNL     1      -1.381   1.728   4.205  0.00  0.00    +0.000 C 
ATOM     21  C   UNL     1      -4.007   2.090   2.363  0.00  0.00    +0.000 C 
ATOM     22  C   UNL     1      -1.467   3.997   1.934  0.00  0.00    +0.000 C 
ENDBRANCH  18  19
ENDBRANCH  17  18
ENDBRANCH  16  17
ENDBRANCH   1  16
TORSDOF 8
