REMARK  Name = 
REMARK  4 active torsions:
REMARK  status: ('A' for Active; 'I' for Inactive)
REMARK    1  A    between atoms: C_2  and  C_3
REMARK    2  A    between atoms: C_3  and  O_4
REMARK    3  A    between atoms: B_7  and  C_9
REMARK    4  A    between atoms: C_12  and  N_13
REMARK                            x       y       z     vdW  Elec       q    Type
REMARK                         _______ _______ _______ _____ _____    ______ ____
ROOT
ATOM      1  C   UNL     1       4.683  -1.614   2.182  0.00  0.00    +0.000 A 
ATOM      2  C   UNL     1       4.293  -2.951   2.314  0.00  0.00    +0.000 A 
ATOM      3  C   UNL     1       5.092  -3.854   3.012  0.00  0.00    +0.000 A 
ATOM      4  C   UNL     1       6.296  -3.450   3.612  0.00  0.00    +0.000 A 
ATOM      5  C   UNL     1       6.697  -2.103   3.462  0.00  0.00    +0.000 A 
ATOM      6  C   UNL     1       5.892  -1.194   2.755  0.00  0.00    +0.000 A 
ENDROOT
BRANCH   4   7
ATOM      7  N   UNL     1       7.061  -4.447   4.304  0.00  0.00    +0.330 N 
ATOM      8  H   UNL     1       6.821  -5.427   4.088  0.00  0.00    +0.000 HD
ATOM      9  C   UNL     1       8.103  -4.263   5.276  0.00  0.00    +0.000 C 
ATOM     10  N   UNL     1       8.817  -5.275   5.626  0.00  0.00    +0.330 NA
ATOM     11  H   UNL     1       8.687  -6.206   5.203  0.00  0.00    +0.000 HD
ATOM     12  N   UNL     1       8.307  -3.035   5.959  0.00  0.00    +0.330 N 
ATOM     13  H   UNL     1       9.059  -2.962   6.661  0.00  0.00    +0.000 HD
ATOM     14  H   UNL     1       7.650  -2.250   5.892  0.00  0.00    +0.000 HD
ENDBRANCH   4   7
BRANCH   1  17
ATOM     15  C   UNL     1       2.061   0.102   0.158  0.00  0.00    +0.000 C 
ATOM     16  O   UNL     1       2.471  -1.063   0.821  0.00  0.00    +0.000 OA
ATOM     17  B   UNL     1       3.754  -0.626   1.381  0.00  0.00    +0.000 B 
ATOM     18  O   UNL     1       4.055   0.795   1.193  0.00  0.00    +0.000 OA
ATOM     19  C   UNL     1       2.776   1.259   0.864  0.00  0.00    +0.000 C 
BRANCH  15  20
ATOM     20  C   UNL     1       2.422   0.014  -1.339  0.00  0.00    +0.000 C 
BRANCH  20  21
ATOM     21  O   UNL     1       1.749  -1.058  -1.943  0.00  0.00    +0.000 OA
ATOM     22  H   UNL     1       2.287  -1.873  -1.761  0.00  0.00    +0.000 HD
ENDBRANCH  20  21
ENDBRANCH  15  20
ENDBRANCH   1  17
TORSDOF 4
