REMARK  Name = 
REMARK  8 active torsions:
REMARK  status: ('A' for Active; 'I' for Inactive)
REMARK    1  A    between atoms: C_2  and  N_15
REMARK    2  A    between atoms: C_5  and  C_9
REMARK    3  A    between atoms: N_15  and  C_16
REMARK    4  A    between atoms: C_19  and  C_21
REMARK    5  A    between atoms: C_24  and  C_27
REMARK    6  A    between atoms: C_27  and  C_28
REMARK    7  A    between atoms: C_27  and  O_29
REMARK    8  A    between atoms: C_27  and  C_30
REMARK                            x       y       z     vdW  Elec       q    Type
REMARK                         _______ _______ _______ _____ _____    ______ ____
ROOT
ATOM      1  N   UNL     1      -7.431   0.716  -7.940  0.00  0.00    -0.291 N 
ATOM      2  C   UNL     1      -6.709  -0.143  -7.083  0.00  0.00    +0.247 C 
ATOM      3  O   UNL     1      -6.914  -0.242  -5.871  0.00  0.00    -0.270 OA
ENDROOT
BRANCH   1   4
ATOM      4  C   UNL     1      -7.472   0.544  -9.435  0.00  0.00    +0.077 C 
ATOM      5  C   UNL     1      -6.620   1.561 -10.224  0.00  0.00    +0.023 C 
ATOM      6  C   UNL     1      -7.280   2.926 -10.396  0.00  0.00    +0.010 C 
ATOM      7  C   UNL     1      -8.676   2.850 -11.047  0.00  0.00    +0.021 C 
ATOM      8  C   UNL     1      -9.542   1.858 -10.242  0.00  0.00    +0.010 C 
ATOM      9  C   UNL     1      -8.883   0.485 -10.060  0.00  0.00    +0.023 C 
BRANCH   7  10
ATOM     10  C   UNL     1      -8.677   2.586 -12.546  0.00  0.00    -0.026 A 
ATOM     11  C   UNL     1      -7.627   2.975 -13.380  0.00  0.00    +0.114 A 
ATOM     12  N   UNL     1      -7.590   2.795 -14.719  0.00  0.00    -0.263 NA
ATOM     13  C   UNL     1      -8.669   2.220 -15.284  0.00  0.00    +0.111 A 
ATOM     14  C   UNL     1      -9.780   1.831 -14.570  0.00  0.00    +0.020 A 
ATOM     15  C   UNL     1      -9.787   2.027 -13.195  0.00  0.00    +0.007 A 
ENDBRANCH   7  10
ENDBRANCH   1   4
BRANCH   2  16
ATOM     16  C   UNL     1      -5.666  -1.064  -7.598  0.00  0.00    +0.037 A 
ATOM     17  C   UNL     1      -5.640  -2.367  -7.089  0.00  0.00    +0.013 A 
ATOM     18  C   UNL     1      -4.711  -3.291  -7.566  0.00  0.00    +0.007 A 
ATOM     19  C   UNL     1      -3.811  -2.941  -8.588  0.00  0.00    -0.008 A 
ATOM     20  C   UNL     1      -3.800  -1.610  -9.033  0.00  0.00    +0.007 A 
ATOM     21  C   UNL     1      -4.689  -0.673  -8.508  0.00  0.00    +0.013 A 
BRANCH  19  22
ATOM     22  C   UNL     1      -2.858  -3.982  -9.173  0.00  0.00    +0.183 C 
ATOM     23  C   UNL     1      -1.783  -4.318  -8.130  0.00  0.00    +0.056 C 
BRANCH  22  24
ATOM     24  C   UNL     1      -3.596  -5.278  -9.656  0.00  0.00    +0.422 C 
ATOM     25  F   UNL     1      -3.281  -6.355  -8.899  0.00  0.00    -0.167 F 
ATOM     26  F   UNL     1      -3.216  -5.575 -10.929  0.00  0.00    -0.167 F 
ATOM     27  F   UNL     1      -4.943  -5.175  -9.668  0.00  0.00    -0.167 F 
ENDBRANCH  22  24
BRANCH  22  28
ATOM     28  O   UNL     1      -2.129  -3.375 -10.275  0.00  0.00    -0.376 OA
ATOM     29  H   UNL     1      -1.811  -4.101 -10.845  0.00  0.00    +0.211 HD
ENDBRANCH  22  28
ENDBRANCH  19  22
ENDBRANCH   2  16
BRANCH   1  30
ATOM     30  C   UNL     1      -8.518   1.476  -7.320  0.00  0.00    +0.077 C 
ATOM     31  C   UNL     1      -8.400   2.968  -7.107  0.00  0.00    +0.024 C 
ATOM     32  C   UNL     1      -8.515   2.064  -5.930  0.00  0.00    +0.024 C 
ENDBRANCH   1  30
TORSDOF 7
