REMARK  Name = 
REMARK  6 active torsions:
REMARK  status: ('A' for Active; 'I' for Inactive)
REMARK    1  A    between atoms: C_1  and  O_2
REMARK    2  A    between atoms: O_2  and  C_3
REMARK    3  A    between atoms: C_5  and  C_6
REMARK    4  A    between atoms: C_7  and  C_8
REMARK    5  A    between atoms: C_8  and  O_9
REMARK    6  A    between atoms: C_13  and  O_14
REMARK                            x       y       z     vdW  Elec       q    Type
REMARK                         _______ _______ _______ _____ _____    ______ ____
ROOT
ATOM      1  C   UNL     1       2.967  -0.852   0.990  0.00  0.00    +0.162 A 
ATOM      2  C   UNL     1       2.711  -2.221   1.107  0.00  0.00    +0.158 A 
ATOM      3  C   UNL     1       3.425  -2.993   2.026  0.00  0.00    +0.050 A 
ATOM      4  C   UNL     1       4.408  -2.402   2.822  0.00  0.00    +0.012 A 
ATOM      5  C   UNL     1       4.694  -1.035   2.716  0.00  0.00    -0.021 A 
ATOM      6  C   UNL     1       3.971  -0.275   1.785  0.00  0.00    +0.057 A 
ENDROOT
BRANCH   1   8
ATOM      7  C   UNL     1       1.028  -0.224  -0.231  0.00  0.00    +0.277 C 
ATOM      8  O   UNL     1       2.388   0.022   0.108  0.00  0.00    -0.491 OA
ENDBRANCH   1   8
BRANCH   2   9
ATOM      9  O   UNL     1       1.795  -2.844   0.308  0.00  0.00    -0.503 OA
ATOM     10  H   UNL     1       1.876  -3.805   0.418  0.00  0.00    +0.292 HD
ENDBRANCH   2   9
BRANCH   5  11
ATOM     11  C   UNL     1       5.785  -0.486   3.539  0.00  0.00    +0.015 C 
ATOM     12  C   UNL     1       5.857   0.788   3.953  0.00  0.00    +0.092 C 
BRANCH  12  13
ATOM     13  C   UNL     1       6.914   1.348   4.817  0.00  0.00    +0.330 C 
ATOM     14  O   UNL     1       6.730   2.347   5.492  0.00  0.00    -0.246 OA
BRANCH  13  15
ATOM     15  O   UNL     1       8.093   0.698   4.778  0.00  0.00    -0.478 OA
ATOM     16  H   UNL     1       8.168   0.033   4.072  0.00  0.00    +0.295 HD
ENDBRANCH  13  15
ENDBRANCH  12  13
ENDBRANCH   5  11
TORSDOF 5
