REMARK  Name = 
REMARK  9 active torsions:
REMARK  status: ('A' for Active; 'I' for Inactive)
REMARK    1  A    between atoms: C_1  and  C_2
REMARK    2  A    between atoms: C_2  and  C_3
REMARK    3  A    between atoms: C_2  and  C_4
REMARK    4  A    between atoms: C_2  and  C_5
REMARK    5  A    between atoms: C_8  and  C_11
REMARK    6  A    between atoms: N_13  and  N_14
REMARK    7  A    between atoms: C_15  and  C_16
REMARK    8  A    between atoms: C_20  and  O_21
REMARK    9  A    between atoms: C_24  and  O_25
REMARK                            x       y       z     vdW  Elec       q    Type
REMARK                         _______ _______ _______ _____ _____    ______ ____
ROOT
ATOM      1  C   UNL     1       3.470  -3.438  -4.585  0.00  0.00    +0.263 C 
ATOM      2  N   UNL     1       2.733  -4.615  -4.653  0.00  0.00    -0.203 N 
ATOM      3  H   UNL     1       2.048  -4.854  -3.947  0.00  0.00    +0.178 HD
ATOM      4  O   UNL     1       4.203  -3.020  -5.479  0.00  0.00    -0.268 OA
ENDROOT
BRANCH   1   8
ATOM      5  C   UNL     1       2.860  -0.890  -1.137  0.00  0.00    -0.042 A 
ATOM      6  C   UNL     1       2.781  -2.293  -1.010  0.00  0.00    +0.005 A 
ATOM      7  C   UNL     1       2.989  -3.147  -2.107  0.00  0.00    +0.013 A 
ATOM      8  C   UNL     1       3.292  -2.611  -3.360  0.00  0.00    +0.038 A 
ATOM      9  C   UNL     1       3.448  -1.228  -3.485  0.00  0.00    +0.013 A 
ATOM     10  C   UNL     1       3.236  -0.382  -2.391  0.00  0.00    +0.005 A 
BRANCH   5  12
ATOM     11  C   UNL     1       2.521   1.535  -0.323  0.00  0.00    +0.015 C 
ATOM     12  C   UNL     1       2.496   0.032   0.043  0.00  0.00    -0.013 C 
ATOM     13  C   UNL     1       1.061  -0.288   0.519  0.00  0.00    +0.015 C 
ATOM     14  C   UNL     1       3.470  -0.171   1.221  0.00  0.00    +0.015 C 
ENDBRANCH   5  12
ENDBRANCH   1   8
BRANCH   2  15
ATOM     15  N   UNL     1       2.773  -5.332  -5.812  0.00  0.00    -0.187 NA
ATOM     16  C   UNL     1       2.024  -6.383  -5.891  0.00  0.00    +0.142 C 
BRANCH  16  17
ATOM     17  C   UNL     1       1.997  -7.182  -7.139  0.00  0.00    +0.038 A 
ATOM     18  C   UNL     1       1.215  -8.337  -7.237  0.00  0.00    +0.143 A 
ATOM     19  C   UNL     1       1.192  -9.068  -8.434  0.00  0.00    +0.102 A 
ATOM     20 BR   UNL     1       0.122 -10.640  -8.550  0.00  0.00    -0.043 Br
ATOM     21  C   UNL     1       1.946  -8.640  -9.534  0.00  0.00    +0.148 A 
ATOM     22  C   UNL     1       2.726  -7.485  -9.431  0.00  0.00    +0.061 A 
ATOM     23 BR   UNL     1       3.756  -6.876 -10.902  0.00  0.00    -0.046 Br
ATOM     24  C   UNL     1       2.754  -6.757  -8.242  0.00  0.00    +0.032 A 
BRANCH  18  25
ATOM     25  O   UNL     1       0.477  -8.741  -6.153  0.00  0.00    -0.505 OA
ATOM     26  H   UNL     1       0.006  -9.560  -6.404  0.00  0.00    +0.292 HD
ENDBRANCH  18  25
BRANCH  21  27
ATOM     27  O   UNL     1       1.911  -9.359 -10.701  0.00  0.00    -0.504 OA
ATOM     28  H   UNL     1       2.488  -8.912 -11.348  0.00  0.00    +0.292 HD
ENDBRANCH  21  27
ENDBRANCH  16  17
ENDBRANCH   2  15
TORSDOF 6
