REMARK  Name = 
REMARK  10 active torsions:
REMARK  status: ('A' for Active; 'I' for Inactive)
REMARK    1  A    between atoms: C_2  and  N_3
REMARK    2  A    between atoms: C_2  and  C_4
REMARK    3  A    between atoms: C_2  and  C_28
REMARK    4  A    between atoms: C_4  and  S_5
REMARK    5  A    between atoms: S_5  and  C_6
REMARK    6  A    between atoms: C_6  and  C_7
REMARK    7  A    between atoms: C_7  and  C_8
REMARK    8  A    between atoms: N_10  and  C_11
REMARK    9  A    between atoms: N_21  and  C_22
REMARK   10  A    between atoms: C_28  and  O_29
REMARK                            x       y       z     vdW  Elec       q    Type
REMARK                         _______ _______ _______ _____ _____    ______ ____
ROOT
ATOM      1  C   UNK     1       2.580   8.546  -2.930  0.00  0.00    +0.034 A 
ATOM      2  C   UNK     1       1.751   9.543  -3.431  0.00  0.00    +0.025 A 
ATOM      3  C   UNK     1       2.152  10.883  -3.354  0.00  0.00    +0.030 A 
ATOM      4  C   UNK     1       3.373  11.257  -2.809  0.00  0.00    +0.076 A 
ATOM      5  N   UNK     1       3.662  12.557  -2.741  0.00  0.00    -0.235 NA
ATOM      6  C   UNK     1       4.851  12.873  -2.226  0.00  0.00    +0.223 A 
ATOM      7  N   UNK     1       5.777  12.013  -1.797  0.00  0.00    -0.220 NA
ATOM      8  C   UNK     1       5.493  10.702  -1.867  0.00  0.00    +0.134 A 
ATOM      9  N   UNK     1       6.495   9.754  -1.548  0.00  0.00    -0.299 N 
ATOM     10  H   UNK     1       6.152   8.823  -1.361  0.00  0.00    +0.154 HD
ATOM     11  C   UNK     1       4.249  10.258  -2.362  0.00  0.00    +0.042 A 
ATOM     12  C   UNK     1       3.833   8.906  -2.443  0.00  0.00    +0.036 A 
ENDROOT
BRANCH   9  13
ATOM     13  C   UNK     1       7.881   9.875  -1.343  0.00  0.00    +0.032 A 
ATOM     14  C   UNK     1       8.658   8.703  -1.374  0.00  0.00    +0.023 A 
ATOM     15  C   UNK     1      10.054   8.756  -1.347  0.00  0.00    +0.002 A 
ATOM     16  C   UNK     1      10.701   9.986  -1.282  0.00  0.00    +0.000 A 
ATOM     17  C   UNK     1       9.950  11.155  -1.215  0.00  0.00    +0.002 A 
ATOM     18  C   UNK     1       8.554  11.096  -1.246  0.00  0.00    +0.023 A 
ENDBRANCH   9  13
BRANCH   1  20
ATOM     19  C   UNK     1       2.668   6.171  -2.200  0.00  0.00    +0.218 C 
ATOM     20  N   UNK     1       2.115   7.216  -2.927  0.00  0.00    -0.285 N 
ATOM     21  H   UNK     1       1.223   7.050  -3.376  0.00  0.00    +0.155 HD
ATOM     22  O   UNK     1       3.612   6.247  -1.420  0.00  0.00    -0.275 OA
BRANCH  19  23
ATOM     23  C   UNK     1       1.977   4.849  -2.425  0.00  0.00    +0.107 C 
BRANCH  23  24
ATOM     24  C   UNK     1       2.227   4.354  -3.839  0.00  0.00    +0.078 C 
BRANCH  24  25
ATOM     25  S   UNK     1       1.360   2.774  -4.059  0.00  0.00    -0.158 S 
BRANCH  25  26
ATOM     26  C   UNK     1       1.921   2.387  -5.761  0.00  0.00    +0.099 C 
BRANCH  26  27
ATOM     27  C   UNK     1       1.384   1.032  -6.244  0.00  0.00    +0.170 C 
BRANCH  27  28
ATOM     28  N   UNK     1      -0.097   0.999  -6.233  0.00  0.00    -0.318 NA
ATOM     29  H   UNK     1      -0.479   0.115  -6.554  0.00  0.00    +0.119 HD
ATOM     30  H   UNK     1      -0.484   1.322  -5.347  0.00  0.00    +0.119 HD
ENDBRANCH  27  28
BRANCH  27  31
ATOM     31  C   UNK     1       2.018  -0.103  -5.427  0.00  0.00    +0.323 C 
ATOM     32  O   UNK     1       3.219  -0.334  -5.404  0.00  0.00    -0.249 OA
BRANCH  31  33
ATOM     33  O   UNK     1       1.130  -0.842  -4.720  0.00  0.00    -0.480 OA
ATOM     34  H   UNK     1       0.235  -0.462  -4.795  0.00  0.00    +0.295 HD
ENDBRANCH  31  33
ENDBRANCH  27  31
ENDBRANCH  26  27
ENDBRANCH  25  26
ENDBRANCH  24  25
ENDBRANCH  23  24
ENDBRANCH  19  23
ENDBRANCH   1  20
TORSDOF 10
