REMARK  Name = 
REMARK  16 active torsions:
REMARK  status: ('A' for Active; 'I' for Inactive)
REMARK    1  A    between atoms: C_2  and  C_3
REMARK    2  A    between atoms: C_2  and  N_10
REMARK    3  A    between atoms: C_2  and  P_19
REMARK    4  A    between atoms: C_3  and  C_4
REMARK    5  A    between atoms: C_11  and  C_13
REMARK    6  A    between atoms: C_13  and  C_14
REMARK    7  A    between atoms: C_14  and  C_15
REMARK    8  A    between atoms: C_15  and  C_16
REMARK    9  A    between atoms: C_16  and  O_17
REMARK   10  A    between atoms: P_19  and  O_20
REMARK   11  A    between atoms: P_19  and  O_22
REMARK   12  A    between atoms: O_22  and  C_23
REMARK   13  A    between atoms: C_23  and  C_24
REMARK   14  A    between atoms: N_26  and  C_27
REMARK   15  A    between atoms: C_27  and  C_28
REMARK   16  A    between atoms: C_28  and  C_29
REMARK                            x       y       z     vdW  Elec       q    Type
REMARK                         _______ _______ _______ _____ _____    ______ ____
ROOT
ATOM      1  C   UNL     1       1.064   2.413  -0.709  0.00  0.00    +0.192 C 
ENDROOT
BRANCH   1   2
ATOM      2  N   UNL     1      -0.024   2.354  -1.682  0.00  0.00    -0.301 N 
ATOM      3  H   UNL     1       0.130   2.741  -2.604  0.00  0.00    +0.150 HD
ATOM      4  C   UNL     1      -0.980   1.377  -1.513  0.00  0.00    +0.214 C 
ATOM      5  O   UNL     1      -1.035   0.661  -0.517  0.00  0.00    -0.276 OA
BRANCH   4   6
ATOM      6  C   UNL     1      -1.939   1.251  -2.671  0.00  0.00    +0.096 C 
BRANCH   6   7
ATOM      7  C   UNL     1      -3.262   0.663  -2.191  0.00  0.00    +0.020 C 
BRANCH   7   8
ATOM      8  C   UNL     1      -4.268   0.556  -3.331  0.00  0.00    +0.121 C 
BRANCH   8   9
ATOM      9  C   UNL     1      -5.636   0.127  -2.849  0.00  0.00    +0.305 C 
ATOM     10  O   UNL     1      -6.627   0.839  -2.886  0.00  0.00    -0.251 OA
BRANCH   9  11
ATOM     11  O   UNL     1      -5.655  -1.125  -2.340  0.00  0.00    -0.481 OA
ATOM     12  H   UNL     1      -4.794  -1.585  -2.363  0.00  0.00    +0.295 HD
ENDBRANCH   9  11
ENDBRANCH   8   9
ENDBRANCH   7   8
ENDBRANCH   6   7
ENDBRANCH   4   6
ENDBRANCH   1   2
BRANCH   1  13
ATOM     13  P   UNL     1       2.238   1.089  -1.076  0.00  0.00    +0.351 P 
ATOM     14  O   UNL     1       1.724  -0.209  -1.619  0.00  0.00    -0.257 OA
BRANCH  13  15
ATOM     15  O   UNL     1       3.263   1.753  -2.124  0.00  0.00    -0.323 OA
ATOM     16  H   UNL     1       3.878   1.107  -2.521  0.00  0.00    +0.220 HD
ENDBRANCH  13  15
BRANCH  13  17
ATOM     17  O   UNL     1       3.044   0.966   0.303  0.00  0.00    -0.297 OA
BRANCH  17  18
ATOM     18  C   UNL     1       3.946  -0.097   0.518  0.00  0.00    +0.265 C 
BRANCH  18  19
ATOM     19  C   UNL     1       5.324   0.529   0.501  0.00  0.00    +0.239 C 
ATOM     20  N   UNL     1       6.177   0.134   1.517  0.00  0.00    -0.313 N 
ATOM     21  H   UNL     1       5.771  -0.291   2.342  0.00  0.00    +0.149 HD
ATOM     22  O   UNL     1       5.642   1.357  -0.352  0.00  0.00    -0.273 OA
BRANCH  20  23
ATOM     23  C   UNL     1       7.401   0.892   1.664  0.00  0.00    +0.109 C 
BRANCH  23  24
ATOM     24  C   UNL     1       8.400   0.322   2.667  0.00  0.00    +0.054 C 
BRANCH  24  25
ATOM     25  C   UNL     1       9.641   1.184   2.638  0.00  0.00    -0.046 A 
ATOM     26  C   UNL     1      10.641   0.943   1.683  0.00  0.00    +0.004 A 
ATOM     27  C   UNL     1      11.706   1.831   1.539  0.00  0.00    +0.000 A 
ATOM     28  C   UNL     1      11.786   2.964   2.346  0.00  0.00    +0.000 A 
ATOM     29  C   UNL     1      10.807   3.203   3.310  0.00  0.00    +0.000 A 
ATOM     30  C   UNL     1       9.740   2.316   3.457  0.00  0.00    +0.004 A 
ENDBRANCH  24  25
ENDBRANCH  23  24
ENDBRANCH  20  23
ENDBRANCH  18  19
ENDBRANCH  17  18
ENDBRANCH  13  17
ENDBRANCH   1  13
BRANCH   1  31
ATOM     31  C   UNL     1       1.709   3.807  -0.609  0.00  0.00    +0.070 C 
BRANCH  31  32
ATOM     32  C   UNL     1       0.701   4.856  -0.190  0.00  0.00    -0.045 A 
ATOM     33  C   UNL     1       0.383   5.922  -1.041  0.00  0.00    +0.004 A 
ATOM     34  C   UNL     1      -0.679   6.773  -0.733  0.00  0.00    +0.000 A 
ATOM     35  C   UNL     1      -1.421   6.574   0.430  0.00  0.00    +0.000 A 
ATOM     36  C   UNL     1      -1.066   5.562   1.317  0.00  0.00    +0.000 A 
ATOM     37  C   UNL     1       0.003   4.720   1.019  0.00  0.00    +0.004 A 
ENDBRANCH  31  32
ENDBRANCH   1  31
TORSDOF 16
