REMARK  Name = 
REMARK  9 active torsions:
REMARK  status: ('A' for Active; 'I' for Inactive)
REMARK    1  A    between atoms: C_1  and  C_2
REMARK    2  A    between atoms: C_2  and  O_3
REMARK    3  A    between atoms: C_2  and  C_4
REMARK    4  A    between atoms: C_2  and  C_14
REMARK    5  A    between atoms: C_4  and  O_5
REMARK    6  A    between atoms: O_5  and  C_6
REMARK    7  A    between atoms: C_9  and  C_12
REMARK    8  A    between atoms: N_16  and  C_17
REMARK    9  A    between atoms: C_20  and  C_21
REMARK                            x       y       z     vdW  Elec       q    Type
REMARK                         _______ _______ _______ _____ _____    ______ ____
ROOT
ATOM      1  C   UNL     1       3.095  -1.283   0.072  0.00  0.00    +0.055 C 
ATOM      2  C   UNL     1       2.579   0.155  -0.001  0.00  0.00    +0.173 C 
ENDROOT
BRANCH   2   3
ATOM      3  C   UNL     1       3.020   1.012   1.209  0.00  0.00    +0.252 C 
ATOM      4  N   UNL     1       2.681   0.491   2.450  0.00  0.00    -0.283 N 
ATOM      5  H   UNL     1       1.979  -0.244   2.453  0.00  0.00    +0.155 HD
ATOM      6  O   UNL     1       3.517   2.130   1.049  0.00  0.00    -0.272 OA
BRANCH   4   7
ATOM      7  C   UNL     1       3.042   1.073   3.686  0.00  0.00    +0.035 A 
ATOM      8  C   UNL     1       2.336   0.710   4.836  0.00  0.00    +0.039 A 
ATOM      9  C   UNL     1       2.637   1.310   6.073  0.00  0.00    +0.032 A 
ATOM     10  I   UNL     1       1.475   0.736   7.726  0.00  0.00    -0.042 I 
ATOM     11  C   UNL     1       3.663   2.259   6.173  0.00  0.00    +0.065 A 
ATOM     12  C   UNL     1       4.392   2.588   5.028  0.00  0.00    +0.022 A 
ATOM     13  C   UNL     1       4.087   1.995   3.802  0.00  0.00    +0.024 A 
BRANCH  11  14
ATOM     14  C   UNL     1       4.011   2.916   7.400  0.00  0.00    +0.100 C 
ATOM     15  N   UNL     1       4.319   3.466   8.374  0.00  0.00    -0.191 NA
ENDBRANCH  11  14
ENDBRANCH   4   7
ENDBRANCH   2   3
BRANCH   2  16
ATOM     16  O   UNL     1       1.142   0.088   0.028  0.00  0.00    -0.376 OA
ATOM     17  H   UNL     1       0.811   1.006   0.033  0.00  0.00    +0.211 HD
ENDBRANCH   2  16
BRANCH   2  18
ATOM     18  C   UNL     1       3.068   0.841  -1.300  0.00  0.00    +0.273 C 
BRANCH  18  19
ATOM     19  O   UNL     1       4.500   0.862  -1.319  0.00  0.00    -0.489 OA
BRANCH  19  20
ATOM     20  C   UNL     1       5.126   1.562  -2.308  0.00  0.00    +0.121 A 
ATOM     21  C   UNL     1       6.517   1.637  -2.179  0.00  0.00    +0.047 A 
ATOM     22  C   UNL     1       7.296   2.249  -3.165  0.00  0.00    +0.022 A 
ATOM     23  C   UNL     1       6.682   2.798  -4.292  0.00  0.00    +0.052 A 
ATOM     24  C   UNL     1       5.288   2.762  -4.405  0.00  0.00    +0.022 A 
ATOM     25  C   UNL     1       4.511   2.149  -3.413  0.00  0.00    +0.047 A 
BRANCH  23  26
ATOM     26  C   UNL     1       7.477   3.373  -5.339  0.00  0.00    +0.099 C 
ATOM     27  N   UNL     1       8.118   3.823  -6.195  0.00  0.00    -0.191 NA
ENDBRANCH  23  26
ENDBRANCH  19  20
ENDBRANCH  18  19
ENDBRANCH   2  18
TORSDOF 8
