REMARK  Name = 
REMARK  8 active torsions:
REMARK  status: ('A' for Active; 'I' for Inactive)
REMARK    1  A    between atoms: C_2  and  N_3
REMARK    2  A    between atoms: C_2  and  C_4
REMARK    3  A    between atoms: C_2  and  C_11
REMARK    4  A    between atoms: C_11  and  C_13
REMARK    5  A    between atoms: C_11  and  C_14
REMARK    6  A    between atoms: C_16  and  C_19
REMARK    7  A    between atoms: C_22  and  S_25
REMARK    8  A    between atoms: S_25  and  C_26
REMARK                            x       y       z     vdW  Elec       q    Type
REMARK                         _______ _______ _______ _____ _____    ______ ____
ROOT
ATOM      1  C   UNL     1       4.397  -0.560   1.345  0.00  0.00    +0.232 A 
ATOM      2  O   UNL     1       4.956  -0.515   0.100  0.00  0.00    -0.337 OA
ATOM      3  N   UNL     1       6.328  -0.504   0.274  0.00  0.00    -0.056 NA
ATOM      4  C   UNL     1       6.494  -0.545   1.606  0.00  0.00    +0.202 A 
ATOM      5  N   UNL     1       5.298  -0.575   2.310  0.00  0.00    -0.191 NA
ENDROOT
BRANCH   4   6
ATOM      6  C   UNL     1       7.823  -0.508   2.228  0.00  0.00    +0.023 A 
ATOM      7  C   UNL     1       8.972  -0.339   1.429  0.00  0.00    +0.013 A 
ATOM      8  C   UNL     1      10.242  -0.207   1.993  0.00  0.00    +0.027 A 
ATOM      9  C   UNL     1      10.382  -0.263   3.382  0.00  0.00    +0.088 A 
ATOM     10  C   UNL     1       9.262  -0.461   4.197  0.00  0.00    +0.027 A 
ATOM     11  C   UNL     1       7.988  -0.590   3.619  0.00  0.00    +0.013 A 
BRANCH   9  12
ATOM     12  S   UNL     1      11.975   0.072   4.110  0.00  0.00    -0.006 S 
ATOM     13  O   UNL     1      11.737   0.536   5.461  0.00  0.00    -0.170 OA
ATOM     14  O   UNL     1      12.720   0.884   3.166  0.00  0.00    -0.170 OA
ATOM     15  C   UNL     1      12.755  -1.513   4.207  0.00  0.00    +0.200 C 
ENDBRANCH   9  12
ENDBRANCH   4   6
BRANCH   1  16
ATOM     16  C   UNL     1       2.898  -0.645   1.355  0.00  0.00    +0.100 C 
ATOM     17  C   UNL     1       2.484  -2.120   1.262  0.00  0.00    +0.019 C 
BRANCH  16  18
ATOM     18  C   UNL     1       2.263   0.146   2.529  0.00  0.00    +0.150 C 
BRANCH  18  19
ATOM     19  C   UNL     1       0.741   0.392   2.278  0.00  0.00    +0.233 C 
ATOM     20  N   UNL     1       0.125   1.405   2.997  0.00  0.00    -0.300 N 
ATOM     21  C   UNL     1       0.784   2.486   3.710  0.00  0.00    +0.108 C 
ATOM     22  C   UNL     1      -0.272   3.578   3.862  0.00  0.00    +0.020 C 
ATOM     23  C   UNL     1      -1.360   3.201   2.863  0.00  0.00    +0.020 C 
ATOM     24  C   UNL     1      -1.294   1.685   2.838  0.00  0.00    +0.108 C 
ATOM     25  O   UNL     1       0.096  -0.287   1.476  0.00  0.00    -0.274 OA
ENDBRANCH  18  19
BRANCH  18  26
ATOM     26  N   UNL     1       2.438  -0.514   3.843  0.00  0.00    -0.319 NA
ATOM     27  H   UNL     1       3.439  -0.613   4.026  0.00  0.00    +0.119 HD
ATOM     28  H   UNL     1       2.060   0.080   4.578  0.00  0.00    +0.119 HD
ENDBRANCH  18  26
ENDBRANCH  16  18
ENDBRANCH   1  16
TORSDOF 6
