REMARK  Name = 
REMARK  12 active torsions:
REMARK  status: ('A' for Active; 'I' for Inactive)
REMARK    1  A    between atoms: C_1  and  C_2
REMARK    2  A    between atoms: C_2  and  C_3
REMARK    3  A    between atoms: C_2  and  C_4
REMARK    4  A    between atoms: C_5  and  O_6
REMARK    5  A    between atoms: C_9  and  C_10
REMARK    6  A    between atoms: C_10  and  C_11
REMARK    7  A    between atoms: C_12  and  C_13
REMARK    8  A    between atoms: C_15  and  O_16
REMARK    9  A    between atoms: O_16  and  C_17
REMARK   10  A    between atoms: C_17  and  C_18
REMARK   11  A    between atoms: C_18  and  O_19
REMARK   12  A    between atoms: C_22  and  C_23
REMARK                            x       y       z     vdW  Elec       q    Type
REMARK                         _______ _______ _______ _____ _____    ______ ____
ROOT
ATOM      1  C   UNL     1       0.649  -4.369   1.652  0.00  0.00    -0.037 A 
ATOM      2  C   UNL     1       0.742  -4.227   3.058  0.00  0.00    -0.043 A 
ATOM      3  C   UNL     1       2.026  -4.426   3.821  0.00  0.00    +0.044 C 
ATOM      4  C   UNL     1      -0.412  -3.965   3.822  0.00  0.00    +0.049 A 
ATOM      5  C   UNL     1      -1.661  -3.822   3.230  0.00  0.00    +0.122 A 
ATOM      6  C   UNL     1      -1.740  -3.832   1.841  0.00  0.00    +0.049 A 
ATOM      7  C   UNL     1      -0.604  -4.100   1.039  0.00  0.00    -0.043 A 
ATOM      8  C   UNL     1      -0.826  -4.094  -0.453  0.00  0.00    +0.044 C 
ENDROOT
BRANCH   1   9
ATOM      9  C   UNL     1       1.861  -4.852   0.847  0.00  0.00    +0.070 C 
BRANCH   9  12
ATOM     10  C   UNL     1       3.179  -1.527  -0.586  0.00  0.00    -0.003 A 
ATOM     11  C   UNL     1       2.487  -2.457   0.214  0.00  0.00    +0.011 A 
ATOM     12  C   UNL     1       2.758  -3.830   0.174  0.00  0.00    -0.043 A 
ATOM     13  C   UNL     1       3.847  -4.266  -0.595  0.00  0.00    +0.007 A 
ATOM     14  C   UNL     1       4.615  -3.354  -1.320  0.00  0.00    +0.046 A 
ATOM     15  C   UNL     1       4.275  -2.002  -1.324  0.00  0.00    +0.120 A 
BRANCH  10  17
ATOM     16  C   UNL     1       2.011   0.108  -2.095  0.00  0.00    +0.012 C 
ATOM     17  C   UNL     1       2.667  -0.096  -0.719  0.00  0.00    +0.016 C 
ATOM     18  C   UNL     1       1.660   0.334   0.359  0.00  0.00    +0.012 C 
ENDBRANCH  10  17
BRANCH  15  19
ATOM     19  O   UNL     1       5.061  -1.200  -2.104  0.00  0.00    -0.506 OA
ATOM     20  H   UNL     1       4.862  -0.272  -1.916  0.00  0.00    +0.292 HD
ENDBRANCH  15  19
ENDBRANCH   9  12
ENDBRANCH   1   9
BRANCH   5  21
ATOM     21  O   UNL     1      -2.842  -3.682   3.925  0.00  0.00    -0.481 OA
BRANCH  21  22
ATOM     22  C   UNL     1      -2.784  -4.154   5.281  0.00  0.00    +0.349 C 
BRANCH  22  23
ATOM     23  C   UNL     1      -4.166  -4.341   5.886  0.00  0.00    +0.343 C 
ATOM     24  O   UNL     1      -4.379  -4.840   6.983  0.00  0.00    -0.247 OA
BRANCH  23  25
ATOM     25  O   UNL     1      -5.168  -3.870   5.089  0.00  0.00    -0.478 OA
ATOM     26  H   UNL     1      -4.788  -3.519   4.254  0.00  0.00    +0.295 HD
ENDBRANCH  23  25
ENDBRANCH  22  23
ENDBRANCH  21  22
ENDBRANCH   5  21
TORSDOF 8
