REMARK  Name = 
REMARK  12 active torsions:
REMARK  status: ('A' for Active; 'I' for Inactive)
REMARK    1  A    between atoms: N_6  and  C_7
REMARK    2  A    between atoms: C_7  and  C_8
REMARK    3  A    between atoms: C_8  and  C_9
REMARK    4  A    between atoms: C_9  and  C_10
REMARK    5  A    between atoms: C_10  and  C_11
REMARK    6  A    between atoms: C_11  and  C_12
REMARK    7  A    between atoms: C_12  and  C_13
REMARK    8  A    between atoms: C_13  and  C_14
REMARK    9  A    between atoms: C_16  and  O_18
REMARK   10  A    between atoms: C_19  and  O_21
REMARK   11  A    between atoms: C_22  and  O_24
REMARK   12  A    between atoms: C_25  and  O_27
REMARK                            x       y       z     vdW  Elec       q    Type
REMARK                         _______ _______ _______ _____ _____    ______ ____
ROOT
ATOM      1  C   UNL     1       2.208  -0.032   0.051  0.00  0.00    +0.119 C 
ATOM      2  C   UNL     1       2.455  -1.102   1.102  0.00  0.00    +0.167 C 
ATOM      3  C   UNL     1       2.014  -2.433   0.502  0.00  0.00    +0.177 C 
ATOM      4  C   UNL     1       2.761  -2.767  -0.790  0.00  0.00    +0.192 C 
ATOM      5  C   UNL     1       3.031  -1.568  -1.748  0.00  0.00    +0.236 C 
ATOM      6  N   UNL     1       3.035  -0.250  -1.138  0.00  0.00    -0.276 N 
ATOM      7  C   UNL     1       3.157   0.896  -1.901  0.00  0.00    +0.154 C 
ATOM      8  N   UNL     1       3.592   0.927  -3.112  0.00  0.00    -0.263 NA
ATOM      9  S   UNL     1       2.660   2.319  -0.977  0.00  0.00    -0.089 S 
ATOM     10  C   UNL     1       2.551   1.365   0.559  0.00  0.00    +0.102 C 
ENDROOT
BRANCH   2  11
ATOM     11  O   UNL     1       1.671  -0.808   2.263  0.00  0.00    -0.387 OA
ATOM     12  H   UNL     1       1.414  -1.672   2.645  0.00  0.00    +0.210 HD
ENDBRANCH   2  11
BRANCH   3  13
ATOM     13  O   UNL     1       2.235  -3.465   1.484  0.00  0.00    -0.386 OA
ATOM     14  H   UNL     1       2.119  -4.314   1.013  0.00  0.00    +0.210 HD
ENDBRANCH   3  13
BRANCH   4  15
ATOM     15  O   UNL     1       1.981  -3.793  -1.450  0.00  0.00    -0.385 OA
ATOM     16  H   UNL     1       2.430  -3.992  -2.294  0.00  0.00    +0.210 HD
ENDBRANCH   4  15
BRANCH   5  17
ATOM     17  O   UNL     1       4.334  -1.812  -2.266  0.00  0.00    -0.372 OA
ATOM     18  H   UNL     1       4.768  -0.940  -2.217  0.00  0.00    +0.212 HD
ENDBRANCH   5  17
BRANCH   8  19
ATOM     19  C   UNL     1       3.661   2.212  -3.813  0.00  0.00    +0.144 C 
BRANCH  19  20
ATOM     20  C   UNL     1       4.129   1.976  -5.250  0.00  0.00    +0.023 C 
BRANCH  20  21
ATOM     21  C   UNL     1       3.105   1.193  -6.071  0.00  0.00    +0.002 C 
BRANCH  21  22
ATOM     22  C   UNL     1       3.574   0.998  -7.514  0.00  0.00    +0.000 C 
BRANCH  22  23
ATOM     23  C   UNL     1       2.554   0.190  -8.316  0.00  0.00    -0.000 C 
BRANCH  23  24
ATOM     24  C   UNL     1       3.024  -0.019  -9.755  0.00  0.00    -0.000 C 
BRANCH  24  25
ATOM     25  C   UNL     1       2.007  -0.833 -10.552  0.00  0.00    -0.003 C 
ATOM     26  C   UNL     1       2.469  -1.044 -11.984  0.00  0.00    +0.004 C 
ENDBRANCH  24  25
ENDBRANCH  23  24
ENDBRANCH  22  23
ENDBRANCH  21  22
ENDBRANCH  20  21
ENDBRANCH  19  20
ENDBRANCH   8  19
TORSDOF 11
