REMARK  Name = 
REMARK  15 active torsions:
REMARK  status: ('A' for Active; 'I' for Inactive)
REMARK    1  A    between atoms: C_2  and  C_3
REMARK    2  A    between atoms: C_2  and  N_8
REMARK    3  A    between atoms: C_2  and  B_32
REMARK    4  A    between atoms: C_3  and  C_4
REMARK    5  A    between atoms: C_4  and  C_5
REMARK    6  A    between atoms: C_5  and  C_6
REMARK    7  A    between atoms: C_6  and  N_7
REMARK    8  A    between atoms: C_9  and  C_11
REMARK    9  A    between atoms: C_17  and  C_19
REMARK   10  A    between atoms: C_19  and  C_21
REMARK   11  A    between atoms: C_19  and  N_28
REMARK   12  A    between atoms: C_21  and  C_22
REMARK   13  A    between atoms: C_29  and  C_30
REMARK   14  A    between atoms: B_32  and  O_33
REMARK   15  A    between atoms: B_32  and  O_34
REMARK                            x       y       z     vdW  Elec       q    Type
REMARK                         _______ _______ _______ _____ _____    ______ ____
ROOT
ATOM      1  C   UNL     1       2.933  -1.797   3.547  0.00  0.00    +0.000 C 
ATOM      2  N   UNL     1       2.795  -3.100   2.876  0.00  0.00    +0.000 N 
ATOM      3  C   UNL     1       3.091  -3.349   1.554  0.00  0.00    +0.000 C 
ATOM      4  O   UNL     1       3.598  -2.468   0.875  0.00  0.00    +0.000 OA
ATOM      5  C   UNL     1       2.023  -4.039   3.667  0.00  0.00    +0.000 C 
ATOM      6  C   UNL     1       1.798  -3.340   4.994  0.00  0.00    +0.000 C 
ATOM      7  C   UNL     1       1.782  -1.879   4.575  0.00  0.00    +0.000 C 
ENDROOT
BRANCH   1  10
ATOM      8  N   UNL     1       4.748  -0.975   5.270  0.00  0.00    +0.000 N 
ATOM      9  H   UNL     1       3.986  -0.887   5.957  0.00  0.00    +0.000 HD
ATOM     10  C   UNL     1       4.397  -1.439   4.003  0.00  0.00    +0.000 C 
ATOM     11  O   UNL     1       5.240  -1.470   3.123  0.00  0.00    +0.000 OA
BRANCH   8  12
ATOM     12  C   UNL     1       6.079  -0.462   5.749  0.00  0.00    +0.000 C 
BRANCH  12  13
ATOM     13  B   UNL     1       7.353  -0.609   4.730  0.00  0.00    +0.000 B 
BRANCH  13  14
ATOM     14  O   UNL     1       7.879  -1.934   4.392  0.00  0.00    +0.000 OA
ATOM     15  H   UNL     1       7.190  -2.589   4.665  0.00  0.00    +0.000 HD
ENDBRANCH  13  14
BRANCH  13  16
ATOM     16  O   UNL     1       8.200   0.553   4.420  0.00  0.00    +0.000 OA
ATOM     17  H   UNL     1       7.631   1.362   4.448  0.00  0.00    +0.000 HD
ENDBRANCH  13  16
ENDBRANCH  12  13
BRANCH  12  18
ATOM     18  C   UNL     1       6.466  -1.072   7.141  0.00  0.00    +0.000 C 
BRANCH  18  19
ATOM     19  C   UNL     1       7.788  -0.537   7.794  0.00  0.00    +0.000 C 
BRANCH  19  20
ATOM     20  C   UNL     1       8.065  -1.192   9.172  0.00  0.00    +0.000 C 
BRANCH  20  21
ATOM     21  C   UNL     1       9.390  -0.716   9.802  0.00  0.00    +0.000 C 
BRANCH  21  22
ATOM     22  N   UNL     1       9.627  -1.374  11.087  0.00  0.00    +0.000 NA
ATOM     23  H   UNL     1      10.551  -1.055  11.462  0.00  0.00    +0.000 HD
ATOM     24  H   UNL     1       8.895  -1.072  11.771  0.00  0.00    +0.000 HD
ENDBRANCH  21  22
ENDBRANCH  20  21
ENDBRANCH  19  20
ENDBRANCH  18  19
ENDBRANCH  12  18
ENDBRANCH   8  12
ENDBRANCH   1  10
BRANCH   3  25
ATOM     25  C   UNL     1       2.701  -4.686   0.876  0.00  0.00    +0.000 C 
BRANCH  25  26
ATOM     26  N   UNL     1       3.732  -5.686   1.076  0.00  0.00    +0.000 N 
ATOM     27  H   UNL     1       4.680  -5.498   0.692  0.00  0.00    +0.000 HD
ATOM     28  C   UNL     1       3.510  -6.872   1.725  0.00  0.00    +0.000 C 
ATOM     29  O   UNL     1       2.396  -7.129   2.172  0.00  0.00    +0.000 OA
ATOM     30  C   UNL     1       4.583  -7.896   1.890  0.00  0.00    +0.000 C 
ENDBRANCH  25  26
BRANCH  25  31
ATOM     31  C   UNL     1       2.357  -4.541  -0.634  0.00  0.00    +0.000 C 
BRANCH  31  32
ATOM     32  C   UNL     1       1.027  -3.834  -0.827  0.00  0.00    +0.000 A 
ATOM     33  C   UNL     1      -0.156  -4.435  -0.350  0.00  0.00    +0.000 A 
ATOM     34  C   UNL     1      -1.389  -3.796  -0.491  0.00  0.00    +0.000 A 
ATOM     35  C   UNL     1      -1.460  -2.551  -1.114  0.00  0.00    +0.000 A 
ATOM     36  C   UNL     1      -0.298  -1.951  -1.611  0.00  0.00    +0.000 A 
ATOM     37  C   UNL     1       0.942  -2.590  -1.474  0.00  0.00    +0.000 A 
ENDBRANCH  31  32
ENDBRANCH  25  31
ENDBRANCH   3  25
TORSDOF 14
