REMARK  Name = 
REMARK  3 active torsions:
REMARK  status: ('A' for Active; 'I' for Inactive)
REMARK    1  A    between atoms: N_3  and  C_4
REMARK    2  A    between atoms: C_4  and  C_5
REMARK    3  A    between atoms: C_5  and  C_6
REMARK                            x       y       z     vdW  Elec       q    Type
REMARK                         _______ _______ _______ _____ _____    ______ ____
ROOT
ATOM      1  O   UNL     1       0.788   0.187  -0.013  0.00  0.00    -0.270 OA
ATOM      2  C   UNL     1       2.000   0.100   0.005  0.00  0.00    +0.254 C 
ATOM      3  C   UNL     1       2.722  -1.169   0.028  0.00  0.00    +0.049 A 
ATOM      4  C   UNL     1       4.076  -0.881   0.043  0.00  0.00    +0.049 A 
ATOM      5  C   UNL     1       5.031  -1.881   0.050  0.00  0.00    +0.014 A 
ATOM      6  C   UNL     1       4.572  -3.204   0.047  0.00  0.00    +0.001 A 
ATOM      7  C   UNL     1       3.192  -3.493   0.039  0.00  0.00    +0.001 A 
ATOM      8  C   UNL     1       4.213   0.578   0.044  0.00  0.00    +0.254 C 
ATOM      9  O   UNL     1       5.275   1.171   0.065  0.00  0.00    -0.270 OA
ATOM     10  C   UNL     1       2.246  -2.465   0.030  0.00  0.00    +0.014 A 
ATOM     11  N   UNL     1       2.944   1.092   0.004  0.00  0.00    -0.234 N 
ENDROOT
BRANCH  11  12
ATOM     12  C   UNL     1       2.629   2.515   0.009  0.00  0.00    +0.125 C 
BRANCH  12  13
ATOM     13  C   UNL     1       3.157   3.228  -1.238  0.00  0.00    +0.097 C 
BRANCH  13  14
ATOM     14  C   UNL     1       2.772   4.659  -1.274  0.00  0.00    +0.150 A 
ATOM     15  N   UNL     1       3.670   5.687  -1.337  0.00  0.00    -0.243 N 
ATOM     16  H   UNL     1       4.682   5.674  -1.344  0.00  0.00    +0.192 HD
ATOM     17  N   UNL     1       3.022   6.855  -1.421  0.00  0.00    -0.047 NA
ATOM     18  N   UNL     1       1.735   6.539  -1.401  0.00  0.00    -0.023 NA
ATOM     19  N   UNL     1       1.563   5.178  -1.308  0.00  0.00    -0.114 NA
ENDBRANCH  13  14
ENDBRANCH  12  13
ENDBRANCH  11  12
TORSDOF 3
