REMARK  Name = 
REMARK  7 active torsions:
REMARK  status: ('A' for Active; 'I' for Inactive)
REMARK    1  A    between atoms: C_1  and  C_2
REMARK    2  A    between atoms: C_5  and  C_7
REMARK    3  A    between atoms: C_10  and  C_11
REMARK    4  A    between atoms: C_12  and  C_14
REMARK    5  A    between atoms: C_17  and  C_20
REMARK    6  A    between atoms: N_22  and  C_23
REMARK    7  A    between atoms: C_25  and  C_29
REMARK                            x       y       z     vdW  Elec       q    Type
REMARK                         _______ _______ _______ _____ _____    ______ ____
ROOT
ATOM      1  C   UNL     1       5.608  -5.710  -0.207  0.00  0.00    -0.018 A 
ATOM      2  C   UNL     1       4.455  -6.037  -0.957  0.00  0.00    +0.009 A 
ATOM      3  C   UNL     1       4.022  -7.363  -1.131  0.00  0.00    +0.013 A 
ATOM      4  C   UNL     1       4.761  -8.403  -0.575  0.00  0.00    +0.037 A 
ATOM      5  C   UNL     1       5.860  -8.102   0.231  0.00  0.00    +0.013 A 
ATOM      6  C   UNL     1       6.245  -6.778   0.442  0.00  0.00    +0.009 A 
ENDROOT
BRANCH   1   9
ATOM      7  C   UNL     1       5.632  -1.881  -0.275  0.00  0.00    +0.039 A 
ATOM      8  C   UNL     1       5.221  -3.224  -0.199  0.00  0.00    +0.022 A 
ATOM      9  C   UNL     1       6.133  -4.309  -0.145  0.00  0.00    -0.014 A 
ATOM     10  C   UNL     1       7.518  -3.979  -0.122  0.00  0.00    -0.043 A 
ATOM     11  C   UNL     1       8.638  -4.991  -0.133  0.00  0.00    +0.044 C 
ATOM     12  C   UNL     1       7.921  -2.630  -0.115  0.00  0.00    +0.005 A 
ATOM     13  C   UNL     1       6.995  -1.598  -0.208  0.00  0.00    +0.013 A 
BRANCH   7  17
ATOM     14  C   UNL     1       4.139   2.634  -0.932  0.00  0.00    +0.111 C 
ATOM     15  C   UNL     1       3.993   1.176  -0.791  0.00  0.00    +0.215 A 
ATOM     16  O   UNL     1       5.134   0.462  -0.560  0.00  0.00    -0.421 OA
ATOM     17  C   UNL     1       4.653  -0.820  -0.473  0.00  0.00    +0.248 A 
ATOM     18  N   UNL     1       3.347  -0.877  -0.641  0.00  0.00    -0.107 NA
ATOM     19  N   UNL     1       2.918   0.421  -0.847  0.00  0.00    -0.112 NA
ENDBRANCH   7  17
ENDBRANCH   1   9
BRANCH   4  20
ATOM     20  C   UNL     1       4.424  -9.836  -0.749  0.00  0.00    +0.248 C 
ATOM     21  N   UNL     1       3.901 -10.213  -1.978  0.00  0.00    -0.281 N 
ATOM     22  H   UNL     1       3.884  -9.519  -2.715  0.00  0.00    +0.155 HD
ATOM     23  O   UNL     1       4.720 -10.590   0.171  0.00  0.00    -0.270 OA
BRANCH  21  24
ATOM     24  C   UNL     1       3.654 -11.554  -2.362  0.00  0.00    +0.035 A 
ATOM     25  C   UNL     1       3.500 -11.842  -3.722  0.00  0.00    +0.023 A 
ATOM     26  C   UNL     1       3.371 -13.168  -4.155  0.00  0.00    +0.003 A 
ATOM     27  C   UNL     1       3.379 -14.213  -3.231  0.00  0.00    +0.019 A 
ATOM     28  C   UNL     1       3.481 -13.931  -1.872  0.00  0.00    +0.054 A 
ATOM     29  C   UNL     1       3.600 -12.606  -1.442  0.00  0.00    +0.042 A 
BRANCH  28  30
ATOM     30  C   UNL     1       3.484 -14.996  -0.912  0.00  0.00    +0.099 C 
ATOM     31  N   UNL     1       3.489 -15.864  -0.137  0.00  0.00    -0.191 NA
ENDBRANCH  28  30
ENDBRANCH  21  24
ENDBRANCH   4  20
TORSDOF 5
