REMARK  Name = 
REMARK  5 active torsions:
REMARK  status: ('A' for Active; 'I' for Inactive)
REMARK    1  A    between atoms: C_1  and  C_2
REMARK    2  A    between atoms: C_6  and  C_7
REMARK    3  A    between atoms: C_8  and  C_9
REMARK    4  A    between atoms: N_11  and  C_12
REMARK    5  A    between atoms: C_16  and  O_17
REMARK                            x       y       z     vdW  Elec       q    Type
REMARK                         _______ _______ _______ _____ _____    ______ ____
ROOT
ATOM      1  C   UNL     1       2.409  -2.526   0.458  0.00  0.00    +0.249 C 
ATOM      2  N   UNL     1       1.219  -2.828  -0.188  0.00  0.00    -0.281 N 
ATOM      3  H   UNL     1       0.840  -2.147  -0.827  0.00  0.00    +0.155 HD
ATOM      4  O   UNL     1       2.954  -3.269   1.269  0.00  0.00    -0.270 OA
ENDROOT
BRANCH   1   7
ATOM      5  C   UNL     1       0.891   0.187   0.086  0.00  0.00    +0.044 C 
ATOM      6  C   UNL     1       2.387   0.037   0.122  0.00  0.00    -0.038 A 
ATOM      7  C   UNL     1       3.082  -1.199   0.187  0.00  0.00    +0.043 A 
ATOM      8  C   UNL     1       4.509  -1.184   0.176  0.00  0.00    -0.038 A 
ATOM      9  C   UNL     1       5.348  -2.439   0.131  0.00  0.00    +0.044 C 
ATOM     10  C   UNL     1       5.202   0.039   0.215  0.00  0.00    +0.004 A 
ATOM     11  C   UNL     1       4.516   1.243   0.205  0.00  0.00    +0.001 A 
ATOM     12  C   UNL     1       3.128   1.240   0.129  0.00  0.00    +0.004 A 
ENDBRANCH   1   7
BRANCH   2  13
ATOM     13  C   UNL     1       0.451  -4.017  -0.022  0.00  0.00    +0.036 A 
ATOM     14  C   UNL     1      -0.819  -4.066  -0.604  0.00  0.00    +0.042 A 
ATOM     15  C   UNL     1      -1.628  -5.208  -0.469  0.00  0.00    +0.062 A 
ATOM     16 BR   UNL     1      -3.349  -5.197  -1.268  0.00  0.00    -0.046 Br
ATOM     17  C   UNL     1      -1.168  -6.318   0.242  0.00  0.00    +0.145 A 
ATOM     18  C   UNL     1       0.101  -6.276   0.817  0.00  0.00    +0.062 A 
ATOM     19 BR   UNL     1       0.778  -7.768   1.776  0.00  0.00    -0.046 Br
ATOM     20  C   UNL     1       0.902  -5.138   0.689  0.00  0.00    +0.042 A 
BRANCH  17  21
ATOM     21  O   UNL     1      -1.957  -7.430   0.365  0.00  0.00    -0.505 OA
ATOM     22  H   UNL     1      -1.468  -8.086   0.895  0.00  0.00    +0.292 HD
ENDBRANCH  17  21
ENDBRANCH   2  13
TORSDOF 3
