REMARK  Name = 
REMARK  10 active torsions:
REMARK  status: ('A' for Active; 'I' for Inactive)
REMARK    1  A    between atoms: C_2  and  O_3
REMARK    2  A    between atoms: C_2  and  C_4
REMARK    3  A    between atoms: C_2  and  C_17
REMARK    4  A    between atoms: N_6  and  C_7
REMARK    5  A    between atoms: C_10  and  C_14
REMARK    6  A    between atoms: C_14  and  O_15
REMARK    7  A    between atoms: C_23  and  C_24
REMARK    8  A    between atoms: C_23  and  C_25
REMARK    9  A    between atoms: C_28  and  C_29
REMARK   10  A    between atoms: C_28  and  C_30
REMARK                            x       y       z     vdW  Elec       q    Type
REMARK                         _______ _______ _______ _____ _____    ______ ____
ROOT
ATOM      1  C   UNL     1       2.183  -0.180   0.024  0.00  0.00    +0.230 C 
ENDROOT
BRANCH   1   2
ATOM      2  C   UNL     1       2.523   0.957   0.968  0.00  0.00    -0.010 A 
ATOM      3  C   UNL     1       3.185   0.748   2.176  0.00  0.00    +0.007 A 
ATOM      4  C   UNL     1       3.459   1.821   3.026  0.00  0.00    +0.005 A 
ATOM      5  C   UNL     1       3.091   3.145   2.705  0.00  0.00    -0.038 A 
ATOM      6  C   UNL     1       3.426   4.277   3.685  0.00  0.00    -0.010 C 
ATOM      7  C   UNL     1       3.269   5.667   3.028  0.00  0.00    +0.012 C 
ATOM      8  C   UNL     1       1.982   5.779   2.227  0.00  0.00    +0.012 C 
ATOM      9  C   UNL     1       1.938   4.771   1.058  0.00  0.00    -0.010 C 
ATOM     10  C   UNL     1       2.875   5.241  -0.078  0.00  0.00    +0.016 C 
ATOM     11  C   UNL     1       0.487   4.784   0.521  0.00  0.00    +0.016 C 
ATOM     12  C   UNL     1       2.487   4.167   4.906  0.00  0.00    +0.016 C 
ATOM     13  C   UNL     1       4.887   4.191   4.186  0.00  0.00    +0.016 C 
ATOM     14  C   UNL     1       2.381   3.370   1.504  0.00  0.00    -0.038 A 
ATOM     15  C   UNL     1       2.117   2.267   0.662  0.00  0.00    +0.011 A 
ENDBRANCH   1   2
BRANCH   1  16
ATOM     16  C   UNL     1       2.606   0.114  -1.433  0.00  0.00    +0.250 C 
ATOM     17  N   UNL     1       3.886  -0.317  -1.743  0.00  0.00    -0.281 N 
ATOM     18  H   UNL     1       4.447  -0.658  -0.963  0.00  0.00    +0.155 HD
ATOM     19  O   UNL     1       1.843   0.701  -2.198  0.00  0.00    -0.272 OA
BRANCH  17  20
ATOM     20  C   UNL     1       4.527  -0.212  -2.998  0.00  0.00    +0.069 A 
ATOM     21  C   UNL     1       5.898  -0.489  -3.078  0.00  0.00    +0.145 A 
ATOM     22  F   UNL     1       6.568  -0.856  -1.973  0.00  0.00    -0.204 F 
ATOM     23  C   UNL     1       6.596  -0.378  -4.280  0.00  0.00    +0.055 A 
ATOM     24  C   UNL     1       5.914   0.001  -5.442  0.00  0.00    +0.062 A 
ATOM     25  C   UNL     1       4.545   0.275  -5.382  0.00  0.00    +0.017 A 
ATOM     26  C   UNL     1       3.860   0.156  -4.168  0.00  0.00    +0.027 A 
BRANCH  24  27
ATOM     27  C   UNL     1       6.682   0.148  -6.702  0.00  0.00    +0.337 C 
ATOM     28  O   UNL     1       7.859   0.464  -6.717  0.00  0.00    -0.245 OA
BRANCH  27  29
ATOM     29  O   UNL     1       5.978  -0.133  -7.817  0.00  0.00    -0.477 OA
ATOM     30  H   UNL     1       5.102  -0.536  -7.676  0.00  0.00    +0.295 HD
ENDBRANCH  27  29
ENDBRANCH  24  27
ENDBRANCH  17  20
ENDBRANCH   1  16
BRANCH   1  31
ATOM     31  O   UNL     1       2.748  -1.420   0.460  0.00  0.00    -0.378 OA
ATOM     32  H   UNL     1       2.240  -2.118   0.009  0.00  0.00    +0.211 HD
ENDBRANCH   1  31
TORSDOF 6
