REMARK  Name = 
REMARK  6 active torsions:
REMARK  status: ('A' for Active; 'I' for Inactive)
REMARK    1  A    between atoms: C_1  and  C_2
REMARK    2  A    between atoms: C_1  and  N_9
REMARK    3  A    between atoms: C_2  and  N_3
REMARK    4  A    between atoms: N_9  and  C_10
REMARK    5  A    between atoms: C_14  and  C_22
REMARK    6  A    between atoms: C_15  and  C_16
REMARK                            x       y       z     vdW  Elec       q    Type
REMARK                         _______ _______ _______ _____ _____    ______ ____
ROOT
ATOM      1  C   UNL     1       3.450   1.057  -0.430  0.00  0.00    +0.134 A 
ATOM      2  N   UNL     1       3.160   2.384  -0.469  0.00  0.00    -0.220 NA
ATOM      3  C   UNL     1       3.626   3.139  -1.478  0.00  0.00    +0.227 A 
ATOM      4  N   UNL     1       4.368   2.747  -2.503  0.00  0.00    -0.200 NA
ATOM      5  C   UNL     1       4.623   1.436  -2.454  0.00  0.00    +0.233 A 
ATOM      6  O   UNL     1       5.355   0.826  -3.420  0.00  0.00    -0.436 OA
ATOM      7  C   UNL     1       5.409  -0.505  -3.135  0.00  0.00    +0.146 A 
ATOM      8  C   UNL     1       4.734  -0.762  -1.935  0.00  0.00    +0.041 A 
ATOM      9  C   UNL     1       4.209   0.517  -1.496  0.00  0.00    +0.088 A 
ENDROOT
BRANCH   7  10
ATOM     10  C   UNL     1       6.145  -1.295  -4.135  0.00  0.00    +0.018 A 
ATOM     11  C   UNL     1       5.792  -2.621  -4.421  0.00  0.00    +0.011 A 
ATOM     12  C   UNL     1       6.609  -3.434  -5.209  0.00  0.00    +0.001 A 
ATOM     13  C   UNL     1       7.751  -2.906  -5.801  0.00  0.00    +0.000 A 
ATOM     14  C   UNL     1       8.061  -1.560  -5.621  0.00  0.00    +0.001 A 
ATOM     15  C   UNL     1       7.269  -0.761  -4.788  0.00  0.00    +0.011 A 
ENDBRANCH   7  10
BRANCH   8  16
ATOM     16  C   UNL     1       4.584  -2.099  -1.353  0.00  0.00    -0.014 A 
ATOM     17  C   UNL     1       3.354  -2.499  -0.823  0.00  0.00    +0.008 A 
ATOM     18  C   UNL     1       3.151  -3.805  -0.365  0.00  0.00    +0.001 A 
ATOM     19  C   UNL     1       4.153  -4.757  -0.500  0.00  0.00    +0.000 A 
ATOM     20  C   UNL     1       5.388  -4.380  -1.018  0.00  0.00    +0.001 A 
ATOM     21  C   UNL     1       5.618  -3.049  -1.385  0.00  0.00    +0.008 A 
ENDBRANCH   8  16
BRANCH   1  22
ATOM     22  N   UNL     1       2.930   0.300   0.635  0.00  0.00    -0.327 N 
ATOM     23  H   UNL     1       2.055  -0.108   0.314  0.00  0.00    +0.148 HD
BRANCH  22  24
ATOM     24  C   UNL     1       2.656   1.095   1.843  0.00  0.00    +0.118 C 
BRANCH  24  25
ATOM     25  C   UNL     1       1.994   0.266   2.976  0.00  0.00    +0.103 C 
BRANCH  25  26
ATOM     26  N   UNL     1       2.703  -0.930   3.469  0.00  0.00    -0.298 NA
ATOM     27  C   UNL     1       1.920  -1.619   4.522  0.00  0.00    +0.099 C 
ATOM     28  C   UNL     1       1.885  -0.886   5.884  0.00  0.00    +0.096 C 
ATOM     29  N   UNL     1       3.222  -0.590   6.411  0.00  0.00    -0.314 NA
ATOM     30  H   UNL     1       3.150   0.003   7.233  0.00  0.00    +0.122 HD
ATOM     31  C   UNL     1       4.054   0.071   5.392  0.00  0.00    +0.096 C 
ATOM     32  C   UNL     1       4.045  -0.641   4.017  0.00  0.00    +0.099 C 
ENDBRANCH  25  26
ENDBRANCH  24  25
ENDBRANCH  22  24
ENDBRANCH   1  22
TORSDOF 6
