REMARK  Name = 
REMARK  4 active torsions:
REMARK  status: ('A' for Active; 'I' for Inactive)
REMARK    1  A    between atoms: C_1  and  C_2
REMARK    2  A    between atoms: C_7  and  C_20
REMARK    3  A    between atoms: C_8  and  C_10
REMARK    4  A    between atoms: C_22  and  C_23
REMARK                            x       y       z     vdW  Elec       q    Type
REMARK                         _______ _______ _______ _____ _____    ______ ____
ROOT
ATOM      1  C   UNL     1       1.248   0.597   0.479  0.00  0.00    +0.109 C 
ATOM      2  C   UNL     1       2.749   0.680   0.434  0.00  0.00    +0.216 C 
ATOM      3  N   UNL     1       3.377  -0.450   0.908  0.00  0.00    -0.256 N 
ATOM      4  H   UNL     1       2.908  -1.345   0.867  0.00  0.00    +0.158 HD
ATOM      5  C   UNL     1       4.745  -0.507   0.973  0.00  0.00    +0.200 A 
ATOM      6  N   UNL     1       5.544   0.562   1.269  0.00  0.00    -0.325 N 
ATOM      7  H   UNL     1       5.191   1.486   1.477  0.00  0.00    +0.169 HD
ATOM      8  C   UNL     1       6.859   0.141   1.329  0.00  0.00    +0.077 A 
ATOM      9  C   UNL     1       6.775  -1.163   0.838  0.00  0.00    +0.117 A 
ATOM     10  N   UNL     1       5.455  -1.588   0.789  0.00  0.00    -0.212 NA
ATOM     11  O   UNL     1       3.322   1.694   0.041  0.00  0.00    -0.276 OA
ENDROOT
BRANCH   8  12
ATOM     12  C   UNL     1       7.946   0.988   1.844  0.00  0.00    +0.003 A 
ATOM     13  C   UNL     1       7.813   2.381   1.920  0.00  0.00    +0.040 A 
ATOM     14  C   UNL     1       8.758   3.182   2.558  0.00  0.00    +0.090 A 
ATOM     15  C   UNL     1       9.919   2.585   3.102  0.00  0.00    +0.089 A 
ATOM     16  N   UNL     1      10.849   3.312   3.751  0.00  0.00    -0.252 NA
ATOM     17  C   UNL     1      10.596   4.632   3.872  0.00  0.00    +0.131 A 
ATOM     18  C   UNL     1       9.462   5.216   3.348  0.00  0.00    +0.131 A 
ATOM     19  C   UNL     1      10.079   1.214   2.991  0.00  0.00    +0.030 A 
ATOM     20  N   UNL     1       8.530   4.506   2.674  0.00  0.00    -0.252 NA
ATOM     21  C   UNL     1       9.102   0.416   2.394  0.00  0.00    +0.012 A 
ENDBRANCH   8  12
BRANCH   9  22
ATOM     22  C   UNL     1       7.857  -2.024   0.381  0.00  0.00    +0.092 A 
ATOM     23  C   UNL     1       7.677  -3.402   0.312  0.00  0.00    +0.033 A 
ATOM     24  C   UNL     1       8.669  -4.188  -0.270  0.00  0.00    +0.042 A 
ATOM     25  C   UNL     1       9.814  -3.572  -0.749  0.00  0.00    +0.144 A 
ATOM     26  F   UNL     1      10.777  -4.311  -1.321  0.00  0.00    -0.204 F 
ATOM     27  C   UNL     1       9.953  -2.196  -0.629  0.00  0.00    +0.074 A 
ATOM     28  C   UNL     1      11.208  -1.520  -1.091  0.00  0.00    +0.068 C 
ATOM     29  N   UNL     1       8.985  -1.411  -0.081  0.00  0.00    -0.247 NA
ENDBRANCH   9  22
TORSDOF 2
