REMARK  Name = 
REMARK  7 active torsions:
REMARK  status: ('A' for Active; 'I' for Inactive)
REMARK    1  A    between atoms: C_1  and  C_2
REMARK    2  A    between atoms: C_2  and  C_3
REMARK    3  A    between atoms: C_4  and  C_5
REMARK    4  A    between atoms: C_11  and  O_12
REMARK    5  A    between atoms: O_12  and  C_13
REMARK    6  A    between atoms: C_17  and  C_18
REMARK    7  A    between atoms: C_19  and  C_20
REMARK                            x       y       z     vdW  Elec       q    Type
REMARK                         _______ _______ _______ _____ _____    ______ ____
ROOT
ATOM      1  C   UNL     1       2.957  -1.049   1.134  0.00  0.00    +0.015 A 
ATOM      2  C   UNL     1       2.430  -2.291   0.483  0.00  0.00    +0.151 A 
ATOM      3  C   UNL     1       2.731  -3.503   1.015  0.00  0.00    +0.120 A 
ATOM      4  I   UNL     1       2.184  -5.311   0.148  0.00  0.00    -0.034 I 
ATOM      5  C   UNL     1       3.597  -3.589   2.240  0.00  0.00    +0.266 A 
ATOM      6  O   UNL     1       3.809  -4.632   2.850  0.00  0.00    -0.267 OA
ATOM      7  N   UNL     1       4.173  -2.421   2.635  0.00  0.00    -0.325 N 
ATOM      8  H   UNL     1       4.786  -2.507   3.436  0.00  0.00    +0.169 HD
ATOM      9  C   UNL     1       3.859  -1.181   2.141  0.00  0.00    +0.023 A 
ATOM     10  C   UNL     1       4.533  -0.039   2.868  0.00  0.00    +0.064 C 
ENDROOT
BRANCH   1  12
ATOM     11  C   UNL     1       3.113   1.216  -0.100  0.00  0.00    +0.009 C 
ATOM     12  C   UNL     1       2.409   0.347   0.921  0.00  0.00    +0.037 C 
ENDBRANCH   1  12
BRANCH   2  13
ATOM     13  O   UNL     1       1.914  -2.303  -0.827  0.00  0.00    -0.454 OA
BRANCH  13  14
ATOM     14  C   UNL     1       0.978  -1.455  -1.349  0.00  0.00    +0.129 A 
ATOM     15  C   UNL     1      -0.004  -0.800  -0.613  0.00  0.00    +0.054 A 
ATOM     16  C   UNL     1      -0.635   0.327  -1.162  0.00  0.00    -0.021 A 
ATOM     17  C   UNL     1      -0.525   0.548  -2.544  0.00  0.00    +0.008 A 
ATOM     18  C   UNL     1       0.272  -0.277  -3.337  0.00  0.00    +0.004 A 
ATOM     19  C   UNL     1       1.058  -1.251  -2.729  0.00  0.00    +0.046 A 
BRANCH  16  20
ATOM     20  C   UNL     1      -1.196   1.424  -0.339  0.00  0.00    +0.019 C 
ATOM     21  C   UNL     1      -1.295   1.476   1.001  0.00  0.00    +0.089 C 
BRANCH  21  22
ATOM     22  C   UNL     1      -1.662   2.681   1.672  0.00  0.00    +0.091 C 
ATOM     23  N   UNL     1      -1.925   3.668   2.216  0.00  0.00    -0.191 NA
ENDBRANCH  21  22
ENDBRANCH  16  20
ENDBRANCH  13  14
ENDBRANCH   2  13
TORSDOF 5
