REMARK  Name = 
REMARK  9 active torsions:
REMARK  status: ('A' for Active; 'I' for Inactive)
REMARK    1  A    between atoms: C_2  and  O_3
REMARK    2  A    between atoms: C_2  and  C_4
REMARK    3  A    between atoms: C_2  and  C_6
REMARK    4  A    between atoms: C_4  and  O_5
REMARK    5  A    between atoms: C_6  and  O_7
REMARK    6  A    between atoms: O_7  and  N_8
REMARK    7  A    between atoms: C_9  and  C_11
REMARK    8  A    between atoms: C_18  and  N_19
REMARK    9  A    between atoms: N_19  and  C_20
REMARK                            x       y       z     vdW  Elec       q    Type
REMARK                         _______ _______ _______ _____ _____    ______ ____
ROOT
ATOM      1  C   UNL     1       6.417  -4.058   1.223  0.00  0.00    +0.063 A 
ATOM      2  C   UNL     1       6.078  -5.173   0.425  0.00  0.00    +0.082 A 
ATOM      3  C   UNL     1       6.421  -6.458   0.918  0.00  0.00    +0.180 A 
ATOM      4  F   UNL     1       6.075  -7.539   0.193  0.00  0.00    -0.201 F 
ATOM      5  C   UNL     1       7.099  -6.654   2.116  0.00  0.00    +0.160 A 
ATOM      6  F   UNL     1       7.389  -7.892   2.535  0.00  0.00    -0.202 F 
ATOM      7  C   UNL     1       7.483  -5.562   2.864  0.00  0.00    +0.042 A 
ATOM      8  C   UNL     1       7.138  -4.278   2.428  0.00  0.00    +0.018 A 
ENDROOT
BRANCH   1  11
ATOM      9  N   UNL     1       4.741  -2.388   0.511  0.00  0.00    -0.190 N 
ATOM     10  H   UNL     1       4.287  -3.053  -0.102  0.00  0.00    +0.183 HD
ATOM     11  C   UNL     1       5.985  -2.625   1.054  0.00  0.00    +0.269 C 
ATOM     12  O   UNL     1       6.714  -1.738   1.493  0.00  0.00    -0.268 OA
BRANCH   9  13
ATOM     13  O   UNL     1       4.355  -1.017   0.399  0.00  0.00    -0.277 OA
BRANCH  13  14
ATOM     14  C   UNL     1       2.925  -0.941   0.324  0.00  0.00    +0.223 C 
BRANCH  14  15
ATOM     15  C   UNL     1       2.376   0.497   0.343  0.00  0.00    +0.168 C 
BRANCH  15  16
ATOM     16  O   UNL     1       2.792   1.235  -0.813  0.00  0.00    -0.387 OA
ATOM     17  H   UNL     1       2.386   2.118  -0.716  0.00  0.00    +0.210 HD
ENDBRANCH  15  16
BRANCH  15  18
ATOM     18  C   UNL     1       2.744   1.294   1.595  0.00  0.00    +0.189 C 
BRANCH  18  19
ATOM     19  O   UNL     1       2.096   2.574   1.518  0.00  0.00    -0.392 OA
ATOM     20  H   UNL     1       2.794   3.237   1.366  0.00  0.00    +0.210 HD
ENDBRANCH  18  19
ENDBRANCH  15  18
ENDBRANCH  14  15
ENDBRANCH  13  14
ENDBRANCH   9  13
ENDBRANCH   1  11
BRANCH   2  21
ATOM     21  N   UNL     1       5.524  -5.182  -0.871  0.00  0.00    -0.310 N 
ATOM     22  H   UNL     1       5.049  -6.058  -1.105  0.00  0.00    +0.152 HD
BRANCH  21  23
ATOM     23  C   UNL     1       5.499  -4.255  -1.936  0.00  0.00    +0.050 A 
ATOM     24  C   UNL     1       4.366  -4.210  -2.769  0.00  0.00    +0.063 A 
ATOM     25 CL   UNL     1       3.331  -5.589  -2.916  0.00  0.00    -0.082 Cl
ATOM     26  C   UNL     1       4.026  -3.040  -3.437  0.00  0.00    +0.036 A 
ATOM     27  C   UNL     1       4.898  -1.957  -3.382  0.00  0.00    +0.015 A 
ATOM     28  I   UNL     1       4.300  -0.118  -4.132  0.00  0.00    -0.044 I 
ATOM     29  C   UNL     1       6.147  -2.085  -2.776  0.00  0.00    +0.016 A 
ATOM     30  C   UNL     1       6.445  -3.236  -2.047  0.00  0.00    +0.026 A 
ENDBRANCH  21  23
ENDBRANCH   2  21
TORSDOF 9
