REMARK  Name = 
REMARK  9 active torsions:
REMARK  status: ('A' for Active; 'I' for Inactive)
REMARK    1  A    between atoms: C_1  and  C_2
REMARK    2  A    between atoms: C_3  and  C_4
REMARK    3  A    between atoms: C_4  and  O_5
REMARK    4  A    between atoms: O_5  and  C_6
REMARK    5  A    between atoms: C_9  and  S_12
REMARK    6  A    between atoms: S_12  and  C_15
REMARK    7  A    between atoms: C_15  and  C_16
REMARK    8  A    between atoms: C_16  and  C_17
REMARK    9  A    between atoms: C_17  and  S_18
REMARK                            x       y       z     vdW  Elec       q    Type
REMARK                         _______ _______ _______ _____ _____    ______ ____
ROOT
ATOM      1  C   UNL     1       7.161  -1.497   0.203  0.00  0.00    +0.122 A 
ATOM      2  C   UNL     1       7.632  -2.814   0.209  0.00  0.00    +0.047 A 
ATOM      3  C   UNL     1       8.999  -3.087   0.090  0.00  0.00    +0.030 A 
ATOM      4  C   UNL     1       9.903  -2.028  -0.016  0.00  0.00    +0.088 A 
ATOM      5  C   UNL     1       9.448  -0.707   0.007  0.00  0.00    +0.030 A 
ATOM      6  C   UNL     1       8.077  -0.445   0.124  0.00  0.00    +0.047 A 
ENDROOT
BRANCH   4   7
ATOM      7  S   UNL     1      11.634  -2.355  -0.281  0.00  0.00    -0.003 S 
ATOM      8  O   UNL     1      11.997  -1.656  -1.500  0.00  0.00    -0.169 OA
ATOM      9  O   UNL     1      11.835  -3.786  -0.154  0.00  0.00    -0.169 OA
BRANCH   7  10
ATOM     10  C   UNL     1      12.474  -1.572   1.084  0.00  0.00    +0.172 C 
BRANCH  10  11
ATOM     11  C   UNL     1      13.993  -1.701   0.938  0.00  0.00    +0.033 C 
BRANCH  11  12
ATOM     12  C   UNL     1      14.779  -1.057   2.078  0.00  0.00    +0.067 C 
BRANCH  12  13
ATOM     13  S   UNL     1      14.526   0.740   2.180  0.00  0.00    -0.178 S 
ATOM     14  H   UNL     1      14.990   1.036   0.956  0.00  0.00    +0.102 HD
ENDBRANCH  12  13
ENDBRANCH  11  12
ENDBRANCH  10  11
ENDBRANCH   7  10
ENDBRANCH   4   7
BRANCH   1  15
ATOM     15  O   UNL     1       5.802  -1.357   0.312  0.00  0.00    -0.480 OA
BRANCH  15  16
ATOM     16  C   UNL     1       5.242  -0.200  -0.314  0.00  0.00    +0.317 C 
BRANCH  16  19
ATOM     17  C   UNL     1       1.115  -0.110   0.002  0.00  0.00    +0.106 C 
ATOM     18  C   UNL     1       2.574  -0.192  -0.106  0.00  0.00    -0.102 C 
ATOM     19  C   UNL     1       3.771  -0.225  -0.196  0.00  0.00    -0.062 C 
ENDBRANCH  16  19
ENDBRANCH  15  16
ENDBRANCH   1  15
TORSDOF 8
