REMARK  Name = 
REMARK  6 active torsions:
REMARK  status: ('A' for Active; 'I' for Inactive)
REMARK    1  A    between atoms: C_1  and  O_2
REMARK    2  A    between atoms: O_2  and  C_3
REMARK    3  A    between atoms: C_4  and  O_5
REMARK    4  A    between atoms: C_7  and  C_8
REMARK    5  A    between atoms: C_9  and  C_10
REMARK    6  A    between atoms: C_10  and  O_11
REMARK                            x       y       z     vdW  Elec       q    Type
REMARK                         _______ _______ _______ _____ _____    ______ ____
ROOT
ATOM      1  C   UNL     1       2.992  -1.066   0.603  0.00  0.00    +0.161 A 
ATOM      2  C   UNL     1       2.515  -2.368   0.496  0.00  0.00    +0.050 A 
ATOM      3  C   UNL     1       3.221  -3.425   1.090  0.00  0.00    +0.012 A 
ATOM      4  C   UNL     1       4.405  -3.198   1.810  0.00  0.00    -0.021 A 
ATOM      5  C   UNL     1       4.880  -1.886   1.914  0.00  0.00    +0.057 A 
ATOM      6  C   UNL     1       4.175  -0.844   1.316  0.00  0.00    +0.159 A 
ENDROOT
BRANCH   1   8
ATOM      7  C   UNL     1       1.214  -0.140  -0.671  0.00  0.00    +0.277 C 
ATOM      8  O   UNL     1       2.419   0.055   0.061  0.00  0.00    -0.491 OA
ENDBRANCH   1   8
BRANCH   4   9
ATOM      9  C   UNL     1       5.128  -4.358   2.358  0.00  0.00    +0.015 C 
ATOM     10  C   UNL     1       5.927  -4.311   3.438  0.00  0.00    +0.092 C 
BRANCH  10  11
ATOM     11  C   UNL     1       6.639  -5.462   4.025  0.00  0.00    +0.330 C 
ATOM     12  O   UNL     1       6.997  -5.468   5.191  0.00  0.00    -0.246 OA
BRANCH  11  13
ATOM     13  O   UNL     1       6.892  -6.474   3.175  0.00  0.00    -0.478 OA
ATOM     14  H   UNL     1       6.724  -6.272   2.239  0.00  0.00    +0.295 HD
ENDBRANCH  11  13
ENDBRANCH  10  11
ENDBRANCH   4   9
BRANCH   6  15
ATOM     15  O   UNL     1       4.680   0.424   1.433  0.00  0.00    -0.503 OA
ATOM     16  H   UNL     1       4.055   0.992   0.942  0.00  0.00    +0.292 HD
ENDBRANCH   6  15
TORSDOF 5
