REMARK  Name = 
REMARK  15 active torsions:
REMARK  status: ('A' for Active; 'I' for Inactive)
REMARK    1  A    between atoms: C_2  and  C_3
REMARK    2  A    between atoms: C_2  and  C_4
REMARK    3  A    between atoms: C_2  and  C_6
REMARK    4  A    between atoms: C_4  and  C_5
REMARK    5  A    between atoms: C_6  and  N_8
REMARK    6  A    between atoms: C_6  and  C_22
REMARK    7  A    between atoms: C_9  and  C_11
REMARK    8  A    between atoms: C_14  and  C_16
REMARK    9  A    between atoms: N_18  and  C_19
REMARK   10  A    between atoms: C_19  and  C_20
REMARK   11  A    between atoms: C_20  and  C_21
REMARK   12  A    between atoms: C_28  and  C_30
REMARK   13  A    between atoms: C_30  and  O_32
REMARK   14  A    between atoms: O_32  and  C_33
REMARK   15  A    between atoms: C_33  and  C_34
REMARK                            x       y       z     vdW  Elec       q    Type
REMARK                         _______ _______ _______ _____ _____    ______ ____
ROOT
ATOM      1  C   UNL     1       2.555  -1.319   0.326  0.00  0.00    +0.162 C 
ENDROOT
BRANCH   1   2
ATOM      2  C   UNL     1       4.079  -1.565   0.451  0.00  0.00    +0.237 C 
ATOM      3  N   UNL     1       4.955  -0.550   0.112  0.00  0.00    -0.286 N 
ATOM      4  C   UNL     1       4.671   0.782  -0.446  0.00  0.00    +0.185 C 
ATOM      5  C   UNL     1       5.866   1.638   0.012  0.00  0.00    +0.035 C 
ATOM      6  C   UNL     1       6.875   0.673   0.635  0.00  0.00    +0.021 C 
ATOM      7  C   UNL     1       6.386  -0.715   0.263  0.00  0.00    +0.109 C 
ATOM      8  O   UNL     1       4.487  -2.657   0.862  0.00  0.00    -0.274 OA
BRANCH   4   9
ATOM      9  C   UNL     1       4.564   0.898  -1.983  0.00  0.00    +0.328 C 
ATOM     10  O   UNL     1       4.377   1.973  -2.545  0.00  0.00    -0.249 OA
BRANCH   9  11
ATOM     11  O   UNL     1       4.738  -0.288  -2.618  0.00  0.00    -0.459 OA
BRANCH  11  12
ATOM     12  C   UNL     1       4.725  -0.248  -4.057  0.00  0.00    +0.267 C 
BRANCH  12  13
ATOM     13  C   UNL     1       6.055  -0.751  -4.567  0.00  0.00    -0.010 A 
ATOM     14  C   UNL     1       6.957   0.113  -5.206  0.00  0.00    +0.007 A 
ATOM     15  C   UNL     1       8.211  -0.348  -5.614  0.00  0.00    +0.000 A 
ATOM     16  C   UNL     1       8.574  -1.675  -5.394  0.00  0.00    +0.000 A 
ATOM     17  C   UNL     1       7.675  -2.550  -4.787  0.00  0.00    +0.000 A 
ATOM     18  C   UNL     1       6.421  -2.091  -4.377  0.00  0.00    +0.007 A 
ENDBRANCH  12  13
ENDBRANCH  11  12
ENDBRANCH   9  11
ENDBRANCH   4   9
ENDBRANCH   1   2
BRANCH   1  19
ATOM     19  N   UNL     1       2.009  -2.403  -0.503  0.00  0.00    -0.302 N 
ATOM     20  H   UNL     1       2.198  -3.359  -0.232  0.00  0.00    +0.150 HD
ATOM     21  C   UNL     1       1.243  -2.130  -1.607  0.00  0.00    +0.246 C 
ATOM     22  O   UNL     1       1.034  -1.002  -2.029  0.00  0.00    -0.273 OA
BRANCH  21  23
ATOM     23  C   UNL     1       0.639  -3.285  -2.304  0.00  0.00    +0.242 C 
ATOM     24  C   UNL     1      -0.822  -3.561  -2.032  0.00  0.00    +0.242 C 
ATOM     25  O   UNL     1       0.218  -4.423  -1.525  0.00  0.00    -0.349 OA
BRANCH  24  26
ATOM     26  C   UNL     1      -1.663  -4.051  -3.147  0.00  0.00    +0.245 C 
ATOM     27  N   UNL     1      -1.945  -5.394  -3.132  0.00  0.00    -0.313 N 
ATOM     28  H   UNL     1      -1.487  -5.971  -2.436  0.00  0.00    +0.149 HD
ATOM     29  O   UNL     1      -2.082  -3.264  -3.984  0.00  0.00    -0.273 OA
BRANCH  27  30
ATOM     30  C   UNL     1      -2.768  -6.021  -4.147  0.00  0.00    +0.104 C 
BRANCH  30  31
ATOM     31  C   UNL     1      -1.983  -6.396  -5.403  0.00  0.00    +0.015 C 
ATOM     32  C   UNL     1      -0.892  -7.419  -5.128  0.00  0.00    +0.005 C 
ENDBRANCH  30  31
ENDBRANCH  27  30
ENDBRANCH  24  26
ENDBRANCH  21  23
ENDBRANCH   1  19
BRANCH   1  33
ATOM     33  C   UNL     1       1.827  -1.289   1.706  0.00  0.00    +0.015 C 
ATOM     34  C   UNL     1       2.525  -0.341   2.690  0.00  0.00    +0.010 C 
BRANCH  33  35
ATOM     35  C   UNL     1       0.336  -0.906   1.512  0.00  0.00    +0.002 C 
ATOM     36  C   UNL     1      -0.505  -0.944   2.782  0.00  0.00    +0.004 C 
ENDBRANCH  33  35
ENDBRANCH   1  33
TORSDOF 12
