REMARK  Name = 
REMARK  8 active torsions:
REMARK  status: ('A' for Active; 'I' for Inactive)
REMARK    1  A    between atoms: C_1  and  C_2
REMARK    2  A    between atoms: C_2  and  C_3
REMARK    3  A    between atoms: C_2  and  N_4
REMARK    4  A    between atoms: N_4  and  C_5
REMARK    5  A    between atoms: C_14  and  N_18
REMARK    6  A    between atoms: C_21  and  C_22
REMARK    7  A    between atoms: C_22  and  C_23
REMARK    8  A    between atoms: C_23  and  O_24
REMARK                            x       y       z     vdW  Elec       q    Type
REMARK                         _______ _______ _______ _____ _____    ______ ____
ROOT
ATOM      1  C   UNL     1       4.347   0.032  -1.759  0.00  0.00    +0.029 A 
ATOM      2  C   UNL     1       5.087  -1.153  -1.862  0.00  0.00    +0.024 A 
ATOM      3  C   UNL     1       6.469  -1.147  -2.105  0.00  0.00    +0.013 A 
ATOM      4  C   UNL     1       7.132   0.085  -2.202  0.00  0.00    +0.020 A 
ATOM      5  C   UNL     1       8.464   0.501  -2.386  0.00  0.00    +0.143 A 
ATOM      6  N   UNL     1       8.608   1.825  -2.315  0.00  0.00    -0.172 NA
ATOM      7  N   UNL     1       7.332   2.295  -2.185  0.00  0.00    -0.212 N 
ATOM      8  C   UNL     1       7.071   3.695  -2.180  0.00  0.00    +0.175 A 
ATOM      9  C   UNL     1       8.111   4.556  -1.857  0.00  0.00    +0.159 A 
ATOM     10  N   UNL     1       7.948   5.901  -1.794  0.00  0.00    -0.256 NA
ATOM     11  C   UNL     1       6.713   6.360  -2.117  0.00  0.00    +0.157 A 
ATOM     12  C   UNL     1       5.669   5.518  -2.489  0.00  0.00    +0.158 A 
ATOM     13  N   UNL     1       5.826   4.165  -2.493  0.00  0.00    -0.207 NA
ATOM     14  C   UNL     1       6.408   1.265  -2.071  0.00  0.00    +0.078 A 
ATOM     15  C   UNL     1       5.024   1.257  -1.817  0.00  0.00    +0.051 A 
ENDROOT
BRANCH  12  16
ATOM     16  N   UNL     1       4.421   6.059  -2.925  0.00  0.00    -0.307 N 
ATOM     17  C   UNL     1       3.350   5.314  -3.399  0.00  0.00    +0.097 A 
ATOM     18  C   UNL     1       2.303   6.154  -3.740  0.00  0.00    -0.019 A 
ATOM     19  C   UNL     1       2.761   7.472  -3.484  0.00  0.00    +0.023 A 
ATOM     20  C   UNL     1       4.045   7.386  -2.988  0.00  0.00    +0.093 A 
BRANCH  18  21
ATOM     21  C   UNL     1       0.931   5.760  -4.213  0.00  0.00    +0.157 C 
BRANCH  21  22
ATOM     22  C   UNL     1       0.686   5.734  -5.711  0.00  0.00    +0.309 C 
ATOM     23  O   UNL     1      -0.417   5.466  -6.185  0.00  0.00    -0.251 OA
BRANCH  22  24
ATOM     24  O   UNL     1       1.739   6.013  -6.508  0.00  0.00    -0.480 OA
ATOM     25  H   UNL     1       2.570   6.203  -6.035  0.00  0.00    +0.295 HD
ENDBRANCH  22  24
ENDBRANCH  21  22
ENDBRANCH  18  21
ENDBRANCH  12  16
BRANCH   1  26
ATOM     26  N   UNL     1       2.969  -0.053  -1.513  0.00  0.00    -0.341 N 
ATOM     27  H   UNL     1       2.615  -0.990  -1.692  0.00  0.00    +0.146 HD
BRANCH  26  29
ATOM     28  C   UNL     1       2.169   1.071  -3.568  0.00  0.00    +0.027 C 
ATOM     29  C   UNL     1       2.076   0.987  -2.042  0.00  0.00    +0.064 C 
ATOM     30  C   UNL     1       0.642   0.642  -1.635  0.00  0.00    +0.027 C 
ENDBRANCH  26  29
ENDBRANCH   1  26
TORSDOF 6
