REMARK  Name = 
REMARK  6 active torsions:
REMARK  status: ('A' for Active; 'I' for Inactive)
REMARK    1  A    between atoms: C_1  and  C_2
REMARK    2  A    between atoms: C_2  and  C_3
REMARK    3  A    between atoms: C_2  and  C_4
REMARK    4  A    between atoms: C_2  and  C_5
REMARK    5  A    between atoms: N_7  and  C_8
REMARK    6  A    between atoms: C_9  and  C_14
REMARK                            x       y       z     vdW  Elec       q    Type
REMARK                         _______ _______ _______ _____ _____    ______ ____
ROOT
ATOM      1  C   UNL     1       4.853   1.869  -2.384  0.00  0.00    +0.064 A 
ATOM      2  C   UNL     1       4.272   3.105  -2.670  0.00  0.00    +0.027 A 
ATOM      3  C   UNL     1       4.818   3.913  -3.665  0.00  0.00    +0.022 A 
ATOM      4  C   UNL     1       5.923   3.452  -4.362  0.00  0.00    +0.112 A 
ATOM      5  N   UNL     1       6.515   2.261  -4.130  0.00  0.00    -0.248 NA
ATOM      6  C   UNL     1       5.954   1.475  -3.157  0.00  0.00    +0.147 A 
ENDROOT
BRANCH   6   7
ATOM      7  C   UNL     1       6.522   0.087  -3.090  0.00  0.00    +0.270 C 
ATOM      8  N   UNL     1       7.878   0.062  -3.315  0.00  0.00    -0.259 N 
ATOM      9  H   UNL     1       8.363   0.938  -3.450  0.00  0.00    +0.157 HD
ATOM     10  C   UNL     1       8.614  -1.084  -3.266  0.00  0.00    +0.165 A 
ATOM     11  S   UNL     1      10.304  -0.832  -3.312  0.00  0.00    -0.061 S 
ATOM     12  C   UNL     1      10.540  -2.524  -3.144  0.00  0.00    +0.068 A 
ATOM     13  C   UNL     1       9.316  -3.158  -3.119  0.00  0.00    +0.120 A 
ATOM     14  N   UNL     1       8.215  -2.328  -3.181  0.00  0.00    -0.233 NA
ATOM     15  O   UNL     1       5.780  -0.866  -2.870  0.00  0.00    -0.268 OA
ENDBRANCH   6   7
BRANCH   1  17
ATOM     16  C   UNL     1       5.118   0.668  -0.278  0.00  0.00    +0.223 C 
ATOM     17  N   UNL     1       4.310   1.140  -1.304  0.00  0.00    -0.283 N 
ATOM     18  H   UNL     1       3.341   1.302  -1.080  0.00  0.00    +0.155 HD
ATOM     19  O   UNL     1       6.329   0.881  -0.230  0.00  0.00    -0.275 OA
BRANCH  16  21
ATOM     20  C   UNL     1       5.351  -0.460   1.960  0.00  0.00    +0.020 C 
ATOM     21  C   UNL     1       4.364  -0.090   0.837  0.00  0.00    +0.039 C 
ATOM     22  C   UNL     1       3.255   0.787   1.445  0.00  0.00    +0.020 C 
ATOM     23  C   UNL     1       3.756  -1.378   0.264  0.00  0.00    +0.020 C 
ENDBRANCH  16  21
ENDBRANCH   1  17
TORSDOF 3
