REMARK  Name = 
REMARK  6 active torsions:
REMARK  status: ('A' for Active; 'I' for Inactive)
REMARK    1  A    between atoms: C_1  and  C_2
REMARK    2  A    between atoms: C_2  and  C_3
REMARK    3  A    between atoms: C_4  and  C_11
REMARK    4  A    between atoms: C_14  and  N_15
REMARK    5  A    between atoms: N_15  and  C_16
REMARK    6  A    between atoms: C_16  and  C_17
REMARK                            x       y       z     vdW  Elec       q    Type
REMARK                         _______ _______ _______ _____ _____    ______ ____
ROOT
ATOM      1  C   UNL     1       2.626   2.886   0.754  0.00  0.00    -0.013 A 
ATOM      2  C   UNL     1       2.894   4.256   0.945  0.00  0.00    +0.010 A 
ATOM      3  C   UNL     1       2.594   5.235  -0.028  0.00  0.00    +0.023 A 
ATOM      4  C   UNL     1       2.028   4.889  -1.256  0.00  0.00    +0.027 A 
ATOM      5  C   UNL     1       1.808   3.534  -1.477  0.00  0.00    +0.023 A 
ATOM      6  C   UNL     1       2.046   2.577  -0.482  0.00  0.00    +0.010 A 
ENDROOT
BRANCH   1  18
ATOM      7  C   UNL     1       3.415   0.543   1.508  0.00  0.00    +0.056 A 
ATOM      8  N   UNL     1       3.749  -0.351   2.475  0.00  0.00    -0.219 NA
ATOM      9  C   UNL     1       3.628   0.017   3.742  0.00  0.00    +0.214 A 
ATOM     10  N   UNL     1       4.008  -0.893   4.706  0.00  0.00    -0.327 N 
ATOM     11  H   UNL     1       4.666  -1.548   4.303  0.00  0.00    +0.145 HD
ATOM     12  H   UNL     1       4.295  -0.402   5.539  0.00  0.00    +0.145 HD
ATOM     13  N   UNL     1       3.201   1.208   4.133  0.00  0.00    -0.199 NA
ATOM     14  C   UNL     1       2.854   2.080   3.169  0.00  0.00    +0.129 A 
ATOM     15  N   UNL     1       2.356   3.276   3.702  0.00  0.00    -0.343 N 
ATOM     16  H   UNL     1       2.343   3.153   4.713  0.00  0.00    +0.144 HD
ATOM     17  H   UNL     1       1.430   3.471   3.338  0.00  0.00    +0.144 HD
ATOM     18  C   UNL     1       2.956   1.843   1.785  0.00  0.00    +0.043 A 
BRANCH   7  20
ATOM     19  C   UNL     1       2.287  -0.882  -0.214  0.00  0.00    +0.010 C 
ATOM     20  C   UNL     1       3.536  -0.073   0.136  0.00  0.00    +0.053 C 
ENDBRANCH   7  20
ENDBRANCH   1  18
BRANCH   4  21
ATOM     21  N   UNL     1       1.840   5.861  -2.249  0.00  0.00    -0.340 N 
ATOM     22  H   UNL     1       1.691   6.786  -1.853  0.00  0.00    +0.146 HD
BRANCH  21  23
ATOM     23  C   UNL     1       0.901   5.548  -3.321  0.00  0.00    +0.137 C 
BRANCH  23  24
ATOM     24  C   UNL     1       0.790   6.690  -4.297  0.00  0.00    -0.025 A 
ATOM     25  C   UNL     1      -0.431   7.354  -4.480  0.00  0.00    +0.043 A 
ATOM     26  C   UNL     1      -0.539   8.363  -5.434  0.00  0.00    +0.126 A 
ATOM     27  F   UNL     1      -1.717   8.978  -5.605  0.00  0.00    -0.205 F 
ATOM     28  C   UNL     1       0.545   8.732  -6.217  0.00  0.00    +0.076 A 
ATOM     29  C   UNL     1       1.754   8.075  -6.035  0.00  0.00    +0.126 A 
ATOM     30  F   UNL     1       2.806   8.411  -6.792  0.00  0.00    -0.205 F 
ATOM     31  C   UNL     1       1.888   7.064  -5.087  0.00  0.00    +0.043 A 
ENDBRANCH  23  24
ENDBRANCH  21  23
ENDBRANCH   4  21
TORSDOF 5
