REMARK  Name = 
REMARK  11 active torsions:
REMARK  status: ('A' for Active; 'I' for Inactive)
REMARK    1  A    between atoms: C_2  and  C_3
REMARK    2  A    between atoms: C_2  and  N_13
REMARK    3  A    between atoms: C_2  and  C_27
REMARK    4  A    between atoms: C_3  and  S_4
REMARK    5  A    between atoms: S_4  and  N_7
REMARK    6  A    between atoms: N_13  and  C_14
REMARK    7  A    between atoms: C_14  and  C_16
REMARK    8  A    between atoms: C_14  and  C_23
REMARK    9  A    between atoms: N_29  and  C_30
REMARK   10  A    between atoms: C_30  and  C_31
REMARK   11  A    between atoms: C_31  and  N_32
REMARK                            x       y       z     vdW  Elec       q    Type
REMARK                         _______ _______ _______ _____ _____    ______ ____
ROOT
ATOM      1  C   UNL     1       2.122   0.057  -0.143  0.00  0.00    +0.164 C 
ENDROOT
BRANCH   1   2
ATOM      2  C   UNL     1       2.502  -1.421  -0.380  0.00  0.00    +0.232 C 
ATOM      3  N   UNL     1       1.507  -2.302  -0.009  0.00  0.00    -0.307 N 
ATOM      4  H   UNL     1       0.743  -1.953   0.560  0.00  0.00    +0.149 HD
ATOM      5  O   UNL     1       3.622  -1.754  -0.767  0.00  0.00    -0.274 OA
BRANCH   3   6
ATOM      6  C   UNL     1       1.629  -3.738  -0.104  0.00  0.00    +0.047 C 
ATOM      7  C   UNL     1       1.753  -4.396  -1.462  0.00  0.00    +0.029 C 
ATOM      8  C   UNL     1       0.449  -4.456  -0.730  0.00  0.00    +0.029 C 
BRANCH   6   9
ATOM      9  C   UNL     1       2.358  -4.409   1.049  0.00  0.00    +0.103 C 
BRANCH   9  10
ATOM     10  N   UNL     1       1.683  -4.096   2.309  0.00  0.00    -0.328 NA
ATOM     11  H   UNL     1       2.155  -4.602   3.057  0.00  0.00    +0.118 HD
ATOM     12  H   UNL     1       1.835  -3.108   2.507  0.00  0.00    +0.118 HD
ENDBRANCH   9  10
ENDBRANCH   6   9
ENDBRANCH   3   6
ENDBRANCH   1   2
BRANCH   1  13
ATOM     13  N   UNL     1       2.519   0.334   1.269  0.00  0.00    -0.290 NA
ATOM     14  H   UNL     1       3.519   0.136   1.384  0.00  0.00    +0.124 HD
BRANCH  13  15
ATOM     15  C   UNL     1       2.232   1.709   1.775  0.00  0.00    +0.190 C 
BRANCH  15  16
ATOM     16  C   UNL     1       0.732   1.970   1.760  0.00  0.00    -0.022 A 
ATOM     17  C   UNL     1       0.199   2.990   0.952  0.00  0.00    +0.008 A 
ATOM     18  C   UNL     1      -1.181   3.175   0.870  0.00  0.00    +0.038 A 
ATOM     19  C   UNL     1      -2.030   2.351   1.597  0.00  0.00    +0.123 A 
ATOM     20  F   UNL     1      -3.355   2.520   1.500  0.00  0.00    -0.205 F 
ATOM     21  C   UNL     1      -1.527   1.349   2.416  0.00  0.00    +0.038 A 
ATOM     22  C   UNL     1      -0.147   1.157   2.499  0.00  0.00    +0.008 A 
ENDBRANCH  15  16
BRANCH  15  23
ATOM     23  C   UNL     1       2.894   2.056   3.160  0.00  0.00    +0.409 C 
ATOM     24  F   UNL     1       2.011   2.329   4.143  0.00  0.00    -0.169 F 
ATOM     25  F   UNL     1       3.704   3.137   3.031  0.00  0.00    -0.169 F 
ATOM     26  F   UNL     1       3.679   1.036   3.594  0.00  0.00    -0.169 F 
ENDBRANCH  15  23
ENDBRANCH  13  15
ENDBRANCH   1  13
BRANCH   1  27
ATOM     27  C   UNL     1       2.822   0.933  -1.180  0.00  0.00    +0.213 C 
BRANCH  27  28
ATOM     28  S   UNL     1       2.136   0.671  -2.817  0.00  0.00    +0.034 S 
ATOM     29  O   UNL     1       0.827   1.289  -2.826  0.00  0.00    -0.158 OA
ATOM     30  O   UNL     1       2.310  -0.696  -3.242  0.00  0.00    -0.158 OA
BRANCH  28  31
ATOM     31  N   UNL     1       3.180   1.648  -3.741  0.00  0.00    -0.177 NA
ATOM     32  C   UNL     1       2.579   2.322  -4.934  0.00  0.00    +0.137 C 
ATOM     33  C   UNL     1       2.527   1.371  -6.130  0.00  0.00    +0.177 C 
ATOM     34  O   UNL     1       3.848   0.919  -6.466  0.00  0.00    -0.377 OA
ATOM     35  C   UNL     1       4.422   0.189  -5.371  0.00  0.00    +0.177 C 
ATOM     36  C   UNL     1       4.511   1.052  -4.103  0.00  0.00    +0.137 C 
ENDBRANCH  28  31
ENDBRANCH  27  28
ENDBRANCH   1  27
TORSDOF 11
