REMARK  Name = 
REMARK  12 active torsions:
REMARK  status: ('A' for Active; 'I' for Inactive)
REMARK    1  A    between atoms: C_1  and  C_2
REMARK    2  A    between atoms: C_2  and  O_3
REMARK    3  A    between atoms: O_3  and  C_4
REMARK    4  A    between atoms: C_5  and  N_6
REMARK    5  A    between atoms: C_7  and  C_9
REMARK    6  A    between atoms: C_11  and  C_12
REMARK    7  A    between atoms: C_13  and  O_14
REMARK    8  A    between atoms: O_14  and  C_15
REMARK    9  A    between atoms: C_15  and  C_16
REMARK   10  A    between atoms: C_16  and  N_17
REMARK   11  A    between atoms: C_18  and  C_19
REMARK   12  A    between atoms: C_22  and  N_26
REMARK                            x       y       z     vdW  Elec       q    Type
REMARK                         _______ _______ _______ _____ _____    ______ ____
ROOT
ATOM      1  N   UNL     1       4.531   1.227  -0.976  0.00  0.00    -0.278 N 
ATOM      2  H   UNL     1       5.069   1.886  -0.425  0.00  0.00    +0.155 HD
ATOM      3  C   UNL     1       4.047   1.787  -2.150  0.00  0.00    +0.248 C 
ATOM      4  O   UNL     1       3.974   1.219  -3.233  0.00  0.00    -0.270 OA
ENDROOT
BRANCH   3   5
ATOM      5  C   UNL     1       3.671   3.221  -2.043  0.00  0.00    +0.038 A 
ATOM      6  C   UNL     1       3.126   3.759  -0.883  0.00  0.00    +0.020 A 
ATOM      7  C   UNL     1       2.782   5.126  -0.812  0.00  0.00    -0.008 A 
ATOM      8  C   UNL     1       2.180   5.566   0.501  0.00  0.00    +0.047 C 
ATOM      9  C   UNL     1       2.986   5.981  -1.934  0.00  0.00    +0.126 A 
ATOM     10  C   UNL     1       3.516   5.414  -3.128  0.00  0.00    -0.008 A 
ATOM     11  C   UNL     1       3.793   6.108  -4.441  0.00  0.00    +0.047 C 
ATOM     12  C   UNL     1       3.850   4.041  -3.150  0.00  0.00    +0.020 A 
BRANCH   9  13
ATOM     13  O   UNL     1       2.630   7.308  -1.719  0.00  0.00    -0.490 OA
BRANCH  13  14
ATOM     14  C   UNL     1       2.889   8.225  -2.783  0.00  0.00    +0.244 C 
BRANCH  14  15
ATOM     15  C   UNL     1       2.583   9.704  -2.522  0.00  0.00    +0.119 C 
BRANCH  15  16
ATOM     16  N   UNL     1       3.492  10.324  -1.560  0.00  0.00    -0.327 NA
ATOM     17  H   UNL     1       3.238  11.306  -1.446  0.00  0.00    +0.118 HD
ATOM     18  H   UNL     1       3.359   9.881  -0.654  0.00  0.00    +0.118 HD
ENDBRANCH  15  16
ENDBRANCH  14  15
ENDBRANCH  13  14
ENDBRANCH   9  13
ENDBRANCH   3   5
BRANCH   1  25
ATOM     19  C   UNL     1       4.198  -1.213  -0.895  0.00  0.00    +0.160 A 
ATOM     20  C   UNL     1       4.801  -2.474  -1.011  0.00  0.00    +0.086 A 
ATOM     21 CL   UNL     1       3.869  -3.931  -0.866  0.00  0.00    -0.080 Cl
ATOM     22  C   UNL     1       6.185  -2.609  -1.195  0.00  0.00    +0.047 A 
ATOM     23  C   UNL     1       7.036  -1.501  -1.264  0.00  0.00    +0.033 A 
ATOM     24  C   UNL     1       6.419  -0.248  -1.145  0.00  0.00    +0.050 A 
ATOM     25  C   UNL     1       5.021  -0.092  -1.012  0.00  0.00    +0.079 A 
BRANCH  23  26
ATOM     26  N   UNL     1       8.414  -1.617  -1.377  0.00  0.00    -0.330 N 
ATOM     27  C   UNL     1       9.120  -2.873  -1.087  0.00  0.00    +0.105 C 
ATOM     28  C   UNL     1      10.399  -2.552  -0.310  0.00  0.00    +0.019 C 
ATOM     29  C   UNL     1      11.264  -1.517  -1.028  0.00  0.00    +0.003 C 
ATOM     30  C   UNL     1      10.448  -0.282  -1.409  0.00  0.00    +0.019 C 
ATOM     31  C   UNL     1       9.194  -0.673  -2.190  0.00  0.00    +0.105 C 
ENDBRANCH  23  26
BRANCH  19  32
ATOM     32  O   UNL     1       2.849  -1.213  -0.643  0.00  0.00    -0.489 OA
BRANCH  32  34
ATOM     33  C   UNL     1       1.075  -0.608   0.849  0.00  0.00    +0.048 C 
ATOM     34  C   UNL     1       2.298  -0.122   0.090  0.00  0.00    +0.226 C 
ENDBRANCH  32  34
ENDBRANCH  19  32
ENDBRANCH   1  25
TORSDOF 9
