REMARK  Name = 
REMARK  8 active torsions:
REMARK  status: ('A' for Active; 'I' for Inactive)
REMARK    1  A    between atoms: C_2  and  O_3
REMARK    2  A    between atoms: C_6  and  C_8
REMARK    3  A    between atoms: C_8  and  C_9
REMARK    4  A    between atoms: C_12  and  O_13
REMARK    5  A    between atoms: O_13  and  C_14
REMARK    6  A    between atoms: C_17  and  O_19
REMARK    7  A    between atoms: O_19  and  C_20
REMARK    8  A    between atoms: C_20  and  C_21
REMARK                            x       y       z     vdW  Elec       q    Type
REMARK                         _______ _______ _______ _____ _____    ______ ____
ROOT
ATOM      1  C   UNL     1       2.089   0.249  -0.142  0.00  0.00    +0.170 C 
ATOM      2  C   UNL     1       2.574  -1.127   0.347  0.00  0.00    +0.223 C 
ATOM      3  C   UNL     1       3.825  -0.816   1.207  0.00  0.00    +0.102 C 
ATOM      4  N   UNL     1       4.077   0.632   1.024  0.00  0.00    -0.307 NA
ATOM      5  H   UNL     1       4.532   1.017   1.854  0.00  0.00    +0.122 HD
ATOM      6  C   UNL     1       2.766   1.232   0.803  0.00  0.00    +0.116 C 
ENDROOT
BRANCH   1   7
ATOM      7  O   UNL     1       0.669   0.370  -0.113  0.00  0.00    -0.387 OA
ATOM      8  H   UNL     1       0.362   0.192   0.793  0.00  0.00    +0.210 HD
ENDBRANCH   1   7
BRANCH   2   9
ATOM      9  O   UNL     1       2.873  -1.951  -0.795  0.00  0.00    -0.457 OA
BRANCH   9  10
ATOM     10  C   UNL     1       2.198  -3.126  -0.893  0.00  0.00    +0.304 C 
ATOM     11  O   UNL     1       1.389  -3.554  -0.081  0.00  0.00    -0.251 OA
ATOM     12  C   UNL     1       2.647  -3.886  -2.104  0.00  0.00    +0.136 C 
ENDBRANCH   9  10
ENDBRANCH   2   9
BRANCH   3  13
ATOM     13  C   UNL     1       5.061  -1.678   0.895  0.00  0.00    +0.057 C 
BRANCH  13  14
ATOM     14  C   UNL     1       6.221  -1.404   1.828  0.00  0.00    -0.046 A 
ATOM     15  C   UNL     1       7.147  -0.396   1.525  0.00  0.00    +0.007 A 
ATOM     16  C   UNL     1       8.179  -0.078   2.414  0.00  0.00    +0.046 A 
ATOM     17  C   UNL     1       8.301  -0.769   3.618  0.00  0.00    +0.120 A 
ATOM     18  C   UNL     1       7.388  -1.783   3.918  0.00  0.00    +0.046 A 
ATOM     19  C   UNL     1       6.360  -2.106   3.029  0.00  0.00    +0.007 A 
BRANCH  17  20
ATOM     20  O   UNL     1       9.217  -0.506   4.599  0.00  0.00    -0.495 OA
ATOM     21  C   UNL     1      10.423   0.128   4.191  0.00  0.00    +0.277 C 
ENDBRANCH  17  20
ENDBRANCH  13  14
ENDBRANCH   3  13
TORSDOF 6
