REMARK  Name = 
REMARK  9 active torsions:
REMARK  status: ('A' for Active; 'I' for Inactive)
REMARK    1  A    between atoms: C_2  and  O_3
REMARK    2  A    between atoms: C_2  and  C_4
REMARK    3  A    between atoms: C_2  and  C_10
REMARK    4  A    between atoms: C_4  and  C_5
REMARK    5  A    between atoms: C_5  and  C_6
REMARK    6  A    between atoms: C_6  and  C_7
REMARK    7  A    between atoms: C_7  and  C_8
REMARK    8  A    between atoms: C_8  and  C_9
REMARK    9  A    between atoms: C_10  and  O_11
REMARK                            x       y       z     vdW  Elec       q    Type
REMARK                         _______ _______ _______ _____ _____    ______ ____
ROOT
ATOM      1  C   UNL     1       2.050  -2.548   0.300  0.00  0.00    +0.222 C 
ENDROOT
BRANCH   1   2
ATOM      2  O   UNL     1       2.562  -3.702   0.989  0.00  0.00    -0.381 OA
ATOM      3  H   UNL     1       3.467  -3.482   1.285  0.00  0.00    +0.211 HD
ENDBRANCH   1   2
BRANCH   1   4
ATOM      4  C   UNL     1       2.507  -2.707  -1.154  0.00  0.00    +0.334 C 
ATOM      5  O   UNL     1       2.620  -1.812  -1.973  0.00  0.00    -0.248 OA
BRANCH   4   6
ATOM      6  O   UNL     1       2.766  -4.012  -1.436  0.00  0.00    -0.479 OA
ATOM      7  H   UNL     1       2.621  -4.536  -0.610  0.00  0.00    +0.295 HD
ENDBRANCH   4   6
ENDBRANCH   1   4
BRANCH   1   8
ATOM      8  C   UNL     1       2.536  -1.234   0.919  0.00  0.00    +0.043 C 
BRANCH   8   9
ATOM      9  C   UNL     1       2.014  -0.964   2.341  0.00  0.00    +0.003 C 
BRANCH   9  10
ATOM     10  C   UNL     1       2.509  -1.973   3.374  0.00  0.00    +0.000 C 
BRANCH  10  11
ATOM     11  C   UNL     1       2.044  -1.664   4.794  0.00  0.00    -0.000 C 
BRANCH  11  12
ATOM     12  C   UNL     1       2.541  -2.756   5.745  0.00  0.00    -0.003 C 
ATOM     13  C   UNL     1       2.058  -2.534   7.167  0.00  0.00    +0.004 C 
ENDBRANCH  11  12
ENDBRANCH  10  11
ENDBRANCH   9  10
ENDBRANCH   8   9
ENDBRANCH   1   8
TORSDOF 8
