REMARK  Name = 
REMARK  6 active torsions:
REMARK  status: ('A' for Active; 'I' for Inactive)
REMARK    1  A    between atoms: C_1  and  O_2
REMARK    2  A    between atoms: O_2  and  C_3
REMARK    3  A    between atoms: C_5  and  O_6
REMARK    4  A    between atoms: O_6  and  C_7
REMARK    5  A    between atoms: C_8  and  N_9
REMARK    6  A    between atoms: C_16  and  C_19
REMARK                            x       y       z     vdW  Elec       q    Type
REMARK                         _______ _______ _______ _____ _____    ______ ____
ROOT
ATOM      1  N   UNL     1       4.614   4.295  -2.697  0.00  0.00    -0.266 N 
ATOM      2  H   UNL     1       4.607   5.191  -2.216  0.00  0.00    +0.156 HD
ATOM      3  C   UNL     1       4.574   4.405  -4.060  0.00  0.00    +0.309 C 
ATOM      4  N   UNL     1       5.052   5.575  -4.589  0.00  0.00    -0.253 N 
ATOM      5  H   UNL     1       4.950   5.623  -5.592  0.00  0.00    +0.158 HD
ATOM      6  C   UNL     1       5.681   6.623  -3.919  0.00  0.00    +0.144 A 
ATOM      7  C   UNL     1       6.150   7.729  -4.627  0.00  0.00    +0.156 A 
ATOM      8  N   UNL     1       6.780   8.780  -4.039  0.00  0.00    -0.240 NA
ATOM      9  C   UNL     1       6.948   8.683  -2.696  0.00  0.00    +0.158 A 
ATOM     10  C   UNL     1       6.492   7.593  -1.983  0.00  0.00    +0.151 A 
ATOM     11  N   UNL     1       5.841   6.562  -2.574  0.00  0.00    -0.236 NA
ATOM     12  O   UNL     1       4.114   3.559  -4.825  0.00  0.00    -0.252 OA
ENDROOT
BRANCH   1  17
ATOM     13  C   UNL     1       3.017   1.085  -0.511  0.00  0.00    +0.142 A 
ATOM     14  C   UNL     1       3.929   0.844  -1.550  0.00  0.00    +0.084 A 
ATOM     15 CL   UNL     1       4.434  -0.761  -1.944  0.00  0.00    -0.080 Cl
ATOM     16  C   UNL     1       4.451   1.902  -2.294  0.00  0.00    +0.050 A 
ATOM     17  C   UNL     1       4.091   3.212  -1.977  0.00  0.00    +0.078 A 
ATOM     18  C   UNL     1       3.224   3.473  -0.905  0.00  0.00    +0.145 A 
ATOM     19  C   UNL     1       2.703   2.408  -0.170  0.00  0.00    +0.094 A 
BRANCH  13  21
ATOM     20  C   UNL     1       1.176   0.192   0.658  0.00  0.00    +0.277 C 
ATOM     21  O   UNL     1       2.503   0.012   0.168  0.00  0.00    -0.494 OA
ENDBRANCH  13  21
BRANCH  18  22
ATOM     22  O   UNL     1       2.917   4.789  -0.646  0.00  0.00    -0.493 OA
ATOM     23  C   UNL     1       1.591   5.006  -0.163  0.00  0.00    +0.277 C 
ENDBRANCH  18  22
ENDBRANCH   1  17
BRANCH   9  24
ATOM     24  C   UNL     1       7.608   9.762  -2.026  0.00  0.00    +0.121 C 
ATOM     25  N   UNL     1       8.127  10.609  -1.426  0.00  0.00    -0.189 NA
ENDBRANCH   9  24
TORSDOF 4
