REMARK  Name = 
REMARK  1 active torsions:
REMARK  status: ('A' for Active; 'I' for Inactive)
REMARK    1  A    between atoms: C_6  and  N_7
REMARK                            x       y       z     vdW  Elec       q    Type
REMARK                         _______ _______ _______ _____ _____    ______ ____
ROOT
ATOM      1  N   UNL     1       5.275  -2.317   0.060  0.00  0.00    -0.286 N 
ATOM      2  H   UNL     1       4.742  -3.182   0.082  0.00  0.00    +0.155 HD
ATOM      3  C   UNL     1       6.632  -2.378   0.033  0.00  0.00    +0.236 A 
ATOM      4  N   UNL     1       7.299  -3.574   0.036  0.00  0.00    -0.227 N 
ATOM      5  H   UNL     1       6.941  -4.517   0.056  0.00  0.00    +0.194 HD
ATOM      6  N   UNL     1       8.624  -3.374   0.006  0.00  0.00    -0.045 NA
ATOM      7  N   UNL     1       8.769  -2.059  -0.016  0.00  0.00    -0.022 NA
ATOM      8  N   UNL     1       7.548  -1.432   0.001  0.00  0.00    -0.092 NA
ENDROOT
BRANCH   1  12
ATOM      9  O   UNL     1       1.017  -0.312   0.125  0.00  0.00    -0.293 OA
ATOM     10  C   UNL     1       2.230  -0.109   0.087  0.00  0.00    +0.158 C 
ATOM     11  C   UNL     1       3.130  -1.274   0.089  0.00  0.00    +0.065 C 
ATOM     12  C   UNL     1       4.467  -1.175   0.060  0.00  0.00    +0.014 C 
ATOM     13  C   UNL     1       5.148   0.175   0.026  0.00  0.00    +0.051 C 
ATOM     14  C   UNL     1       4.293   1.437   0.043  0.00  0.00    +0.014 C 
ATOM     15  C   UNL     1       2.784   1.288   0.028  0.00  0.00    +0.079 C 
ENDBRANCH   1  12
TORSDOF 1
