REMARK  Name = 
REMARK  3 active torsions:
REMARK  status: ('A' for Active; 'I' for Inactive)
REMARK    1  A    between atoms: C_2  and  C_14
REMARK    2  A    between atoms: N_4  and  C_5
REMARK    3  A    between atoms: N_16  and  C_17
REMARK                            x       y       z     vdW  Elec       q    Type
REMARK                         _______ _______ _______ _____ _____    ______ ____
ROOT
ATOM      1  C   UNL     1       1.894   0.151  -0.141  0.00  0.00    +0.101 C 
ATOM      2  C   UNL     1       2.248  -1.173   0.505  0.00  0.00    +0.110 C 
ATOM      3  C   UNL     1       3.462  -0.883   1.342  0.00  0.00    +0.217 C 
ATOM      4  O   UNL     1       4.062  -1.745   1.963  0.00  0.00    -0.276 OA
ATOM      5  N   UNL     1       3.769   0.469   1.253  0.00  0.00    -0.298 N 
ATOM      6  C   UNL     1       2.747   1.200   0.535  0.00  0.00    +0.121 C 
ENDROOT
BRANCH   5   7
ATOM      7  C   UNL     1       5.061   1.075   1.648  0.00  0.00    +0.076 C 
ATOM      8  C   UNL     1       5.662   0.509   2.946  0.00  0.00    +0.022 C 
ATOM      9  C   UNL     1       4.785   0.835   4.149  0.00  0.00    +0.002 C 
ATOM     10  C   UNL     1       4.563   2.341   4.299  0.00  0.00    +0.000 C 
ATOM     11  C   UNL     1       4.165   3.039   2.998  0.00  0.00    +0.002 C 
ATOM     12  C   UNL     1       5.015   2.607   1.803  0.00  0.00    +0.022 C 
ENDBRANCH   5   7
BRANCH   1  13
ATOM     13  C   UNL     1       2.056   0.178  -1.648  0.00  0.00    +0.222 C 
ATOM     14  N   UNL     1       3.352   0.108  -2.124  0.00  0.00    -0.285 N 
ATOM     15  H   UNL     1       4.078  -0.213  -1.494  0.00  0.00    +0.155 HD
ATOM     16  O   UNL     1       1.048   0.268  -2.341  0.00  0.00    -0.275 OA
BRANCH  14  17
ATOM     17  C   UNL     1       3.738   0.326  -3.469  0.00  0.00    +0.033 A 
ATOM     18  C   UNL     1       5.010  -0.095  -3.872  0.00  0.00    +0.023 A 
ATOM     19  C   UNL     1       5.417   0.049  -5.203  0.00  0.00    +0.002 A 
ATOM     20  C   UNL     1       4.569   0.644  -6.136  0.00  0.00    +0.000 A 
ATOM     21  C   UNL     1       3.323   1.112  -5.732  0.00  0.00    +0.002 A 
ATOM     22  C   UNL     1       2.913   0.957  -4.405  0.00  0.00    +0.023 A 
ENDBRANCH  14  17
ENDBRANCH   1  13
TORSDOF 3
