REMARK  Name = 
REMARK  4 active torsions:
REMARK  status: ('A' for Active; 'I' for Inactive)
REMARK    1  A    between atoms: C_6  and  N_7
REMARK    2  A    between atoms: C_6  and  C_22
REMARK    3  A    between atoms: C_25  and  O_26
REMARK    4  A    between atoms: O_26  and  C_27
REMARK                            x       y       z     vdW  Elec       q    Type
REMARK                         _______ _______ _______ _____ _____    ______ ____
ROOT
ATOM      1  O   UNL     1       1.097   0.228   0.950  0.00  0.00    -0.252 OA
ATOM      2  C   UNL     1       2.215   0.151   0.455  0.00  0.00    +0.312 C 
ATOM      3  N   UNL     1       2.902   1.250   0.079  0.00  0.00    -0.238 N 
ATOM      4  H   UNL     1       2.383   2.116   0.140  0.00  0.00    +0.159 HD
ATOM      5  C   UNL     1       3.932   1.257  -0.821  0.00  0.00    +0.255 C 
ATOM      6  O   UNL     1       4.104   2.320  -1.419  0.00  0.00    -0.272 OA
ATOM      7  C   UNL     1       4.838  -0.043  -0.916  0.00  0.00    +0.201 C 
ATOM      8  C   UNL     1       3.925  -1.277  -0.527  0.00  0.00    +0.255 C 
ATOM      9  O   UNL     1       4.174  -2.464  -0.758  0.00  0.00    -0.272 OA
ATOM     10  N   UNL     1       2.785  -1.044   0.186  0.00  0.00    -0.238 N 
ATOM     11  H   UNL     1       2.240  -1.860   0.425  0.00  0.00    +0.159 HD
ENDROOT
BRANCH   7  12
ATOM     12  N   UNL     1       5.548  -0.207  -2.249  0.00  0.00    -0.275 NA
ATOM     13  C   UNL     1       5.541   0.907  -3.222  0.00  0.00    +0.105 C 
ATOM     14  C   UNL     1       4.271   0.961  -4.115  0.00  0.00    +0.123 C 
ATOM     15  N   UNL     1       4.089  -0.340  -4.759  0.00  0.00    -0.297 N 
ATOM     16  C   UNL     1       3.395  -0.421  -5.943  0.00  0.00    +0.218 A 
ATOM     17  N   UNL     1       3.330  -1.615  -6.558  0.00  0.00    -0.223 NA
ATOM     18  C   UNL     1       2.755  -1.668  -7.773  0.00  0.00    +0.116 A 
ATOM     19  C   UNL     1       2.204  -0.581  -8.396  0.00  0.00    +0.039 A 
ATOM     20  C   UNL     1       2.285   0.590  -7.688  0.00  0.00    +0.116 A 
ATOM     21  N   UNL     1       2.876   0.695  -6.482  0.00  0.00    -0.223 NA
ATOM     22  C   UNL     1       4.126  -1.516  -3.888  0.00  0.00    +0.123 C 
ATOM     23  C   UNL     1       5.405  -1.459  -3.021  0.00  0.00    +0.105 C 
ENDBRANCH   7  12
BRANCH   7  24
ATOM     24  C   UNL     1       5.978   0.093   0.148  0.00  0.00    -0.009 A 
ATOM     25  C   UNL     1       6.546   1.351   0.431  0.00  0.00    +0.010 A 
ATOM     26  C   UNL     1       7.616   1.484   1.319  0.00  0.00    +0.046 A 
ATOM     27  C   UNL     1       8.215   0.354   1.871  0.00  0.00    +0.128 A 
ATOM     28  C   UNL     1       7.643  -0.895   1.648  0.00  0.00    +0.046 A 
ATOM     29  C   UNL     1       6.544  -1.028   0.789  0.00  0.00    +0.010 A 
BRANCH  27  30
ATOM     30  O   UNL     1       9.349   0.381   2.652  0.00  0.00    -0.456 OA
BRANCH  30  31
ATOM     31  C   UNL     1      10.310   1.344   2.419  0.00  0.00    +0.128 A 
ATOM     32  C   UNL     1      10.618   1.865   1.158  0.00  0.00    +0.046 A 
ATOM     33  C   UNL     1      11.537   2.907   1.035  0.00  0.00    +0.004 A 
ATOM     34  C   UNL     1      12.207   3.381   2.162  0.00  0.00    +0.000 A 
ATOM     35  C   UNL     1      11.971   2.799   3.408  0.00  0.00    +0.004 A 
ATOM     36  C   UNL     1      11.024   1.781   3.536  0.00  0.00    +0.046 A 
ENDBRANCH  30  31
ENDBRANCH  27  30
ENDBRANCH   7  24
TORSDOF 4
