REMARK  Name = 
REMARK  9 active torsions:
REMARK  status: ('A' for Active; 'I' for Inactive)
REMARK    1  A    between atoms: C_1  and  C_2
REMARK    2  A    between atoms: C_2  and  O_3
REMARK    3  A    between atoms: C_2  and  C_4
REMARK    4  A    between atoms: C_2  and  C_13
REMARK    5  A    between atoms: C_4  and  O_5
REMARK    6  A    between atoms: O_5  and  C_6
REMARK    7  A    between atoms: N_15  and  C_16
REMARK    8  A    between atoms: C_18  and  C_25
REMARK    9  A    between atoms: C_19  and  N_22
REMARK                            x       y       z     vdW  Elec       q    Type
REMARK                         _______ _______ _______ _____ _____    ______ ____
ROOT
ATOM      1  C   UNL     1       3.090   0.931  -1.064  0.00  0.00    +0.252 C 
ATOM      2  N   UNL     1       3.436   0.364  -2.277  0.00  0.00    -0.283 N 
ATOM      3  H   UNL     1       3.127  -0.577  -2.482  0.00  0.00    +0.155 HD
ATOM      4  O   UNL     1       3.066   2.151  -0.890  0.00  0.00    -0.272 OA
ENDROOT
BRANCH   2   5
ATOM      5  C   UNL     1       3.997   1.082  -3.346  0.00  0.00    +0.034 A 
ATOM      6  C   UNL     1       4.906   2.127  -3.163  0.00  0.00    +0.030 A 
ATOM      7  C   UNL     1       5.468   2.765  -4.273  0.00  0.00    +0.087 A 
ATOM      8  C   UNL     1       5.066   2.381  -5.553  0.00  0.00    +0.285 A 
ATOM      9  C   UNL     1       4.124   1.369  -5.764  0.00  0.00    +0.133 A 
ATOM     10  C   UNL     1       3.634   0.691  -4.637  0.00  0.00    +0.042 A 
BRANCH   9  11
ATOM     11  C   UNL     1       3.620   0.989  -7.132  0.00  0.00    +0.424 C 
ATOM     12  F   UNL     1       4.618   0.619  -7.974  0.00  0.00    -0.166 F 
ATOM     13  F   UNL     1       2.925   1.981  -7.742  0.00  0.00    -0.166 F 
ATOM     14  F   UNL     1       2.762  -0.073  -7.091  0.00  0.00    -0.166 F 
ENDBRANCH   9  11
BRANCH   8  15
ATOM     15  N   UNL     1       5.698   3.061  -6.680  0.00  0.00    +0.080 N 
ATOM     16  O   UNL     1       6.930   2.988  -6.756  0.00  0.00    +0.041 OA
ATOM     17  O   UNL     1       4.960   3.671  -7.459  0.00  0.00    -0.576 OA
ENDBRANCH   8  15
ENDBRANCH   2   5
BRANCH   1  19
ATOM     18  C   UNL     1       2.992   0.494   1.382  0.00  0.00    +0.055 C 
ATOM     19  C   UNL     1       2.544  -0.049   0.019  0.00  0.00    +0.173 C 
BRANCH  19  20
ATOM     20  O   UNL     1       1.108  -0.057   0.026  0.00  0.00    -0.376 OA
ATOM     21  H   UNL     1       0.790   0.064  -0.885  0.00  0.00    +0.211 HD
ENDBRANCH  19  20
BRANCH  19  22
ATOM     22  C   UNL     1       3.007  -1.507  -0.142  0.00  0.00    +0.273 C 
BRANCH  22  23
ATOM     23  O   UNL     1       4.427  -1.586  -0.242  0.00  0.00    -0.489 OA
BRANCH  23  24
ATOM     24  C   UNL     1       4.962  -2.824  -0.474  0.00  0.00    +0.121 A 
ATOM     25  C   UNL     1       6.356  -2.845  -0.601  0.00  0.00    +0.048 A 
ATOM     26  C   UNL     1       7.027  -4.046  -0.834  0.00  0.00    +0.042 A 
ATOM     27  C   UNL     1       6.298  -5.224  -0.942  0.00  0.00    +0.124 A 
ATOM     28  F   UNL     1       6.938  -6.380  -1.162  0.00  0.00    -0.205 F 
ATOM     29  C   UNL     1       4.915  -5.220  -0.821  0.00  0.00    +0.042 A 
ATOM     30  C   UNL     1       4.243  -4.018  -0.584  0.00  0.00    +0.048 A 
ENDBRANCH  23  24
ENDBRANCH  22  23
ENDBRANCH  19  22
ENDBRANCH   1  19
TORSDOF 8
