REMARK  Name = 
REMARK  7 active torsions:
REMARK  status: ('A' for Active; 'I' for Inactive)
REMARK    1  A    between atoms: C_1  and  C_2
REMARK    2  A    between atoms: C_5  and  S_8
REMARK    3  A    between atoms: S_8  and  N_11
REMARK    4  A    between atoms: N_11  and  C_12
REMARK    5  A    between atoms: C_13  and  C_24
REMARK    6  A    between atoms: C_15  and  C_17
REMARK    7  A    between atoms: C_24  and  O_25
REMARK                            x       y       z     vdW  Elec       q    Type
REMARK                         _______ _______ _______ _____ _____    ______ ____
ROOT
ATOM      1  C   UNL     1       9.227  -1.545  -1.040  0.00  0.00    +0.070 A 
ATOM      2  C   UNL     1       9.762  -2.876  -1.165  0.00  0.00    +0.041 A 
ATOM      3  C   UNL     1      11.122  -2.889  -1.441  0.00  0.00    +0.022 A 
ATOM      4  S   UNL     1      11.741  -1.290  -1.389  0.00  0.00    -0.080 S 
ATOM      5  C   UNL     1      10.193  -0.588  -1.277  0.00  0.00    +0.119 A 
ENDROOT
BRANCH   3   6
ATOM      6  C   UNL     1      12.057  -4.001  -1.709  0.00  0.00    -0.011 A 
ATOM      7  C   UNL     1      13.190  -3.806  -2.531  0.00  0.00    +0.012 A 
ATOM      8  C   UNL     1      14.128  -4.820  -2.734  0.00  0.00    +0.039 A 
ATOM      9  C   UNL     1      13.929  -6.053  -2.139  0.00  0.00    +0.123 A 
ATOM     10  F   UNL     1      14.835  -7.023  -2.317  0.00  0.00    -0.205 F 
ATOM     11  C   UNL     1      12.803  -6.292  -1.358  0.00  0.00    +0.039 A 
ATOM     12  C   UNL     1      11.867  -5.270  -1.145  0.00  0.00    +0.012 A 
ENDBRANCH   3   6
BRANCH   1  13
ATOM     13  N   UNL     1       7.864  -1.276  -0.835  0.00  0.00    -0.215 N 
ATOM     14  H   UNL     1       7.203  -1.479  -1.586  0.00  0.00    +0.174 HD
BRANCH  13  15
ATOM     15  S   UNL     1       7.112  -1.492   0.665  0.00  0.00    +0.072 S 
ATOM     16  O   UNL     1       5.688  -1.485   0.401  0.00  0.00    -0.150 OA
ATOM     17  O   UNL     1       7.739  -2.610   1.340  0.00  0.00    -0.150 OA
BRANCH  15  22
ATOM     18  C   UNL     1       8.133   3.611   3.789  0.00  0.00    +0.044 C 
ATOM     19  C   UNL     1       7.954   2.357   2.984  0.00  0.00    -0.050 A 
ATOM     20  C   UNL     1       8.345   1.117   3.510  0.00  0.00    +0.005 A 
ATOM     21  C   UNL     1       8.118  -0.062   2.794  0.00  0.00    +0.029 A 
ATOM     22  C   UNL     1       7.490  -0.001   1.547  0.00  0.00    +0.109 A 
ATOM     23  C   UNL     1       7.108   1.229   1.008  0.00  0.00    +0.029 A 
ATOM     24  C   UNL     1       7.351   2.404   1.721  0.00  0.00    +0.005 A 
ENDBRANCH  15  22
ENDBRANCH  13  15
ENDBRANCH   1  13
BRANCH   5  25
ATOM     25  C   UNL     1      10.034   0.849  -1.436  0.00  0.00    +0.345 C 
ATOM     26  O   UNL     1       8.981   1.469  -1.396  0.00  0.00    -0.244 OA
BRANCH  25  27
ATOM     27  O   UNL     1      11.207   1.489  -1.706  0.00  0.00    -0.477 OA
ATOM     28  H   UNL     1      11.957   0.865  -1.757  0.00  0.00    +0.295 HD
ENDBRANCH  25  27
ENDBRANCH   5  25
TORSDOF 6
