REMARK  Name = 
REMARK  10 active torsions:
REMARK  status: ('A' for Active; 'I' for Inactive)
REMARK    1  A    between atoms: CA_2  and  CB_3
REMARK    2  A    between atoms: CA_2  and  C_4
REMARK    3  A    between atoms: CA_2  and  N_6
REMARK    4  A    between atoms: C_4  and  O_5
REMARK    5  A    between atoms: C_7  and  C_9
REMARK    6  A    between atoms: C_10  and  C_11
REMARK    7  A    between atoms: C_13  and  C_15
REMARK    8  A    between atoms: N_18  and  C_19
REMARK    9  A    between atoms: C_21  and  C_22
REMARK   10  A    between atoms: C_24  and  C_25
REMARK                            x       y       z     vdW  Elec       q    Type
REMARK                         _______ _______ _______ _____ _____    ______ ____
ROOT
ATOM      1  C   UNK A   0       5.944   4.150  -4.854  0.00  0.00    +0.101 A 
ATOM      2  C   UNK A   0       6.166   5.405  -5.355  0.00  0.00    +0.050 A 
ATOM      3  C   UNK A   0       6.895   5.433  -6.522  0.00  0.00    +0.116 A 
ATOM      4  N   UNK A   0       7.354   4.331  -7.160  0.00  0.00    -0.223 NA
ATOM      5  C   UNK A   0       7.050   3.145  -6.619  0.00  0.00    +0.220 A 
ATOM      6  N   UNK A   0       7.524   1.991  -7.238  0.00  0.00    -0.284 N 
ATOM      7  H   UNK A   0       8.126   2.214  -8.014  0.00  0.00    +0.155 HD
ATOM      8  N   UNK A   0       6.365   3.037  -5.485  0.00  0.00    -0.212 NA
ENDROOT
BRANCH   6   9
ATOM      9  C   UNK A   0       7.255   0.635  -6.986  0.00  0.00    +0.034 A 
ATOM     10  C   UNK A   0       8.176  -0.335  -7.405  0.00  0.00    +0.026 A 
ATOM     11  C   UNK A   0       7.983  -1.700  -7.131  0.00  0.00    -0.048 A 
ATOM     12  C   UNK A   0       8.983  -2.710  -7.611  0.00  0.00    +0.044 C 
ATOM     13  C   UNK A   0       6.857  -2.102  -6.406  0.00  0.00    +0.006 A 
ATOM     14  C   UNK A   0       5.931  -1.158  -5.955  0.00  0.00    -0.048 A 
ATOM     15  C   UNK A   0       4.725  -1.597  -5.178  0.00  0.00    +0.044 C 
ATOM     16  C   UNK A   0       6.143   0.196  -6.250  0.00  0.00    +0.026 A 
ENDBRANCH   6   9
BRANCH   1  19
ATOM     17  C   UNK A   0       4.554   2.791  -1.514  0.00  0.00    +0.097 A 
ATOM     18  S   UNK A   0       5.720   2.464  -2.718  0.00  0.00    -0.061 S 
ATOM     19  C   UNK A   0       5.275   3.886  -3.575  0.00  0.00    +0.128 A 
ATOM     20  N   UNK A   0       4.364   4.625  -2.973  0.00  0.00    -0.242 NA
ATOM     21  C   UNK A   0       3.922   3.993  -1.804  0.00  0.00    +0.058 A 
ATOM     22  C   UNK A   0       2.846   4.672  -1.029  0.00  0.00    +0.067 C 
BRANCH  17  25
ATOM     23  N   ALA A   1       5.178   0.745  -0.440  0.00  0.00    -0.306 N 
ATOM     24  H   ALA A   1       5.856   0.686  -1.194  0.00  0.00    +0.149 HD
ATOM     25  C   UNK A   0       4.368   1.866  -0.408  0.00  0.00    +0.253 C 
ATOM     26  O   UNK A   0       3.560   2.042   0.497  0.00  0.00    -0.270 OA
BRANCH  23  27
ATOM     27  CA  ALA A   1       5.289  -0.239   0.632  0.00  0.00    +0.095 C 
ATOM     28  CB  ALA A   1       5.853   0.386   1.904  0.00  0.00    +0.030 C 
BRANCH  27  29
ATOM     29  C   ALA A   1       3.971  -0.985   0.890  0.00  0.00    +0.177 C 
BRANCH  29  30
ATOM     30  O   ALA A   1       3.548  -1.652  -0.301  0.00  0.00    -0.393 OA
ATOM     31  H   ALA A   1       3.379  -0.948  -0.953  0.00  0.00    +0.209 HD
ENDBRANCH  29  30
ENDBRANCH  27  29
ENDBRANCH  23  27
ENDBRANCH  17  25
ENDBRANCH   1  19
TORSDOF 6
