REMARK  Name = 
REMARK  13 active torsions:
REMARK  status: ('A' for Active; 'I' for Inactive)
REMARK    1  A    between atoms: C_2  and  C_3
REMARK    2  A    between atoms: C_2  and  N_14
REMARK    3  A    between atoms: C_2  and  C_28
REMARK    4  A    between atoms: C_3  and  S_4
REMARK    5  A    between atoms: S_4  and  C_7
REMARK    6  A    between atoms: C_7  and  C_8
REMARK    7  A    between atoms: N_14  and  C_15
REMARK    8  A    between atoms: C_15  and  C_17
REMARK    9  A    between atoms: C_15  and  C_24
REMARK   10  A    between atoms: C_20  and  O_21
REMARK   11  A    between atoms: N_30  and  C_31
REMARK   12  A    between atoms: C_31  and  C_32
REMARK   13  A    between atoms: C_32  and  N_33
REMARK                            x       y       z     vdW  Elec       q    Type
REMARK                         _______ _______ _______ _____ _____    ______ ____
ROOT
ATOM      1  C   UNL     1       2.150  -0.060   0.027  0.00  0.00    +0.162 C 
ENDROOT
BRANCH   1   2
ATOM      2  C   UNL     1       2.466   0.653   1.359  0.00  0.00    +0.232 C 
ATOM      3  N   UNL     1       1.515   1.546   1.805  0.00  0.00    -0.307 N 
ATOM      4  H   UNL     1       0.834   1.914   1.152  0.00  0.00    +0.149 HD
ATOM      5  O   UNL     1       3.495   0.455   1.994  0.00  0.00    -0.274 OA
BRANCH   3   6
ATOM      6  C   UNL     1       1.724   2.267   3.049  0.00  0.00    +0.047 C 
ATOM      7  C   UNL     1       1.888   1.451   4.323  0.00  0.00    +0.029 C 
ATOM      8  C   UNL     1       0.632   2.231   4.100  0.00  0.00    +0.029 C 
BRANCH   6   9
ATOM      9  C   UNL     1       2.573   3.526   2.941  0.00  0.00    +0.103 C 
BRANCH   9  10
ATOM     10  N   UNL     1       1.909   4.493   2.066  0.00  0.00    -0.328 NA
ATOM     11  H   UNL     1       2.401   5.382   2.150  0.00  0.00    +0.118 HD
ATOM     12  H   UNL     1       2.059   4.194   1.103  0.00  0.00    +0.118 HD
ENDBRANCH   9  10
ENDBRANCH   6   9
ENDBRANCH   3   6
ENDBRANCH   1   2
BRANCH   1  13
ATOM     13  N   UNL     1       2.484   0.878  -1.072  0.00  0.00    -0.290 NA
ATOM     14  H   UNL     1       3.505   1.031  -1.065  0.00  0.00    +0.124 HD
BRANCH  13  15
ATOM     15  C   UNL     1       2.124   0.420  -2.453  0.00  0.00    +0.190 C 
BRANCH  15  16
ATOM     16  C   UNL     1       0.610   0.341  -2.614  0.00  0.00    -0.022 A 
ATOM     17  C   UNL     1      -0.010  -0.865  -2.981  0.00  0.00    +0.009 A 
ATOM     18  C   UNL     1      -1.401  -0.943  -3.083  0.00  0.00    +0.046 A 
ATOM     19  C   UNL     1      -2.177   0.181  -2.825  0.00  0.00    +0.117 A 
ATOM     20  C   UNL     1      -1.586   1.392  -2.486  0.00  0.00    +0.046 A 
ATOM     21  C   UNL     1      -0.196   1.470  -2.381  0.00  0.00    +0.009 A 
BRANCH  19  22
ATOM     22  O   UNL     1      -3.531   0.050  -2.909  0.00  0.00    -0.507 OA
ATOM     23  H   UNL     1      -3.941   0.893  -2.653  0.00  0.00    +0.292 HD
ENDBRANCH  19  22
ENDBRANCH  15  16
BRANCH  15  24
ATOM     24  C   UNL     1       2.799   1.247  -3.614  0.00  0.00    +0.409 C 
ATOM     25  F   UNL     1       1.915   1.905  -4.396  0.00  0.00    -0.169 F 
ATOM     26  F   UNL     1       3.515   0.428  -4.424  0.00  0.00    -0.169 F 
ATOM     27  F   UNL     1       3.659   2.174  -3.124  0.00  0.00    -0.169 F 
ENDBRANCH  15  24
ENDBRANCH  13  15
ENDBRANCH   1  13
BRANCH   1  28
ATOM     28  C   UNL     1       2.767  -1.473   0.007  0.00  0.00    +0.194 C 
BRANCH  28  29
ATOM     29  S   UNL     1       4.553  -1.555  -0.091  0.00  0.00    -0.025 S 
ATOM     30  O   UNL     1       5.131  -1.334   1.214  0.00  0.00    -0.174 OA
ATOM     31  O   UNL     1       4.940  -0.754  -1.245  0.00  0.00    -0.174 OA
BRANCH  29  32
ATOM     32  C   UNL     1       4.846  -3.278  -0.480  0.00  0.00    +0.201 C 
BRANCH  32  33
ATOM     33  C   UNL     1       6.333  -3.538  -0.433  0.00  0.00    -0.027 A 
ATOM     34  C   UNL     1       7.116  -3.422  -1.588  0.00  0.00    +0.005 A 
ATOM     35  C   UNL     1       8.496  -3.624  -1.530  0.00  0.00    +0.000 A 
ATOM     36  C   UNL     1       9.110  -3.936  -0.319  0.00  0.00    +0.000 A 
ATOM     37  C   UNL     1       8.345  -4.040   0.840  0.00  0.00    +0.000 A 
ATOM     38  C   UNL     1       6.965  -3.845   0.784  0.00  0.00    +0.005 A 
ENDBRANCH  32  33
ENDBRANCH  29  32
ENDBRANCH  28  29
ENDBRANCH   1  28
TORSDOF 13
