REMARK  Name = 
REMARK  6 active torsions:
REMARK  status: ('A' for Active; 'I' for Inactive)
REMARK    1  A    between atoms: CA_2  and  N_3
REMARK    2  A    between atoms: CA_2  and  CB_4
REMARK    3  A    between atoms: CA_2  and  C_11
REMARK    4  A    between atoms: CB_4  and  CG_5
REMARK    5  A    between atoms: C_11  and  O_12
REMARK    6  A    between atoms: C_11  and  OXT_13
REMARK                            x       y       z     vdW  Elec       q    Type
REMARK                         _______ _______ _______ _____ _____    ______ ____
ROOT
ATOM      1  CA  PHE A   1       1.986  -0.017  -0.078  0.00  0.00    +0.136 C 
ENDROOT
BRANCH   1   2
ATOM      2  N   PHE A   1       2.318   1.135   0.804  0.00  0.00    -0.321 NA
ATOM      3  H1  PHE A   1       1.871   0.931   1.706  0.00  0.00    +0.119 HD
ATOM      4  H2  PHE A   1       3.309   1.126   1.036  0.00  0.00    +0.119 HD
ENDBRANCH   1   2
BRANCH   1   5
ATOM      5  C   PHE A   1       2.494  -1.362   0.526  0.00  0.00    +0.363 C 
BRANCH   5   6
ATOM      6  OXT PHE A   1       1.995  -1.457   1.855  0.00  0.00    -0.506 OA
ATOM      7  HXT PHE A   1       1.839  -2.405   2.005  0.00  0.00    +0.287 HD
ENDBRANCH   5   6
BRANCH   5   8
ATOM      8  O   PHE A   1       3.906  -1.457   0.573  0.00  0.00    -0.506 OA
ATOM      9  H   PHE A   1       4.269  -0.574   0.411  0.00  0.00    +0.287 HD
ENDBRANCH   5   8
ENDBRANCH   1   5
BRANCH   1  10
ATOM     10  CB  PHE A   1       2.502   0.253  -1.503  0.00  0.00    +0.061 C 
BRANCH  10  11
ATOM     11  CG  PHE A   1       2.167  -0.850  -2.480  0.00  0.00    -0.046 A 
ATOM     12  CD2 PHE A   1       3.189  -1.612  -3.064  0.00  0.00    +0.004 A 
ATOM     13  CE2 PHE A   1       2.880  -2.650  -3.946  0.00  0.00    +0.000 A 
ATOM     14  CZ  PHE A   1       1.551  -2.934  -4.252  0.00  0.00    +0.000 A 
ATOM     15  CE1 PHE A   1       0.528  -2.179  -3.681  0.00  0.00    +0.000 A 
ATOM     16  CD1 PHE A   1       0.834  -1.139  -2.802  0.00  0.00    +0.004 A 
ENDBRANCH  10  11
ENDBRANCH   1  10
TORSDOF 6
