REMARK  Name = 
REMARK  11 active torsions:
REMARK  status: ('A' for Active; 'I' for Inactive)
REMARK    1  A    between atoms: C_1  and  C_2
REMARK    2  A    between atoms: C_2  and  O_3
REMARK    3  A    between atoms: O_3  and  C_4
REMARK    4  A    between atoms: C_4  and  N_5
REMARK    5  A    between atoms: C_11  and  C_12
REMARK    6  A    between atoms: C_12  and  C_13
REMARK    7  A    between atoms: C_12  and  C_14
REMARK    8  A    between atoms: C_15  and  C_16
REMARK    9  A    between atoms: C_16  and  C_17
REMARK   10  A    between atoms: C_19  and  C_20
REMARK   11  A    between atoms: C_22  and  C_23
REMARK                            x       y       z     vdW  Elec       q    Type
REMARK                         _______ _______ _______ _____ _____    ______ ____
ROOT
ATOM      1  N   UNL     1       4.505   1.878  -2.265  0.00  0.00    -0.273 N 
ATOM      2  C   UNL     1       5.286   1.338  -3.312  0.00  0.00    +0.039 A 
ATOM      3  C   UNL     1       5.628   2.116  -4.374  0.00  0.00    +0.039 A 
ATOM      4  C   UNL     1       5.157   3.529  -4.347  0.00  0.00    +0.258 A 
ATOM      5  O   UNL     1       5.043   4.218  -5.357  0.00  0.00    -0.267 OA
ATOM      6  N   UNL     1       4.869   4.022  -3.118  0.00  0.00    -0.275 N 
ATOM      7  H   UNL     1       4.580   4.988  -3.090  0.00  0.00    +0.173 HD
ATOM      8  C   UNL     1       4.342   3.254  -2.125  0.00  0.00    +0.331 A 
ATOM      9  O   UNL     1       3.771   3.808  -1.187  0.00  0.00    -0.246 OA
ENDROOT
BRANCH   3  10
ATOM     10  C   UNL     1       6.409   1.668  -5.611  0.00  0.00    +0.020 C 
ATOM     11  C   UNL     1       7.403   2.687  -6.192  0.00  0.00    +0.012 C 
ATOM     12  C   UNL     1       5.443   1.204  -6.704  0.00  0.00    +0.012 C 
ENDBRANCH   3  10
BRANCH   1  13
ATOM     13  C   UNL     1       3.927   1.081  -1.187  0.00  0.00    +0.289 C 
BRANCH  13  14
ATOM     14  O   UNL     1       2.492   1.200  -1.168  0.00  0.00    -0.359 OA
BRANCH  14  16
ATOM     15  C   UNL     1       0.466   0.631   0.085  0.00  0.00    +0.034 C 
ATOM     16  C   UNL     1       1.958   0.416  -0.096  0.00  0.00    +0.159 C 
ENDBRANCH  14  16
ENDBRANCH  13  14
ENDBRANCH   1  13
BRANCH   2  17
ATOM     17  C   UNL     1       5.692  -0.137  -3.261  0.00  0.00    +0.089 C 
BRANCH  17  18
ATOM     18  C   UNL     1       7.014  -0.483  -2.583  0.00  0.00    -0.041 A 
ATOM     19  C   UNL     1       7.493  -1.796  -2.751  0.00  0.00    +0.007 A 
ATOM     20  C   UNL     1       8.770  -2.176  -2.320  0.00  0.00    -0.050 A 
ATOM     21  C   UNL     1       9.312  -3.529  -2.676  0.00  0.00    +0.044 C 
ATOM     22  C   UNL     1       9.562  -1.245  -1.646  0.00  0.00    +0.006 A 
ATOM     23  C   UNL     1       9.079   0.044  -1.383  0.00  0.00    -0.050 A 
ATOM     24  C   UNL     1       9.950   1.002  -0.620  0.00  0.00    +0.044 C 
ATOM     25  C   UNL     1       7.813   0.424  -1.868  0.00  0.00    +0.007 A 
ENDBRANCH  17  18
ENDBRANCH   2  17
TORSDOF 6
