REMARK  Name = 
REMARK  9 active torsions:
REMARK  status: ('A' for Active; 'I' for Inactive)
REMARK    1  A    between atoms: O_1  and  C_2
REMARK    2  A    between atoms: C_2  and  C_4
REMARK    3  A    between atoms: C_8  and  C_9
REMARK    4  A    between atoms: N_10  and  O_11
REMARK    5  A    between atoms: O_11  and  C_12
REMARK    6  A    between atoms: C_12  and  C_13
REMARK    7  A    between atoms: C_13  and  O_14
REMARK    8  A    between atoms: O_14  and  N_15
REMARK    9  A    between atoms: C_16  and  C_17
REMARK                            x       y       z     vdW  Elec       q    Type
REMARK                         _______ _______ _______ _____ _____    ______ ____
ROOT
ATOM      1  C   UNL     1       3.041  -6.622  -2.736  0.00  0.00    +0.306 C 
ENDROOT
BRANCH   1   2
ATOM      2  O   UNL     1       3.543  -5.588  -3.592  0.00  0.00    -0.390 OA
BRANCH   2   4
ATOM      3  C   UNL     1       3.320  -4.965  -5.684  0.00  0.00    +0.160 C 
ATOM      4  N   UNL     1       2.664  -5.434  -4.672  0.00  0.00    -0.092 NA
BRANCH   3   7
ATOM      5  C   UNL     1       0.744  -5.135  -8.420  0.00  0.00    +0.059 A 
ATOM      6  C   UNL     1       1.329  -5.182  -7.153  0.00  0.00    +0.024 A 
ATOM      7  C   UNL     1       2.671  -4.817  -6.997  0.00  0.00    -0.003 A 
ATOM      8  C   UNL     1       3.421  -4.378  -8.090  0.00  0.00    +0.009 A 
ATOM      9  C   UNL     1       2.822  -4.295  -9.348  0.00  0.00    +0.001 A 
ATOM     10  C   UNL     1       1.487  -4.675  -9.514  0.00  0.00    +0.015 A 
BRANCH   5  11
ATOM     11  C   UNL     1      -0.663  -5.549  -8.641  0.00  0.00    +0.337 C 
ATOM     12  O   UNL     1      -1.369  -5.049  -9.499  0.00  0.00    -0.245 OA
BRANCH  11  13
ATOM     13  O   UNL     1      -1.068  -6.562  -7.845  0.00  0.00    -0.477 OA
ATOM     14  H   UNL     1      -0.371  -6.988  -7.313  0.00  0.00    +0.295 HD
ENDBRANCH  11  13
ENDBRANCH   5  11
ENDBRANCH   3   7
ENDBRANCH   2   4
ENDBRANCH   1   2
BRANCH   1  15
ATOM     15  C   UNL     1       3.037  -7.977  -3.440  0.00  0.00    +0.306 C 
BRANCH  15  16
ATOM     16  O   UNL     1       4.376  -8.322  -3.811  0.00  0.00    -0.390 OA
BRANCH  16  17
ATOM     17  N   UNL     1       4.345  -9.509  -4.561  0.00  0.00    -0.091 NA
ATOM     18  C   UNL     1       5.550  -9.779  -4.950  0.00  0.00    +0.178 C 
BRANCH  18  19
ATOM     19  C   UNL     1       5.868 -10.977  -5.764  0.00  0.00    +0.070 A 
ATOM     20  N   UNL     1       4.848 -11.816  -6.115  0.00  0.00    -0.306 N 
ATOM     21  H   UNL     1       3.905 -11.595  -5.809  0.00  0.00    +0.170 HD
ATOM     22  C   UNL     1       5.024 -12.948  -6.857  0.00  0.00    +0.327 A 
ATOM     23  O   UNL     1       4.094 -13.685  -7.160  0.00  0.00    -0.247 OA
ATOM     24  N   UNL     1       6.312 -13.203  -7.239  0.00  0.00    -0.275 N 
ATOM     25  H   UNL     1       6.471 -14.031  -7.791  0.00  0.00    +0.173 HD
ATOM     26  C   UNL     1       7.392 -12.420  -6.945  0.00  0.00    +0.255 A 
ATOM     27  O   UNL     1       8.528 -12.679  -7.323  0.00  0.00    -0.268 OA
ATOM     28  C   UNL     1       7.128 -11.216  -6.135  0.00  0.00    +0.097 A 
ENDBRANCH  18  19
ENDBRANCH  16  17
ENDBRANCH  15  16
ENDBRANCH   1  15
TORSDOF 9
