REMARK  Name = 
REMARK  5 active torsions:
REMARK  status: ('A' for Active; 'I' for Inactive)
REMARK    1  A    between atoms: C_2  and  C_4
REMARK    2  A    between atoms: C_9  and  C_14
REMARK    3  A    between atoms: N_16  and  C_17
REMARK    4  A    between atoms: C_21  and  O_22
REMARK    5  A    between atoms: O_22  and  C_23
REMARK                            x       y       z     vdW  Elec       q    Type
REMARK                         _______ _______ _______ _____ _____    ______ ____
ROOT
ATOM      1  C   UNL     1       3.405  -0.241   1.104  0.00  0.00    +0.065 A 
ATOM      2  C   UNL     1       4.299   0.791   1.396  0.00  0.00    +0.016 A 
ATOM      3  C   UNL     1       4.986   0.787   2.610  0.00  0.00    +0.009 A 
ATOM      4  C   UNL     1       4.800  -0.252   3.534  0.00  0.00    -0.017 A 
ATOM      5  C   UNL     1       3.908  -1.308   3.238  0.00  0.00    -0.017 A 
ATOM      6  C   UNL     1       3.747  -2.350   4.171  0.00  0.00    +0.009 A 
ATOM      7  C   UNL     1       4.449  -2.351   5.385  0.00  0.00    +0.013 A 
ATOM      8  C   UNL     1       5.317  -1.297   5.680  0.00  0.00    +0.038 A 
ATOM      9  C   UNL     1       5.480  -0.254   4.757  0.00  0.00    +0.021 A 
ATOM     10  C   UNL     1       3.202  -1.278   2.023  0.00  0.00    +0.024 A 
ENDROOT
BRANCH   1  14
ATOM     11  N   UNL     1       3.209   0.329  -1.297  0.00  0.00    -0.247 N 
ATOM     12  H   UNL     1       4.224   0.347  -1.319  0.00  0.00    +0.288 HD
ATOM     13  H   UNL     1       2.826   0.016  -2.181  0.00  0.00    +0.288 HD
ATOM     14  C   UNL     1       2.655  -0.233  -0.183  0.00  0.00    +0.308 C 
ATOM     15  N   UNL     1       1.484  -0.776  -0.239  0.00  0.00    -0.099 NA
ATOM     16  H   UNL     1       1.088  -0.645  -1.171  0.00  0.00    +0.363 HD
ENDBRANCH   1  14
BRANCH   8  17
ATOM     17  C   UNL     1       6.054  -1.176   6.969  0.00  0.00    +0.248 C 
ATOM     18  N   UNL     1       6.500  -2.357   7.543  0.00  0.00    -0.281 N 
ATOM     19  H   UNL     1       6.309  -3.219   7.052  0.00  0.00    +0.155 HD
ATOM     20  O   UNL     1       6.244  -0.042   7.393  0.00  0.00    -0.270 OA
BRANCH  18  21
ATOM     21  C   UNL     1       7.296  -2.469   8.713  0.00  0.00    +0.037 A 
ATOM     22  C   UNL     1       7.701  -3.753   9.111  0.00  0.00    +0.069 A 
ATOM     23  C   UNL     1       8.506  -3.927  10.244  0.00  0.00    +0.123 A 
ATOM     24  C   UNL     1       8.885  -2.819  11.000  0.00  0.00    +0.046 A 
ATOM     25  C   UNL     1       8.493  -1.543  10.615  0.00  0.00    +0.005 A 
ATOM     26  C   UNL     1       7.703  -1.371   9.477  0.00  0.00    +0.023 A 
BRANCH  23  27
ATOM     27  O   UNL     1       8.945  -5.124  10.736  0.00  0.00    -0.489 OA
BRANCH  27  28
ATOM     28  C   UNL     1       9.166  -6.174   9.804  0.00  0.00    +0.173 C 
ATOM     29  C   UNL     1       7.991  -7.153   9.763  0.00  0.00    +0.044 C 
ATOM     30  C   UNL     1       8.600  -8.542   9.571  0.00  0.00    +0.004 C 
ATOM     31  C   UNL     1      10.111  -8.349   9.567  0.00  0.00    +0.004 C 
ATOM     32  C   UNL     1      10.320  -7.041  10.306  0.00  0.00    +0.044 C 
ENDBRANCH  27  28
ENDBRANCH  23  27
ENDBRANCH  18  21
ENDBRANCH   8  17
TORSDOF 5
