REMARK  Name = 
REMARK  6 active torsions:
REMARK  status: ('A' for Active; 'I' for Inactive)
REMARK    1  A    between atoms: C_1  and  C_2
REMARK    2  A    between atoms: C_6  and  C_7
REMARK    3  A    between atoms: C_8  and  O_9
REMARK    4  A    between atoms: O_9  and  C_10
REMARK    5  A    between atoms: C_10  and  C_11
REMARK    6  A    between atoms: C_11  and  O_12
REMARK                            x       y       z     vdW  Elec       q    Type
REMARK                         _______ _______ _______ _____ _____    ______ ____
ROOT
ATOM      1  C   UNL     1       1.003   0.185  -0.037  0.00  0.00    +0.047 C 
ATOM      2  C   UNL     1       2.493  -0.016  -0.012  0.00  0.00    -0.009 A 
ATOM      3  C   UNL     1       3.150  -1.265  -0.010  0.00  0.00    +0.127 A 
ATOM      4  C   UNL     1       4.564  -1.310   0.080  0.00  0.00    -0.009 A 
ATOM      5  C   UNL     1       5.306  -2.622   0.073  0.00  0.00    +0.047 C 
ATOM      6  C   UNL     1       5.305  -0.123   0.168  0.00  0.00    +0.007 A 
ATOM      7  C   UNL     1       4.662   1.106   0.161  0.00  0.00    +0.001 A 
ATOM      8  C   UNL     1       3.275   1.156   0.066  0.00  0.00    +0.007 A 
ENDROOT
BRANCH   3   9
ATOM      9  O   UNL     1       2.567  -2.508  -0.010  0.00  0.00    -0.480 OA
BRANCH   9  10
ATOM     10  C   UNL     1       1.334  -2.686  -0.703  0.00  0.00    +0.349 C 
BRANCH  10  11
ATOM     11  C   UNL     1       1.176  -4.147  -1.092  0.00  0.00    +0.343 C 
ATOM     12  O   UNL     1       0.192  -4.601  -1.659  0.00  0.00    -0.247 OA
BRANCH  11  13
ATOM     13  O   UNL     1       2.245  -4.912  -0.757  0.00  0.00    -0.478 OA
ATOM     14  H   UNL     1       2.911  -4.353  -0.301  0.00  0.00    +0.295 HD
ENDBRANCH  11  13
ENDBRANCH  10  11
ENDBRANCH   9  10
ENDBRANCH   3   9
TORSDOF 4
