REMARK  Name = 
REMARK  5 active torsions:
REMARK  status: ('A' for Active; 'I' for Inactive)
REMARK    1  A    between atoms: N_1  and  S_2
REMARK    2  A    between atoms: S_2  and  C_5
REMARK    3  A    between atoms: C_8  and  N_9
REMARK    4  A    between atoms: C_10  and  C_12
REMARK    5  A    between atoms: C_17  and  S_18
REMARK                            x       y       z     vdW  Elec       q    Type
REMARK                         _______ _______ _______ _____ _____    ______ ____
ROOT
ATOM      1  C   UNL     1       3.205  -1.557   0.644  0.00  0.00    +0.105 A 
ATOM      2  C   UNL     1       4.559  -1.837   0.843  0.00  0.00    +0.030 A 
ATOM      3  C   UNL     1       4.993  -3.169   0.888  0.00  0.00    +0.025 A 
ATOM      4  C   UNL     1       4.084  -4.221   0.711  0.00  0.00    +0.034 A 
ATOM      5  C   UNL     1       2.731  -3.916   0.522  0.00  0.00    +0.025 A 
ATOM      6  C   UNL     1       2.287  -2.591   0.484  0.00  0.00    +0.030 A 
ENDROOT
BRANCH   4   7
ATOM      7  N   UNL     1       4.576  -5.547   0.763  0.00  0.00    -0.281 N 
ATOM      8  H   UNL     1       5.526  -5.670   1.091  0.00  0.00    +0.155 HD
ATOM      9  C   UNL     1       3.878  -6.679   0.397  0.00  0.00    +0.249 C 
ATOM     10  O   UNL     1       2.783  -6.688  -0.162  0.00  0.00    -0.270 OA
BRANCH   9  11
ATOM     11  C   UNL     1       4.518  -8.011   0.634  0.00  0.00    +0.050 A 
ATOM     12  C   UNL     1       5.318  -8.356   1.739  0.00  0.00    +0.017 A 
ATOM     13  C   UNL     1       5.708  -9.701   1.896  0.00  0.00    +0.015 A 
ATOM     14  C   UNL     1       5.326 -10.682   0.977  0.00  0.00    +0.001 A 
ATOM     15  C   UNL     1       4.568 -10.333  -0.131  0.00  0.00    +0.001 A 
ATOM     16  C   UNL     1       4.168  -9.010  -0.299  0.00  0.00    +0.014 A 
BRANCH  12  17
ATOM     17  S   UNL     1       5.880  -7.204   2.988  0.00  0.00    -0.142 S 
ATOM     18  H   UNL     1       6.050  -8.090   3.981  0.00  0.00    +0.107 HD
ENDBRANCH  12  17
ENDBRANCH   9  11
ENDBRANCH   4   7
BRANCH   1  19
ATOM     19  S   UNL     1       2.633   0.114   0.612  0.00  0.00    +0.056 S 
ATOM     20  O   UNL     1       3.702   0.992   1.030  0.00  0.00    -0.153 OA
ATOM     21  O   UNL     1       1.875   0.329  -0.597  0.00  0.00    -0.153 OA
BRANCH  19  22
ATOM     22  N   UNL     1       1.526   0.140   1.877  0.00  0.00    -0.204 NA
ATOM     23  H   UNL     1       1.890   0.703   2.647  0.00  0.00    +0.144 HD
ATOM     24  H   UNL     1       0.619   0.451   1.531  0.00  0.00    +0.144 HD
ENDBRANCH  19  22
ENDBRANCH   1  19
TORSDOF 5
