REMARK  Name = 
REMARK  6 active torsions:
REMARK  status: ('A' for Active; 'I' for Inactive)
REMARK    1  A    between atoms: C_2  and  C_3
REMARK    2  A    between atoms: C_2  and  N_10
REMARK    3  A    between atoms: C_2  and  C_20
REMARK    4  A    between atoms: C_3  and  C_4
REMARK    5  A    between atoms: C_17  and  S_18
REMARK    6  A    between atoms: N_22  and  C_23
REMARK                            x       y       z     vdW  Elec       q    Type
REMARK                         _______ _______ _______ _____ _____    ______ ____
ROOT
ATOM      1  C   UNL     1       2.228  -0.009  -0.223  0.00  0.00    +0.165 C 
ENDROOT
BRANCH   1   2
ATOM      2  N   UNL     1       2.778   0.189  -1.567  0.00  0.00    -0.287 N 
ATOM      3  H   UNL     1       3.784   0.149  -1.643  0.00  0.00    +0.151 HD
ATOM      4  C   UNL     1       2.088   0.943  -2.494  0.00  0.00    +0.306 C 
ATOM      5  N   UNL     1       2.792   1.086  -3.658  0.00  0.00    -0.247 N 
ATOM      6  H   UNL     1       3.744   0.771  -3.722  0.00  0.00    +0.158 HD
ATOM      7  C   UNL     1       2.270   1.740  -4.741  0.00  0.00    +0.190 A 
ATOM      8  S   UNL     1       3.385   2.021  -6.006  0.00  0.00    -0.024 S 
ATOM      9  C   UNL     1       2.114   2.827  -6.824  0.00  0.00    +0.157 A 
ATOM     10  N   UNL     1       0.962   2.819  -6.192  0.00  0.00    -0.133 NA
ATOM     11  N   UNL     1       1.058   2.188  -4.962  0.00  0.00    -0.125 NA
ATOM     12  O   UNL     1       0.981   1.404  -2.241  0.00  0.00    -0.252 OA
BRANCH   9  13
ATOM     13  S   UNL     1       2.299   3.612  -8.369  0.00  0.00    -0.114 S 
ATOM     14  H   UNL     1       1.014   3.971  -8.500  0.00  0.00    +0.109 HD
ENDBRANCH   9  13
ENDBRANCH   1   2
BRANCH   1  15
ATOM     15  C   UNL     1       2.706   1.171   0.651  0.00  0.00    +0.233 C 
ATOM     16  N   UNL     1       1.940   2.310   0.529  0.00  0.00    -0.317 N 
ATOM     17  H   UNL     1       1.181   2.313  -0.151  0.00  0.00    +0.148 HD
ATOM     18  C   UNL     1       2.195   3.503   1.298  0.00  0.00    +0.128 C 
ATOM     19  O   UNL     1       3.733   1.123   1.324  0.00  0.00    -0.274 OA
ENDBRANCH   1  15
BRANCH   1  20
ATOM     20  C   UNL     1       2.713  -1.327   0.406  0.00  0.00    +0.067 C 
BRANCH  20  21
ATOM     21  C   UNL     1       2.310  -2.617  -0.273  0.00  0.00    -0.045 A 
ATOM     22  C   UNL     1       1.116  -2.769  -0.991  0.00  0.00    +0.004 A 
ATOM     23  C   UNL     1       0.772  -4.004  -1.548  0.00  0.00    +0.000 A 
ATOM     24  C   UNL     1       1.611  -5.105  -1.389  0.00  0.00    +0.000 A 
ATOM     25  C   UNL     1       2.793  -4.975  -0.669  0.00  0.00    +0.000 A 
ATOM     26  C   UNL     1       3.136  -3.742  -0.111  0.00  0.00    +0.004 A 
ENDBRANCH  20  21
ENDBRANCH   1  20
TORSDOF 5
