REMARK  Name = 
REMARK  9 active torsions:
REMARK  status: ('A' for Active; 'I' for Inactive)
REMARK    1  A    between atoms: C_1  and  C_2
REMARK    2  A    between atoms: C_2  and  O_3
REMARK    3  A    between atoms: O_3  and  C_4
REMARK    4  A    between atoms: C_4  and  N_5
REMARK    5  A    between atoms: C_11  and  C_12
REMARK    6  A    between atoms: C_12  and  C_13
REMARK    7  A    between atoms: C_12  and  C_14
REMARK    8  A    between atoms: C_15  and  S_16
REMARK    9  A    between atoms: S_16  and  C_17
REMARK                            x       y       z     vdW  Elec       q    Type
REMARK                         _______ _______ _______ _____ _____    ______ ____
ROOT
ATOM      1  N   UNL     1       5.324   0.335  -2.432  0.00  0.00    -0.264 N 
ATOM      2  C   UNL     1       5.340  -0.989  -2.929  0.00  0.00    +0.091 A 
ATOM      3  C   UNL     1       5.514  -1.242  -4.260  0.00  0.00    +0.050 A 
ATOM      4  C   UNL     1       5.636  -0.056  -5.175  0.00  0.00    +0.258 A 
ATOM      5  O   UNL     1       5.856  -0.141  -6.385  0.00  0.00    -0.267 OA
ATOM      6  N   UNL     1       5.503   1.163  -4.616  0.00  0.00    -0.275 N 
ATOM      7  H   UNL     1       5.572   1.957  -5.233  0.00  0.00    +0.173 HD
ATOM      8  C   UNL     1       5.338   1.420  -3.303  0.00  0.00    +0.332 A 
ATOM      9  O   UNL     1       5.215   2.598  -2.959  0.00  0.00    -0.246 OA
ENDROOT
BRANCH   3  10
ATOM     10  C   UNL     1       5.668  -2.587  -4.996  0.00  0.00    +0.021 C 
ATOM     11  C   UNL     1       7.033  -2.792  -5.685  0.00  0.00    +0.012 C 
ATOM     12  C   UNL     1       4.550  -2.826  -6.028  0.00  0.00    +0.012 C 
ENDBRANCH   3  10
BRANCH   1  13
ATOM     13  C   UNL     1       5.032   0.748  -1.056  0.00  0.00    +0.290 C 
BRANCH  13  14
ATOM     14  O   UNL     1       5.603  -0.002   0.007  0.00  0.00    -0.359 OA
BRANCH  14  16
ATOM     15  C   UNL     1       7.704   1.267   0.416  0.00  0.00    +0.034 C 
ATOM     16  C   UNL     1       7.015  -0.051   0.126  0.00  0.00    +0.159 C 
ENDBRANCH  14  16
ENDBRANCH  13  14
ENDBRANCH   1  13
BRANCH   2  17
ATOM     17  S   UNL     1       5.554  -2.291  -1.792  0.00  0.00    -0.104 S 
BRANCH  17  18
ATOM     18  C   UNL     1       3.997  -2.972  -1.116  0.00  0.00    +0.053 C 
ATOM     19  C   UNL     1       3.117  -2.209  -0.091  0.00  0.00    +0.014 C 
ATOM     20  C   UNL     1       3.599  -2.133   1.371  0.00  0.00    +0.001 C 
ATOM     21  C   UNL     1       4.226  -3.420   1.900  0.00  0.00    +0.000 C 
ATOM     22  C   UNL     1       5.203  -3.998   0.892  0.00  0.00    +0.001 C 
ATOM     23  C   UNL     1       4.467  -4.278  -0.429  0.00  0.00    +0.014 C 
ENDBRANCH  17  18
ENDBRANCH   2  17
TORSDOF 6
