REMARK  Name = 
REMARK  8 active torsions:
REMARK  status: ('A' for Active; 'I' for Inactive)
REMARK    1  A    between atoms: C_2  and  C_3
REMARK    2  A    between atoms: C_2  and  O_10
REMARK    3  A    between atoms: C_2  and  C_19
REMARK    4  A    between atoms: C_3  and  C_4
REMARK    5  A    between atoms: O_10  and  C_11
REMARK    6  A    between atoms: C_14  and  C_15
REMARK    7  A    between atoms: C_15  and  C_16
REMARK    8  A    between atoms: C_19  and  O_20
REMARK                            x       y       z     vdW  Elec       q    Type
REMARK                         _______ _______ _______ _____ _____    ______ ____
ROOT
ATOM      1  C   UNL     1       2.084  -0.087  -0.020  0.00  0.00    +0.285 C 
ENDROOT
BRANCH   1   2
ATOM      2  C   UNL     1       2.727  -1.396  -0.471  0.00  0.00    +0.346 C 
ATOM      3  O   UNL     1       2.247  -2.164  -1.293  0.00  0.00    -0.247 OA
BRANCH   2   4
ATOM      4  O   UNL     1       3.926  -1.643   0.120  0.00  0.00    -0.478 OA
ATOM      5  H   UNL     1       4.085  -0.976   0.823  0.00  0.00    +0.295 HD
ENDBRANCH   2   4
ENDBRANCH   1   2
BRANCH   1   6
ATOM      6  O   UNL     1       2.584   0.131   1.320  0.00  0.00    -0.477 OA
BRANCH   6   7
ATOM      7  C   UNL     1       1.782   0.761   2.229  0.00  0.00    +0.122 A 
ATOM      8  C   UNL     1       2.446   1.304   3.333  0.00  0.00    +0.046 A 
ATOM      9  C   UNL     1       1.745   2.013   4.316  0.00  0.00    +0.007 A 
ATOM     10  C   UNL     1       0.361   2.186   4.208  0.00  0.00    -0.047 A 
ATOM     11  C   UNL     1      -0.308   1.582   3.138  0.00  0.00    +0.007 A 
ATOM     12  C   UNL     1       0.395   0.874   2.157  0.00  0.00    +0.046 A 
BRANCH  10  13
ATOM     13  C   UNL     1      -0.405   3.015   5.207  0.00  0.00    +0.032 C 
ATOM     14  C   UNL     1      -0.968   2.192   6.354  0.00  0.00    +0.009 C 
ENDBRANCH  10  13
ENDBRANCH   6   7
ENDBRANCH   1   6
BRANCH   1  15
ATOM     15  C   UNL     1       2.526   1.081  -0.912  0.00  0.00    +0.091 C 
BRANCH  15  16
ATOM     16  C   UNL     1       1.993   1.043  -2.325  0.00  0.00    -0.043 A 
ATOM     17  C   UNL     1       2.660   0.305  -3.313  0.00  0.00    +0.004 A 
ATOM     18  C   UNL     1       2.169   0.252  -4.618  0.00  0.00    +0.000 A 
ATOM     19  C   UNL     1       1.008   0.942  -4.952  0.00  0.00    +0.000 A 
ATOM     20  C   UNL     1       0.337   1.685  -3.982  0.00  0.00    +0.000 A 
ATOM     21  C   UNL     1       0.824   1.732  -2.673  0.00  0.00    +0.004 A 
ENDBRANCH  15  16
ENDBRANCH   1  15
TORSDOF 7
