REMARK  Name = 
REMARK  8 active torsions:
REMARK  status: ('A' for Active; 'I' for Inactive)
REMARK    1  A    between atoms: C_1  and  C_2
REMARK    2  A    between atoms: C_2  and  C_3
REMARK    3  A    between atoms: C_2  and  N_4
REMARK    4  A    between atoms: C_7  and  N_10
REMARK    5  A    between atoms: C_11  and  C_13
REMARK    6  A    between atoms: N_21  and  C_22
REMARK    7  A    between atoms: C_22  and  C_23
REMARK    8  A    between atoms: N_25  and  C_26
REMARK                            x       y       z     vdW  Elec       q    Type
REMARK                         _______ _______ _______ _____ _____    ______ ____
ROOT
ATOM      1  C   UNL     1       4.077   6.709  -0.477  0.00  0.00    +0.106 A 
ATOM      2  N   UNL     1       5.092   6.625  -1.414  0.00  0.00    -0.327 N 
ATOM      3  C   UNL     1       5.445   7.898  -1.843  0.00  0.00    +0.050 A 
ATOM      4  C   UNL     1       6.459   8.351  -2.703  0.00  0.00    +0.026 A 
ATOM      5  C   UNL     1       6.551   9.727  -2.952  0.00  0.00    +0.002 A 
ATOM      6  C   UNL     1       5.668  10.629  -2.366  0.00  0.00    +0.001 A 
ATOM      7  C   UNL     1       4.672  10.176  -1.502  0.00  0.00    +0.010 A 
ATOM      8  C   UNL     1       4.567   8.798  -1.235  0.00  0.00    +0.001 A 
ATOM      9  C   UNL     1       3.710   8.045  -0.406  0.00  0.00    +0.041 A 
ENDROOT
BRANCH   1  12
ATOM     10  N   UNL     1       2.970   6.008   1.459  0.00  0.00    -0.307 N 
ATOM     11  H   UNL     1       3.239   6.926   1.789  0.00  0.00    +0.149 HD
ATOM     12  C   UNL     1       3.526   5.603   0.273  0.00  0.00    +0.261 C 
ATOM     13  O   UNL     1       3.581   4.430  -0.079  0.00  0.00    -0.269 OA
BRANCH  10  17
ATOM     14  N   UNL     1       2.942   6.161   5.134  0.00  0.00    -0.300 NA
ATOM     15  C   UNL     1       1.932   6.768   4.270  0.00  0.00    +0.086 C 
ATOM     16  C   UNL     1       1.334   5.811   3.239  0.00  0.00    +0.037 C 
ATOM     17  C   UNL     1       2.410   5.090   2.430  0.00  0.00    +0.076 C 
ATOM     18  C   UNL     1       3.505   4.501   3.317  0.00  0.00    +0.037 C 
ATOM     19  C   UNL     1       3.997   5.489   4.376  0.00  0.00    +0.086 C 
BRANCH  14  21
ATOM     20  C   UNL     1       1.677   4.185   6.177  0.00  0.00    +0.024 C 
ATOM     21  C   UNL     1       2.419   5.513   6.347  0.00  0.00    +0.050 C 
ATOM     22  C   UNL     1       3.519   5.344   7.403  0.00  0.00    +0.024 C 
ENDBRANCH  14  21
ENDBRANCH  10  17
ENDBRANCH   1  12
BRANCH   2  23
ATOM     23  C   UNL     1       5.707   5.375  -1.861  0.00  0.00    +0.218 C 
BRANCH  23  24
ATOM     24  C   UNL     1       6.853   4.950  -0.963  0.00  0.00    +0.237 C 
ATOM     25  N   UNL     1       6.783   3.655  -0.455  0.00  0.00    -0.284 N 
ATOM     26  H   UNL     1       6.005   3.072  -0.748  0.00  0.00    +0.155 HD
ATOM     27  O   UNL     1       7.792   5.718  -0.787  0.00  0.00    -0.274 OA
BRANCH  25  28
ATOM     28  C   UNL     1       7.780   3.038   0.346  0.00  0.00    +0.034 A 
ATOM     29  C   UNL     1       7.772   1.644   0.496  0.00  0.00    +0.025 A 
ATOM     30  C   UNL     1       8.805   0.995   1.195  0.00  0.00    +0.022 A 
ATOM     31  C   UNL     1       9.834   1.739   1.769  0.00  0.00    +0.041 A 
ATOM     32 CL   UNL     1      11.131   0.949   2.578  0.00  0.00    -0.084 Cl
ATOM     33  C   UNL     1       9.820   3.123   1.681  0.00  0.00    +0.022 A 
ATOM     34  C   UNL     1       8.793   3.764   0.983  0.00  0.00    +0.025 A 
ENDBRANCH  25  28
ENDBRANCH  23  24
ENDBRANCH   2  23
TORSDOF 6
