REMARK  Name = 
REMARK  6 active torsions:
REMARK  status: ('A' for Active; 'I' for Inactive)
REMARK    1  A    between atoms: C_1  and  C_2
REMARK    2  A    between atoms: C_4  and  N_26
REMARK    3  A    between atoms: C_9  and  C_11
REMARK    4  A    between atoms: C_12  and  N_13
REMARK    5  A    between atoms: N_13  and  C_14
REMARK    6  A    between atoms: C_14  and  C_15
REMARK                            x       y       z     vdW  Elec       q    Type
REMARK                         _______ _______ _______ _____ _____    ______ ____
ROOT
ATOM      1  C   UNL     1       4.059   4.753   0.077  0.00  0.00    +0.102 A 
ATOM      2  C   UNL     1       4.215   5.582   1.330  0.00  0.00    +0.261 A 
ATOM      3  O   UNL     1       4.336   5.077   2.444  0.00  0.00    -0.267 OA
ATOM      4  N   UNL     1       4.217   6.945   1.173  0.00  0.00    -0.328 N 
ATOM      5  H   UNL     1       4.301   7.489   2.024  0.00  0.00    +0.168 HD
ATOM      6  C   UNL     1       4.125   7.567  -0.038  0.00  0.00    +0.088 A 
ATOM      7  C   UNL     1       4.025   6.843  -1.158  0.00  0.00    +0.041 A 
ATOM      8  C   UNL     1       3.982   5.386  -1.123  0.00  0.00    +0.045 A 
ENDROOT
BRANCH   1  13
ATOM      9  C   UNL     1       3.659  -0.370  -2.129  0.00  0.00    +0.046 C 
ATOM     10  C   UNL     1       3.917  -0.118  -0.674  0.00  0.00    -0.021 A 
ATOM     11  C   UNL     1       3.989   1.183  -0.146  0.00  0.00    +0.092 A 
ATOM     12  N   UNL     1       3.851   2.399  -0.779  0.00  0.00    -0.227 NA
ATOM     13  C   UNL     1       4.033   3.323   0.154  0.00  0.00    +0.146 A 
ATOM     14  N   UNL     1       4.251   2.715   1.373  0.00  0.00    -0.338 N 
ATOM     15  H   UNL     1       4.406   3.213   2.243  0.00  0.00    +0.167 HD
ATOM     16  C   UNL     1       4.246   1.358   1.205  0.00  0.00    +0.069 A 
ATOM     17  C   UNL     1       4.443   0.309   2.107  0.00  0.00    +0.054 A 
ATOM     18  C   UNL     1       4.368  -0.996   1.592  0.00  0.00    +0.050 A 
ATOM     19  C   UNL     1       4.112  -1.196   0.222  0.00  0.00    +0.031 A 
BRANCH  18  20
ATOM     20  N   UNL     1       4.546  -2.114   2.464  0.00  0.00    -0.306 N 
ATOM     21  C   UNL     1       4.475  -3.454   2.140  0.00  0.00    +0.204 A 
ATOM     22  N   UNL     1       4.668  -4.242   3.175  0.00  0.00    -0.244 NA
ATOM     23  C   UNL     1       4.878  -3.399   4.225  0.00  0.00    +0.130 A 
ATOM     24  C   UNL     1       4.815  -2.088   3.818  0.00  0.00    +0.112 A 
ENDBRANCH  18  20
ENDBRANCH   1  13
BRANCH   8  25
ATOM     25  N   UNL     1       3.799   4.766  -2.369  0.00  0.00    -0.338 N 
ATOM     26  H   UNL     1       3.373   3.848  -2.187  0.00  0.00    +0.146 HD
BRANCH  25  27
ATOM     27  C   UNL     1       4.975   4.492  -3.223  0.00  0.00    +0.157 C 
BRANCH  27  28
ATOM     28  C   UNL     1       4.588   3.971  -4.598  0.00  0.00    +0.058 A 
ATOM     29  C   UNL     1       3.841   2.800  -4.739  0.00  0.00    +0.025 A 
ATOM     30  C   UNL     1       3.527   2.343  -6.019  0.00  0.00    +0.003 A 
ATOM     31  C   UNL     1       3.975   3.052  -7.125  0.00  0.00    +0.020 A 
ATOM     32  C   UNL     1       4.727   4.192  -6.904  0.00  0.00    +0.111 A 
ATOM     33  N   UNL     1       5.047   4.661  -5.677  0.00  0.00    -0.258 NA
ENDBRANCH  27  28
ENDBRANCH  25  27
ENDBRANCH   8  25
TORSDOF 5
