REMARK  Name = 
REMARK  14 active torsions:
REMARK  status: ('A' for Active; 'I' for Inactive)
REMARK    1  A    between atoms: C_2  and  C_3
REMARK    2  A    between atoms: C_2  and  C_4
REMARK    3  A    between atoms: C_2  and  C_6
REMARK    4  A    between atoms: C_4  and  C_5
REMARK    5  A    between atoms: C_6  and  N_8
REMARK    6  A    between atoms: C_6  and  C_22
REMARK    7  A    between atoms: C_9  and  C_11
REMARK    8  A    between atoms: C_14  and  C_16
REMARK    9  A    between atoms: N_18  and  C_19
REMARK   10  A    between atoms: C_19  and  C_20
REMARK   11  A    between atoms: C_20  and  C_21
REMARK   12  A    between atoms: C_28  and  C_30
REMARK   13  A    between atoms: C_30  and  O_32
REMARK   14  A    between atoms: O_32  and  C_33
REMARK                            x       y       z     vdW  Elec       q    Type
REMARK                         _______ _______ _______ _____ _____    ______ ____
ROOT
ATOM      1  C   UNL     1       2.668  -1.486   0.399  0.00  0.00    +0.162 C 
ENDROOT
BRANCH   1   2
ATOM      2  C   UNL     1       4.201  -1.689   0.371  0.00  0.00    +0.237 C 
ATOM      3  N   UNL     1       5.028  -0.612   0.626  0.00  0.00    -0.286 N 
ATOM      4  C   UNL     1       4.679   0.769   0.998  0.00  0.00    +0.185 C 
ATOM      5  C   UNL     1       5.917   1.271   1.768  0.00  0.00    +0.035 C 
ATOM      6  C   UNL     1       6.949   0.145   1.700  0.00  0.00    +0.021 C 
ATOM      7  C   UNL     1       6.468  -0.757   0.583  0.00  0.00    +0.109 C 
ATOM      8  O   UNL     1       4.666  -2.814   0.150  0.00  0.00    -0.274 OA
BRANCH   4   9
ATOM      9  C   UNL     1       4.400   1.776  -0.133  0.00  0.00    +0.328 C 
ATOM     10  O   UNL     1       4.107   2.948   0.086  0.00  0.00    -0.249 OA
BRANCH   9  11
ATOM     11  O   UNL     1       4.569   1.244  -1.371  0.00  0.00    -0.467 OA
ATOM     12  C   UNL     1       4.401   2.187  -2.434  0.00  0.00    +0.280 C 
ENDBRANCH   9  11
ENDBRANCH   4   9
ENDBRANCH   1   2
BRANCH   1  13
ATOM     13  N   UNL     1       2.043  -2.506  -0.455  0.00  0.00    -0.302 N 
ATOM     14  H   UNL     1       2.365  -3.466  -0.361  0.00  0.00    +0.150 HD
ATOM     15  C   UNL     1       1.201  -2.178  -1.486  0.00  0.00    +0.246 C 
ATOM     16  O   UNL     1       0.893  -1.028  -1.770  0.00  0.00    -0.273 OA
BRANCH  15  17
ATOM     17  C   UNL     1       0.636  -3.291  -2.271  0.00  0.00    +0.242 C 
ATOM     18  C   UNL     1      -0.796  -3.673  -1.981  0.00  0.00    +0.242 C 
ATOM     19  O   UNL     1       0.302  -4.517  -1.584  0.00  0.00    -0.349 OA
BRANCH  18  20
ATOM     20  C   UNL     1      -1.656  -4.131  -3.094  0.00  0.00    +0.245 C 
ATOM     21  N   UNL     1      -1.852  -5.487  -3.166  0.00  0.00    -0.313 N 
ATOM     22  H   UNL     1      -1.319  -6.077  -2.539  0.00  0.00    +0.149 HD
ATOM     23  O   UNL     1      -2.161  -3.314  -3.851  0.00  0.00    -0.273 OA
BRANCH  21  24
ATOM     24  C   UNL     1      -2.671  -6.096  -4.196  0.00  0.00    +0.104 C 
BRANCH  24  25
ATOM     25  C   UNL     1      -1.906  -6.332  -5.496  0.00  0.00    +0.015 C 
ATOM     26  C   UNL     1      -0.747  -7.304  -5.325  0.00  0.00    +0.005 C 
ENDBRANCH  24  25
ENDBRANCH  21  24
ENDBRANCH  18  20
ENDBRANCH  15  17
ENDBRANCH   1  13
BRANCH   1  27
ATOM     27  C   UNL     1       2.058  -1.488   1.830  0.00  0.00    +0.015 C 
ATOM     28  C   UNL     1       0.645  -0.883   1.772  0.00  0.00    +0.010 C 
BRANCH  27  29
ATOM     29  C   UNL     1       2.059  -2.880   2.503  0.00  0.00    +0.002 C 
ATOM     30  C   UNL     1       1.672  -2.840   3.981  0.00  0.00    +0.004 C 
ENDBRANCH  27  29
ENDBRANCH   1  27
TORSDOF 10
