REMARK  Name = 
REMARK  10 active torsions:
REMARK  status: ('A' for Active; 'I' for Inactive)
REMARK    1  A    between atoms: C_2  and  C_3
REMARK    2  A    between atoms: C_2  and  C_4
REMARK    3  A    between atoms: C_2  and  C_15
REMARK    4  A    between atoms: C_5  and  C_6
REMARK    5  A    between atoms: C_7  and  C_8
REMARK    6  A    between atoms: C_17  and  O_18
REMARK    7  A    between atoms: O_18  and  C_19
REMARK    8  A    between atoms: C_21  and  C_23
REMARK    9  A    between atoms: C_25  and  C_26
REMARK   10  A    between atoms: C_28  and  C_29
REMARK                            x       y       z     vdW  Elec       q    Type
REMARK                         _______ _______ _______ _____ _____    ______ ____
ROOT
ATOM      1  C   UNL     1       2.183  -0.076   0.087  0.00  0.00    +0.091 C 
ATOM      2  C   UNL     1       0.687  -0.391   0.021  0.00  0.00    +0.026 C 
ENDROOT
BRANCH   1   3
ATOM      3  C   UNL     1       2.667   0.373  -1.285  0.00  0.00    -0.029 A 
ATOM      4  C   UNL     1       3.101  -0.544  -2.259  0.00  0.00    +0.013 A 
ATOM      5  C   UNL     1       3.491  -0.139  -3.549  0.00  0.00    -0.014 A 
ATOM      6  C   UNL     1       3.420   1.235  -3.846  0.00  0.00    +0.054 A 
ATOM      7  C   UNL     1       2.968   2.166  -2.909  0.00  0.00    +0.121 A 
ATOM      8  C   UNL     1       2.601   1.731  -1.634  0.00  0.00    +0.050 A 
BRANCH   5   9
ATOM      9  C   UNL     1       3.952  -1.117  -4.565  0.00  0.00    -0.017 A 
ATOM     10  C   UNL     1       3.664  -0.938  -5.931  0.00  0.00    +0.012 A 
ATOM     11  C   UNL     1       4.123  -1.830  -6.911  0.00  0.00    -0.050 A 
ATOM     12  C   UNL     1       3.811  -1.569  -8.355  0.00  0.00    +0.044 C 
ATOM     13  C   UNL     1       4.868  -2.944  -6.521  0.00  0.00    +0.006 A 
ATOM     14  C   UNL     1       5.160  -3.167  -5.171  0.00  0.00    -0.050 A 
ATOM     15  C   UNL     1       5.969  -4.364  -4.768  0.00  0.00    +0.044 C 
ATOM     16  C   UNL     1       4.705  -2.251  -4.209  0.00  0.00    +0.012 A 
ENDBRANCH   5   9
BRANCH   7  17
ATOM     17  O   UNL     1       2.836   3.512  -3.124  0.00  0.00    -0.495 OA
ATOM     18  C   UNL     1       3.162   3.987  -4.427  0.00  0.00    +0.277 C 
ENDBRANCH   7  17
ENDBRANCH   1   3
BRANCH   1  19
ATOM     19  C   UNL     1       2.923  -1.240   0.624  0.00  0.00    -0.089 C 
ATOM     20  C   UNL     1       3.514  -2.204   1.034  0.00  0.00    -0.060 C 
BRANCH  20  21
ATOM     21  C   UNL     1       4.235  -3.367   1.466  0.00  0.00    +0.085 A 
ATOM     22  C   UNL     1       3.843  -4.650   1.094  0.00  0.00    +0.137 A 
ATOM     23  N   UNL     1       2.666  -4.886   0.374  0.00  0.00    -0.342 N 
ATOM     24  H   UNL     1       2.583  -4.288  -0.440  0.00  0.00    +0.144 HD
ATOM     25  H   UNL     1       2.635  -5.875   0.143  0.00  0.00    +0.144 HD
ATOM     26  N   UNL     1       4.520  -5.755   1.447  0.00  0.00    -0.199 NA
ATOM     27  C   UNL     1       5.625  -5.580   2.168  0.00  0.00    +0.215 A 
ATOM     28  N   UNL     1       6.340  -6.702   2.534  0.00  0.00    -0.327 N 
ATOM     29  H   UNL     1       5.731  -7.507   2.539  0.00  0.00    +0.145 HD
ATOM     30  H   UNL     1       6.863  -6.509   3.377  0.00  0.00    +0.145 HD
ATOM     31  N   UNL     1       6.076  -4.401   2.601  0.00  0.00    -0.219 NA
ATOM     32  C   UNL     1       5.382  -3.295   2.240  0.00  0.00    +0.060 A 
ATOM     33  C   UNL     1       5.944  -2.004   2.761  0.00  0.00    +0.067 C 
ENDBRANCH  20  21
ENDBRANCH   1  19
TORSDOF 5
