REMARK  Name = 
REMARK  12 active torsions:
REMARK  status: ('A' for Active; 'I' for Inactive)
REMARK    1  A    between atoms: C_2  and  O_3
REMARK    2  A    between atoms: C_2  and  N_4
REMARK    3  A    between atoms: C_2  and  C_17
REMARK    4  A    between atoms: N_4  and  C_5
REMARK    5  A    between atoms: C_7  and  C_13
REMARK    6  A    between atoms: C_8  and  C_11
REMARK    7  A    between atoms: C_17  and  C_18
REMARK    8  A    between atoms: C_17  and  O_19
REMARK    9  A    between atoms: C_17  and  C_20
REMARK   10  A    between atoms: C_20  and  O_21
REMARK   11  A    between atoms: O_21  and  C_22
REMARK   12  A    between atoms: C_25  and  N_28
REMARK                            x       y       z     vdW  Elec       q    Type
REMARK                         _______ _______ _______ _____ _____    ______ ____
ROOT
ATOM      1  C   UNL     1       2.093  -0.023  -0.028  0.00  0.00    +0.235 C 
ENDROOT
BRANCH   1   2
ATOM      2  O   UNL     1       2.626   0.024  -1.341  0.00  0.00    -0.371 OA
ATOM      3  H   UNL     1       1.936  -0.410  -1.872  0.00  0.00    +0.212 HD
ENDBRANCH   1   2
BRANCH   1   4
ATOM      4  C   UNL     1       2.602  -1.329   0.671  0.00  0.00    +0.139 C 
ATOM      5  C   UNL     1       2.107  -1.445   2.118  0.00  0.00    +0.049 C 
BRANCH   4   6
ATOM      6  O   UNL     1       2.099  -2.489  -0.033  0.00  0.00    -0.381 OA
ATOM      7  H   UNL     1       1.204  -2.252  -0.343  0.00  0.00    +0.210 HD
ENDBRANCH   4   6
BRANCH   4   8
ATOM      8  C   UNL     1       4.145  -1.384   0.634  0.00  0.00    +0.267 C 
BRANCH   8   9
ATOM      9  O   UNL     1       4.707  -0.254   1.312  0.00  0.00    -0.489 OA
BRANCH   9  10
ATOM     10  C   UNL     1       6.074  -0.171   1.337  0.00  0.00    +0.121 A 
ATOM     11  C   UNL     1       6.589   0.950   1.998  0.00  0.00    +0.052 A 
ATOM     12  C   UNL     1       7.971   1.139   2.117  0.00  0.00    +0.088 A 
ATOM     13  C   UNL     1       8.841   0.191   1.566  0.00  0.00    +0.273 A 
ATOM     14  C   UNL     1       8.337  -0.925   0.889  0.00  0.00    +0.088 A 
ATOM     15  C   UNL     1       6.954  -1.101   0.777  0.00  0.00    +0.052 A 
BRANCH  13  16
ATOM     16  N   UNL     1      10.294   0.359   1.706  0.00  0.00    +0.080 N 
ATOM     17  O   UNL     1      10.704   1.363   2.304  0.00  0.00    +0.041 OA
ATOM     18  O   UNL     1      11.024  -0.519   1.223  0.00  0.00    -0.576 OA
ENDBRANCH  13  16
ENDBRANCH   9  10
ENDBRANCH   8   9
ENDBRANCH   4   8
ENDBRANCH   1   4
BRANCH   1  19
ATOM     19  N   UNL     1       0.639  -0.055  -0.197  0.00  0.00    -0.317 N 
ATOM     20  H   UNL     1       0.160  -0.345   0.655  0.00  0.00    +0.149 HD
BRANCH  19  21
ATOM     21  C   UNL     1      -0.046   1.050  -0.729  0.00  0.00    +0.030 A 
ATOM     22  C   UNL     1      -1.437   0.952  -0.861  0.00  0.00    +0.024 A 
ATOM     23  C   UNL     1      -2.189   1.975  -1.448  0.00  0.00    +0.021 A 
ATOM     24  C   UNL     1      -1.561   3.134  -1.918  0.00  0.00    +0.064 A 
ATOM     25  C   UNL     1      -0.169   3.260  -1.804  0.00  0.00    +0.074 A 
ATOM     26  C   UNL     1       0.571   2.204  -1.226  0.00  0.00    +0.036 A 
BRANCH  25  27
ATOM     27  C   UNL     1       0.540   4.502  -2.287  0.00  0.00    +0.419 C 
ATOM     28  F   UNL     1       0.092   5.626  -1.666  0.00  0.00    -0.166 F 
ATOM     29  F   UNL     1       0.383   4.708  -3.621  0.00  0.00    -0.166 F 
ATOM     30  F   UNL     1       1.885   4.477  -2.072  0.00  0.00    -0.166 F 
ENDBRANCH  25  27
BRANCH  24  31
ATOM     31  C   UNL     1      -2.369   4.163  -2.512  0.00  0.00    +0.100 C 
ATOM     32  N   UNL     1      -3.028   4.987  -2.990  0.00  0.00    -0.191 NA
ENDBRANCH  24  31
ENDBRANCH  19  21
ENDBRANCH   1  19
TORSDOF 11
