REMARK  Name = 
REMARK  9 active torsions:
REMARK  status: ('A' for Active; 'I' for Inactive)
REMARK    1  A    between atoms: C_2  and  C_3
REMARK    2  A    between atoms: C_2  and  C_5
REMARK    3  A    between atoms: C_2  and  C_12
REMARK    4  A    between atoms: C_3  and  C_4
REMARK    5  A    between atoms: C_8  and  O_9
REMARK    6  A    between atoms: C_12  and  C_14
REMARK    7  A    between atoms: C_12  and  C_16
REMARK    8  A    between atoms: C_14  and  C_15
REMARK    9  A    between atoms: C_19  and  O_20
REMARK                            x       y       z     vdW  Elec       q    Type
REMARK                         _______ _______ _______ _____ _____    ______ ____
ROOT
ATOM      1  C   UNL     1       1.808  -1.986  -1.318  0.00  0.00    +0.026 C 
ENDROOT
BRANCH   1   2
ATOM      2  C   UNL     1       1.999  -3.035  -2.423  0.00  0.00    -0.043 A 
ATOM      3  C   UNL     1       3.058  -3.954  -2.337  0.00  0.00    +0.007 A 
ATOM      4  C   UNL     1       3.107  -5.065  -3.182  0.00  0.00    +0.045 A 
ATOM      5  C   UNL     1       2.095  -5.268  -4.112  0.00  0.00    +0.117 A 
ATOM      6  C   UNL     1       1.093  -4.324  -4.284  0.00  0.00    +0.045 A 
ATOM      7  C   UNL     1       1.060  -3.204  -3.457  0.00  0.00    +0.007 A 
BRANCH   5   8
ATOM      8  O   UNL     1       2.087  -6.430  -4.818  0.00  0.00    -0.507 OA
ATOM      9  H   UNL     1       1.171  -6.587  -5.104  0.00  0.00    +0.292 HD
ENDBRANCH   5   8
ENDBRANCH   1   2
BRANCH   1  10
ATOM     10  C   UNL     1       0.285  -1.882  -0.983  0.00  0.00    +0.005 C 
ATOM     11  C   UNL     1      -0.120  -1.070   0.233  0.00  0.00    +0.004 C 
ENDBRANCH   1  10
BRANCH   1  12
ATOM     12  C   UNL     1       2.603  -0.641  -1.538  0.00  0.00    +0.026 C 
BRANCH  12  13
ATOM     13  C   UNL     1       4.151  -0.817  -1.439  0.00  0.00    -0.043 A 
ATOM     14  C   UNL     1       4.740  -1.438  -0.320  0.00  0.00    +0.007 A 
ATOM     15  C   UNL     1       6.132  -1.624  -0.230  0.00  0.00    +0.045 A 
ATOM     16  C   UNL     1       6.960  -1.158  -1.241  0.00  0.00    +0.117 A 
ATOM     17  C   UNL     1       6.422  -0.504  -2.333  0.00  0.00    +0.045 A 
ATOM     18  C   UNL     1       5.035  -0.339  -2.427  0.00  0.00    +0.007 A 
BRANCH  16  19
ATOM     19  O   UNL     1       8.304  -1.357  -1.127  0.00  0.00    -0.507 OA
ATOM     20  H   UNL     1       8.734  -1.017  -1.929  0.00  0.00    +0.292 HD
ENDBRANCH  16  19
ENDBRANCH  12  13
BRANCH  12  21
ATOM     21  C   UNL     1       2.228   0.165  -2.814  0.00  0.00    +0.005 C 
ATOM     22  C   UNL     1       0.780   0.547  -3.043  0.00  0.00    +0.004 C 
ENDBRANCH  12  21
ENDBRANCH   1  12
TORSDOF 7
