REMARK  Name = 
REMARK  4 active torsions:
REMARK  status: ('A' for Active; 'I' for Inactive)
REMARK    1  A    between atoms: C_2  and  N_3
REMARK    2  A    between atoms: C_8  and  C_10
REMARK    3  A    between atoms: C_22  and  S_26
REMARK    4  A    between atoms: S_26  and  C_27
REMARK                            x       y       z     vdW  Elec       q    Type
REMARK                         _______ _______ _______ _____ _____    ______ ____
ROOT
ATOM      1  C   UNL     1       2.030  -0.002  -0.065  0.00  0.00    +0.079 C 
ATOM      2  C   UNL     1       2.508  -1.137   0.891  0.00  0.00    +0.048 C 
ATOM      3  C   UNL     1       4.046  -1.289   0.740  0.00  0.00    +0.084 C 
ATOM      4  C   UNL     1       4.734   0.040   0.853  0.00  0.00    +0.111 A 
ATOM      5  N   UNL     1       6.014   0.279   1.059  0.00  0.00    -0.232 NA
ATOM      6  C   UNL     1       6.140   1.653   1.089  0.00  0.00    +0.091 A 
ATOM      7  C   UNL     1       4.905   2.263   0.895  0.00  0.00    +0.069 A 
ATOM      8  C   UNL     1       4.709   3.646   0.916  0.00  0.00    +0.030 A 
ATOM      9  C   UNL     1       5.837   4.439   1.119  0.00  0.00    +0.029 A 
ATOM     10  C   UNL     1       7.097   3.852   1.272  0.00  0.00    +0.090 A 
ATOM     11  C   UNL     1       7.275   2.458   1.281  0.00  0.00    +0.056 A 
ATOM     12  N   UNL     1       4.046   1.217   0.702  0.00  0.00    -0.326 N 
ATOM     13  C   UNL     1       2.626   1.323   0.438  0.00  0.00    +0.142 C 
ENDROOT
BRANCH   2  14
ATOM     14  C   UNL     1       1.756  -2.446   0.728  0.00  0.00    -0.004 A 
ATOM     15  C   UNL     1       0.985  -2.945   1.794  0.00  0.00    +0.048 A 
ATOM     16  C   UNL     1       0.283  -4.140   1.654  0.00  0.00    +0.159 A 
ATOM     17  F   UNL     1      -0.452  -4.593   2.679  0.00  0.00    -0.202 F 
ATOM     18  C   UNL     1       0.338  -4.852   0.463  0.00  0.00    +0.161 A 
ATOM     19  F   UNL     1      -0.329  -6.008   0.337  0.00  0.00    -0.202 F 
ATOM     20  C   UNL     1       1.078  -4.371  -0.610  0.00  0.00    +0.080 A 
ATOM     21  C   UNL     1       1.773  -3.173  -0.470  0.00  0.00    +0.130 A 
ATOM     22  F   UNL     1       2.456  -2.703  -1.522  0.00  0.00    -0.205 F 
ENDBRANCH   2  14
BRANCH  10  23
ATOM     23  S   UNL     1       8.498   4.922   1.492  0.00  0.00    -0.006 S 
ATOM     24  O   UNL     1       9.553   4.149   2.123  0.00  0.00    -0.170 OA
ATOM     25  O   UNL     1       8.017   6.152   2.091  0.00  0.00    -0.170 OA
ATOM     26  C   UNL     1       8.996   5.283  -0.172  0.00  0.00    +0.200 C 
ENDBRANCH  10  23
BRANCH   1  27
ATOM     27  N   UNL     1       0.572   0.146  -0.182  0.00  0.00    -0.325 NA
ATOM     28  H   UNL     1       0.185  -0.659  -0.675  0.00  0.00    +0.119 HD
ATOM     29  H   UNL     1       0.131   0.155   0.737  0.00  0.00    +0.119 HD
ENDBRANCH   1  27
TORSDOF 3
