REMARK  Name = 
REMARK  9 active torsions:
REMARK  status: ('A' for Active; 'I' for Inactive)
REMARK    1  A    between atoms: C_1  and  N_2
REMARK    2  A    between atoms: N_2  and  C_3
REMARK    3  A    between atoms: N_2  and  S_10
REMARK    4  A    between atoms: S_10  and  C_13
REMARK    5  A    between atoms: C_16  and  C_17
REMARK    6  A    between atoms: C_17  and  C_18
REMARK    7  A    between atoms: C_19  and  C_20
REMARK    8  A    between atoms: C_21  and  C_22
REMARK    9  A    between atoms: C_23  and  C_24
REMARK                            x       y       z     vdW  Elec       q    Type
REMARK                         _______ _______ _______ _____ _____    ______ ____
ROOT
ATOM      1  C   UNL     1       4.852  -0.753   1.200  0.00  0.00    +0.109 A 
ATOM      2  C   UNL     1       5.482   0.561   1.082  0.00  0.00    +0.031 A 
ATOM      3  C   UNL     1       6.744   0.720   0.651  0.00  0.00    +0.028 A 
ATOM      4  C   UNL     1       7.524  -0.481   0.298  0.00  0.00    +0.065 A 
ATOM      5  C   UNL     1       6.936  -1.786   0.624  0.00  0.00    +0.008 A 
ATOM      6  C   UNL     1       7.916  -2.653   0.353  0.00  0.00    +0.031 C 
ATOM      7  C   UNL     1       8.956  -1.877  -0.372  0.00  0.00    +0.265 C 
ATOM      8  O   UNL     1       9.849  -2.389  -1.027  0.00  0.00    -0.268 OA
ATOM      9  N   UNL     1       8.683  -0.535  -0.261  0.00  0.00    -0.176 NA
ATOM     10  C   UNL     1       5.567  -1.888   1.055  0.00  0.00    +0.039 A 
ENDROOT
BRANCH   1  11
ATOM     11  S   UNL     1       3.088  -0.889   1.291  0.00  0.00    +0.074 S 
ATOM     12  O   UNL     1       2.528   0.420   1.557  0.00  0.00    -0.150 OA
ATOM     13  O   UNL     1       2.675  -1.618   0.102  0.00  0.00    -0.150 OA
BRANCH  11  15
ATOM     14  C   UNL     1       2.009  -3.129   2.381  0.00  0.00    +0.157 C 
ATOM     15  N   UNL     1       2.755  -1.889   2.615  0.00  0.00    -0.206 N 
BRANCH  15  16
ATOM     16  C   UNL     1       2.760  -1.342   3.932  0.00  0.00    +0.052 A 
ATOM     17  C   UNL     1       1.596  -0.812   4.502  0.00  0.00    +0.025 A 
ATOM     18  C   UNL     1       1.601  -0.409   5.840  0.00  0.00    +0.003 A 
ATOM     19  C   UNL     1       2.766  -0.538   6.604  0.00  0.00    +0.020 A 
ATOM     20  C   UNL     1       3.921  -1.044   6.018  0.00  0.00    +0.043 A 
ATOM     21 CL   UNL     1       5.355  -1.219   6.955  0.00  0.00    -0.083 Cl
ATOM     22  C   UNL     1       3.924  -1.437   4.682  0.00  0.00    +0.044 A 
ENDBRANCH  15  16
ENDBRANCH  11  15
ENDBRANCH   1  11
BRANCH   6  23
ATOM     23  C   UNL     1       8.029  -4.135   0.475  0.00  0.00    +0.094 C 
BRANCH  23  24
ATOM     24  C   UNL     1       8.719  -4.611   1.729  0.00  0.00    +0.024 A 
ATOM     25  N   UNL     1      10.092  -4.732   1.789  0.00  0.00    -0.361 N 
ATOM     26  H   UNL     1      10.726  -4.545   1.020  0.00  0.00    +0.165 HD
ATOM     27  C   UNL     1      10.478  -5.141   3.042  0.00  0.00    +0.016 A 
ATOM     28  C   UNL     1      11.907  -5.383   3.382  0.00  0.00    +0.063 C 
ATOM     29  C   UNL     1       9.340  -5.260   3.819  0.00  0.00    -0.027 A 
ATOM     30  C   UNL     1       9.301  -5.604   5.270  0.00  0.00    +0.046 C 
ATOM     31  C   UNL     1       8.218  -5.016   2.960  0.00  0.00    -0.026 A 
ATOM     32  C   UNL     1       6.791  -5.167   3.354  0.00  0.00    +0.046 C 
ENDBRANCH  23  24
ENDBRANCH   6  23
TORSDOF 5
