REMARK  Name = 
REMARK  8 active torsions:
REMARK  status: ('A' for Active; 'I' for Inactive)
REMARK    1  A    between atoms: C_1  and  C_2
REMARK    2  A    between atoms: N_6  and  C_7
REMARK    3  A    between atoms: C_7  and  C_8
REMARK    4  A    between atoms: C_8  and  C_11
REMARK    5  A    between atoms: N_19  and  C_20
REMARK    6  A    between atoms: C_20  and  C_21
REMARK    7  A    between atoms: N_23  and  C_24
REMARK    8  A    between atoms: C_24  and  C_25
REMARK                            x       y       z     vdW  Elec       q    Type
REMARK                         _______ _______ _______ _____ _____    ______ ____
ROOT
ATOM      1  C   UNL     1       1.176   0.483  -0.070  0.00  0.00    +0.065 C 
ATOM      2  C   UNL     1       2.656   0.230  -0.110  0.00  0.00    +0.038 A 
ATOM      3  N   UNL     1       3.161  -1.068  -0.125  0.00  0.00    -0.300 N 
ATOM      4  C   UNL     1       4.544  -1.271  -0.082  0.00  0.00    +0.292 A 
ATOM      5  O   UNL     1       5.116  -2.355  -0.079  0.00  0.00    -0.264 OA
ATOM      6  C   UNL     1       5.410   0.012  -0.027  0.00  0.00    +0.185 A 
ATOM      7  N   UNL     1       6.782  -0.138   0.061  0.00  0.00    -0.319 N 
ATOM      8  H   UNL     1       7.112  -1.099  -0.038  0.00  0.00    +0.148 HD
ATOM      9  N   UNL     1       4.869   1.197  -0.071  0.00  0.00    -0.234 NA
ATOM     10  C   UNL     1       3.507   1.270  -0.098  0.00  0.00    +0.134 A 
ENDROOT
BRANCH   3  11
ATOM     11  C   UNL     1       2.321  -2.251   0.027  0.00  0.00    +0.220 C 
BRANCH  11  12
ATOM     12  C   UNL     1       1.871  -3.055  -1.199  0.00  0.00    +0.233 C 
ATOM     13  N   UNL     1       2.038  -2.532  -2.458  0.00  0.00    -0.308 N 
ATOM     14  H   UNL     1       2.319  -1.569  -2.607  0.00  0.00    +0.149 HD
ATOM     15  O   UNL     1       1.297  -4.136  -1.034  0.00  0.00    -0.274 OA
BRANCH  13  16
ATOM     16  C   UNL     1       1.540  -3.300  -3.589  0.00  0.00    +0.162 C 
BRANCH  16  17
ATOM     17  C   UNL     1       1.795  -2.708  -4.953  0.00  0.00    +0.093 A 
ATOM     18  N   UNL     1       1.913  -1.355  -5.077  0.00  0.00    -0.255 NA
ATOM     19  C   UNL     1       2.028  -0.868  -6.337  0.00  0.00    +0.111 A 
ATOM     20  C   UNL     1       2.029  -1.655  -7.484  0.00  0.00    +0.022 A 
ATOM     21  C   UNL     1       1.909  -3.032  -7.340  0.00  0.00    +0.042 A 
ATOM     22  C   UNL     1       1.782  -3.559  -6.061  0.00  0.00    +0.146 A 
ATOM     23  F   UNL     1       1.630  -4.882  -5.913  0.00  0.00    -0.204 F 
ENDBRANCH  16  17
ENDBRANCH  13  16
ENDBRANCH  11  12
ENDBRANCH   3  11
BRANCH   7  24
ATOM     24  C   UNL     1       7.658   0.895  -0.517  0.00  0.00    +0.185 C 
BRANCH  24  25
ATOM     25  C   UNL     1       9.159   0.587  -0.368  0.00  0.00    +0.305 C 
ATOM     26  F   UNL     1       9.390  -0.655  -0.906  0.00  0.00    -0.197 F 
ATOM     27  F   UNL     1       9.450   0.449   0.964  0.00  0.00    -0.197 F 
BRANCH  25  28
ATOM     28  C   UNL     1      10.036   1.653  -1.019  0.00  0.00    +0.111 A 
ATOM     29  N   UNL     1       9.454   2.731  -1.617  0.00  0.00    -0.254 NA
ATOM     30  C   UNL     1      10.263   3.675  -2.143  0.00  0.00    +0.111 A 
ATOM     31  C   UNL     1      11.645   3.607  -2.107  0.00  0.00    +0.020 A 
ATOM     32  C   UNL     1      12.231   2.497  -1.510  0.00  0.00    +0.003 A 
ATOM     33  C   UNL     1      11.421   1.507  -0.960  0.00  0.00    +0.029 A 
ENDBRANCH  25  28
ENDBRANCH  24  25
ENDBRANCH   7  24
TORSDOF 7
