REMARK  Name = 
REMARK  5 active torsions:
REMARK  status: ('A' for Active; 'I' for Inactive)
REMARK    1  A    between atoms: C_2  and  N_22
REMARK    2  A    between atoms: C_7  and  N_9
REMARK    3  A    between atoms: C_10  and  C_12
REMARK    4  A    between atoms: N_17  and  C_18
REMARK    5  A    between atoms: C_23  and  C_25
REMARK                            x       y       z     vdW  Elec       q    Type
REMARK                         _______ _______ _______ _____ _____    ______ ____
ROOT
ATOM      1  C   UNL     1       2.198   0.074   0.248  0.00  0.00    +0.093 C 
ATOM      2  C   UNL     1       2.606   1.198  -0.752  0.00  0.00    +0.093 C 
ATOM      3  C   UNL     1       2.171   0.865  -2.189  0.00  0.00    +0.024 C 
ATOM      4  C   UNL     1       2.635  -0.516  -2.634  0.00  0.00    +0.002 C 
ATOM      5  C   UNL     1       2.149  -1.591  -1.673  0.00  0.00    +0.002 C 
ATOM      6  C   UNL     1       2.629  -1.312  -0.260  0.00  0.00    +0.024 C 
ENDROOT
BRANCH   1   7
ATOM      7  N   UNL     1       2.764   0.273   1.590  0.00  0.00    -0.306 N 
ATOM      8  H   UNL     1       3.518  -0.331   1.884  0.00  0.00    +0.149 HD
ATOM      9  C   UNL     1       2.215   1.116   2.526  0.00  0.00    +0.261 C 
ATOM     10  O   UNL     1       1.229   1.806   2.289  0.00  0.00    -0.269 OA
BRANCH   9  11
ATOM     11  C   UNL     1       2.828   1.070   3.838  0.00  0.00    +0.103 A 
ATOM     12  N   UNL     1       2.232   1.686   4.918  0.00  0.00    -0.351 N 
ATOM     13  H   UNL     1       1.379   2.225   4.850  0.00  0.00    +0.166 HD
ATOM     14  C   UNL     1       2.876   1.364   6.090  0.00  0.00    +0.047 A 
ATOM     15  C   UNL     1       2.550   1.672   7.416  0.00  0.00    +0.027 A 
ATOM     16  C   UNL     1       3.381   1.165   8.420  0.00  0.00    +0.022 A 
ATOM     17  C   UNL     1       4.504   0.406   8.098  0.00  0.00    +0.042 A 
ATOM     18  C   UNL     1       4.837   0.133   6.766  0.00  0.00    +0.030 A 
ATOM     19 CL   UNL     1       5.486  -0.231   9.363  0.00  0.00    -0.084 Cl
ATOM     20  C   UNL     1       3.994   0.609   5.742  0.00  0.00    +0.002 A 
ATOM     21  C   UNL     1       3.982   0.474   4.323  0.00  0.00    +0.041 A 
ENDBRANCH   9  11
ENDBRANCH   1   7
BRANCH   2  22
ATOM     22  N   UNL     1       2.051   2.491  -0.370  0.00  0.00    -0.305 N 
ATOM     23  H   UNL     1       1.227   2.533   0.233  0.00  0.00    +0.149 HD
ATOM     24  C   UNL     1       2.654   3.701  -0.660  0.00  0.00    +0.269 C 
ATOM     25  O   UNL     1       3.693   3.765  -1.316  0.00  0.00    -0.268 OA
BRANCH  24  26
ATOM     26  C   UNL     1       1.958   4.846  -0.076  0.00  0.00    +0.163 A 
ATOM     27  S   UNL     1       2.680   6.408  -0.047  0.00  0.00    -0.066 S 
ATOM     28  C   UNL     1       1.396   6.957   0.926  0.00  0.00    +0.027 A 
ATOM     29  C   UNL     1       1.290   8.329   1.510  0.00  0.00    +0.128 C 
ATOM     30  N   UNL     1       0.281   8.397   2.600  0.00  0.00    -0.300 NA
ATOM     31  C   UNL     1      -0.949   7.646   2.243  0.00  0.00    +0.090 C 
ATOM     32  C   UNL     1      -0.744   6.142   1.943  0.00  0.00    +0.071 C 
ATOM     33  C   UNL     1       0.838   7.948   3.877  0.00  0.00    +0.105 C 
ATOM     34  C   UNL     1       0.467   5.953   1.098  0.00  0.00    +0.055 A 
ATOM     35  N   UNL     1       0.778   4.744   0.518  0.00  0.00    -0.239 NA
ENDBRANCH  24  26
ENDBRANCH   2  22
TORSDOF 4
