REMARK  Name = 
REMARK  11 active torsions:
REMARK  status: ('A' for Active; 'I' for Inactive)
REMARK    1  A    between atoms: C_2  and  C_32
REMARK    2  A    between atoms: C_4  and  C_5
REMARK    3  A    between atoms: C_4  and  C_29
REMARK    4  A    between atoms: C_5  and  C_6
REMARK    5  A    between atoms: C_6  and  C_7
REMARK    6  A    between atoms: C_6  and  C_8
REMARK    7  A    between atoms: C_10  and  C_12
REMARK    8  A    between atoms: C_15  and  C_18
REMARK    9  A    between atoms: C_22  and  C_24
REMARK   10  A    between atoms: C_29  and  O_30
REMARK   11  A    between atoms: C_32  and  O_33
REMARK                            x       y       z     vdW  Elec       q    Type
REMARK                         _______ _______ _______ _____ _____    ______ ____
ROOT
ATOM      1  C   UNL     1       2.050   0.307   0.165  0.00  0.00    +0.125 C 
ATOM      2  C   UNL     1       2.371  -1.004   0.897  0.00  0.00    +0.128 C 
ATOM      3  N   UNL     1       3.669  -0.765   1.575  0.00  0.00    -0.273 N 
ATOM      4  C   UNL     1       4.551  -1.726   2.085  0.00  0.00    +0.248 C 
ATOM      5  O   UNL     1       5.649  -1.362   2.520  0.00  0.00    -0.270 OA
ATOM      6  C   UNL     1       4.037   0.706   1.501  0.00  0.00    +0.136 C 
ATOM      7  C   UNL     1       2.698   1.348   1.050  0.00  0.00    +0.054 C 
ENDROOT
BRANCH   4   8
ATOM      8  C   UNL     1       4.223  -3.184   2.242  0.00  0.00    +0.037 A 
ATOM      9  C   UNL     1       4.736  -3.852   3.375  0.00  0.00    +0.013 A 
ATOM     10  C   UNL     1       4.500  -5.222   3.584  0.00  0.00    +0.013 A 
ATOM     11  C   UNL     1       3.726  -5.957   2.676  0.00  0.00    +0.055 A 
ATOM     12  C   UNL     1       3.244  -5.303   1.539  0.00  0.00    +0.013 A 
ATOM     13  C   UNL     1       3.519  -3.947   1.312  0.00  0.00    +0.013 A 
BRANCH  11  14
ATOM     14  C   UNL     1       3.455  -7.428   2.901  0.00  0.00    +0.417 C 
ATOM     15  F   UNL     1       2.892  -7.680   4.116  0.00  0.00    -0.166 F 
ATOM     16  F   UNL     1       4.588  -8.186   2.850  0.00  0.00    -0.166 F 
ATOM     17  F   UNL     1       2.608  -7.967   1.980  0.00  0.00    -0.166 F 
ENDBRANCH  11  14
ENDBRANCH   4   8
BRANCH   2  18
ATOM     18  C   UNL     1       1.333  -1.541   1.858  0.00  0.00    +0.011 A 
ATOM     19  S   UNL     1       1.338  -1.203   3.542  0.00  0.00    -0.100 S 
ATOM     20  C   UNL     1       0.081  -2.322   3.844  0.00  0.00    +0.045 A 
ATOM     21  C   UNL     1      -0.413  -2.867   2.685  0.00  0.00    +0.008 A 
ATOM     22  C   UNL     1       0.301  -2.411   1.542  0.00  0.00    +0.013 A 
ENDBRANCH   2  18
BRANCH   1  23
ATOM     23  C   UNL     1       0.597   0.516  -0.195  0.00  0.00    +0.310 C 
ATOM     24  O   UNL     1      -0.100  -0.368  -0.668  0.00  0.00    -0.251 OA
BRANCH  23  25
ATOM     25  O   UNL     1       0.149   1.788  -0.112  0.00  0.00    -0.480 OA
ATOM     26  H   UNL     1       0.766   2.472   0.206  0.00  0.00    +0.295 HD
ENDBRANCH  23  25
ENDBRANCH   1  23
BRANCH   6  27
ATOM     27  C   UNL     1       4.361   1.388   2.869  0.00  0.00    +0.329 C 
ATOM     28  O   UNL     1       3.836   2.432   3.239  0.00  0.00    -0.249 OA
BRANCH  27  29
ATOM     29  O   UNL     1       5.341   0.828   3.608  0.00  0.00    -0.479 OA
ATOM     30  H   UNL     1       5.687  -0.016   3.214  0.00  0.00    +0.295 HD
ENDBRANCH  27  29
ENDBRANCH   6  27
BRANCH   6  31
ATOM     31  C   UNL     1       5.173   0.903   0.439  0.00  0.00    +0.040 C 
BRANCH  31  32
ATOM     32  C   UNL     1       5.477   2.326  -0.101  0.00  0.00    -0.015 C 
ATOM     33  C   UNL     1       6.424   2.249  -1.311  0.00  0.00    +0.007 C 
ATOM     34  C   UNL     1       6.108   3.250   0.938  0.00  0.00    +0.007 C 
ENDBRANCH  31  32
ENDBRANCH   6  31
TORSDOF 9
