REMARK  Name = 
REMARK  11 active torsions:
REMARK  status: ('A' for Active; 'I' for Inactive)
REMARK    1  A    between atoms: C_2  and  O_3
REMARK    2  A    between atoms: C_2  and  C_4
REMARK    3  A    between atoms: C_2  and  C_29
REMARK    4  A    between atoms: C_4  and  O_5
REMARK    5  A    between atoms: O_5  and  C_6
REMARK    6  A    between atoms: C_9  and  N_10
REMARK    7  A    between atoms: C_13  and  C_17
REMARK    8  A    between atoms: C_18  and  C_19
REMARK    9  A    between atoms: C_29  and  N_30
REMARK   10  A    between atoms: N_30  and  C_31
REMARK   11  A    between atoms: N_30  and  C_32
REMARK                            x       y       z     vdW  Elec       q    Type
REMARK                         _______ _______ _______ _____ _____    ______ ____
ROOT
ATOM      1  N   UNL     1       3.824   0.898   7.574  0.00  0.00    -0.284 N 
ATOM      2  H   UNL     1       4.258   0.061   7.924  0.00  0.00    +0.155 HD
ATOM      3  C   UNL     1       3.500   1.802   8.595  0.00  0.00    +0.220 A 
ATOM      4  N   UNL     1       2.565   2.736   8.347  0.00  0.00    -0.223 NA
ATOM      5  C   UNL     1       2.228   3.583   9.320  0.00  0.00    +0.116 A 
ATOM      6  C   UNL     1       2.807   3.551  10.554  0.00  0.00    +0.050 A 
ATOM      7  C   UNL     1       3.751   2.564  10.754  0.00  0.00    +0.094 A 
ATOM      8  N   UNL     1       4.102   1.676   9.792  0.00  0.00    -0.213 NA
ENDROOT
BRANCH   7   9
ATOM      9  C   UNL     1       4.401   2.416  12.062  0.00  0.00    +0.095 A 
ATOM     10  N   UNL     1       5.736   2.070  12.272  0.00  0.00    -0.298 N 
ATOM     11  C   UNL     1       5.934   2.054  13.654  0.00  0.00    +0.138 A 
ATOM     12  C   UNL     1       7.224   1.707  14.144  0.00  0.00    +0.047 A 
ATOM     13  C   UNL     1       8.215   1.426  13.280  0.00  0.00    +0.005 A 
ATOM     14  C   UNL     1       7.999   1.482  11.843  0.00  0.00    +0.018 A 
ATOM     15  N   UNL     1       4.851   2.392  14.309  0.00  0.00    -0.232 NA
ATOM     16  C   UNL     1       6.779   1.799  11.376  0.00  0.00    +0.093 A 
ATOM     17  C   UNL     1       3.895   2.613  13.351  0.00  0.00    +0.066 A 
ATOM     18  C   UNL     1       2.543   2.995  13.832  0.00  0.00    +0.068 C 
ENDBRANCH   7   9
BRANCH   1  22
ATOM     19  C   UNL     1       2.293   1.110   3.614  0.00  0.00    +0.121 A 
ATOM     20  C   UNL     1       2.557  -0.129   4.202  0.00  0.00    +0.047 A 
ATOM     21  C   UNL     1       3.113  -0.208   5.499  0.00  0.00    +0.027 A 
ATOM     22  C   UNL     1       3.416   0.949   6.231  0.00  0.00    +0.034 A 
ATOM     23  C   UNL     1       3.175   2.172   5.609  0.00  0.00    +0.027 A 
ATOM     24  C   UNL     1       2.606   2.258   4.341  0.00  0.00    +0.047 A 
BRANCH  19  25
ATOM     25  O   UNL     1       1.723   1.128   2.357  0.00  0.00    -0.489 OA
BRANCH  25  26
ATOM     26  C   UNL     1       1.522   2.466   1.858  0.00  0.00    +0.261 C 
BRANCH  26  27
ATOM     27  C   UNL     1       1.000   2.504   0.422  0.00  0.00    +0.166 C 
BRANCH  27  28
ATOM     28  O   UNL     1      -0.285   1.868   0.352  0.00  0.00    -0.387 OA
ATOM     29  H   UNL     1      -0.201   1.031   0.846  0.00  0.00    +0.210 HD
ENDBRANCH  27  28
BRANCH  27  30
ATOM     30  C   UNL     1       0.840   3.979  -0.037  0.00  0.00    +0.118 C 
BRANCH  30  31
ATOM     31  N   UNL     1       2.046   4.835   0.049  0.00  0.00    -0.306 NA
ATOM     32  C   UNL     1       1.712   6.212  -0.328  0.00  0.00    +0.104 C 
ATOM     33  C   UNL     1       3.133   4.337  -0.795  0.00  0.00    +0.104 C 
ENDBRANCH  30  31
ENDBRANCH  27  30
ENDBRANCH  26  27
ENDBRANCH  25  26
ENDBRANCH  19  25
ENDBRANCH   1  22
TORSDOF 8
