REMARK  Name = 
REMARK  3 active torsions:
REMARK  status: ('A' for Active; 'I' for Inactive)
REMARK    1  A    between atoms: C_2  and  O_3
REMARK    2  A    between atoms: C_12  and  C_14
REMARK    3  A    between atoms: C_20  and  O_22
REMARK                            x       y       z     vdW  Elec       q    Type
REMARK                         _______ _______ _______ _____ _____    ______ ____
ROOT
ATOM      1  C   UNL     1      -0.367   0.000   0.000  0.00  0.00    +0.115 C 
ATOM      2  C   UNL     1      -0.367   0.000   0.000  0.00  0.00    +0.038 C 
ATOM      3  C   UNL     1      -0.367   0.000   0.000  0.00  0.00    +0.031 C 
ATOM      4  C   UNL     1      -0.367   0.000   0.000  0.00  0.00    +0.020 C 
ATOM      5  C   UNL     1      -0.367   0.000   0.000  0.00  0.00    -0.027 C 
ATOM      6  C   UNL     1      -0.367   0.000   0.000  0.00  0.00    -0.031 C 
ATOM      7  C   UNL     1       8.815   0.000   0.000  0.00  0.00    +0.027 C 
ATOM      8  C   UNL     1      -0.367   0.000   0.000  0.00  0.00    +0.008 C 
ATOM      9  C   UNL     1      -0.367   0.000   0.000  0.00  0.00    +0.045 C 
ATOM     10  C   UNL     1      -0.367   0.000   0.000  0.00  0.00    +0.174 C 
ATOM     11  C   UNL     1      -0.367   0.000   0.000  0.00  0.00    +0.052 C 
ATOM     12  O   UNL     1      -0.367   0.000   0.000  0.00  0.00    -0.459 OA
ATOM     13  C   UNL     1      -0.367   0.000   0.000  0.00  0.00    +0.332 C 
ATOM     14  C   UNL     1      -0.367136184654720468874221586021590499328.000   0.000  0.00  0.00    +0.090 C 
ATOM     15  C   UNL     1      -0.367   0.0001387599950254390971335873617865827677398088916674854508288150704846107099601294871597162634259182960476319364234703660652474082934412037803714730191173800619011159820034278354365289693076345368761330695393289580780191744.000  0.00  0.00    +0.011 C 
ATOM     16  O   UNL     1      -0.367   0.000   0.000  0.00  0.00    -0.246 OA
ATOM     17  C   UNL     1      -0.367   0.000   0.000  0.00  0.00    +0.141 C 
ATOM     18  C   UNL     1      -0.367   0.000   0.000  0.00  0.00    +0.039 C 
ENDROOT
BRANCH   1  19
ATOM     19  O   UNL     1      -0.367   0.000   0.000  0.00  0.00    -0.392 OA
ATOM     20  H   UNL     1       0.0005447386188818754830512860310798336.00055503998010175637677702950156870922228439460330600675246190400364596453288032062715969617454395259471593940455256416101998341783346740438073911326752454124350193262011104549579641315734443353800392199092836784131801088.000  0.00  0.00    +0.210 HD
ENDBRANCH   1  19
BRANCH  17  21
ATOM     21  O   UNL     1      -0.367   0.000   0.000  0.00  0.00    -0.387 OA
ATOM     22  H   UNL     1       0.0005447386188818754830512860310798336.00055503998010175637677702950156870922228439460330600675246190400364596453288032062715969617454395259471593940455256416101998341783346740438073911326752454124350193262011104549579641315734443353800392199092836784131801088.000  0.00  0.00    +0.210 HD
ENDBRANCH  17  21
TORSDOF 2
