REMARK  Name = 
REMARK  6 active torsions:
REMARK  status: ('A' for Active; 'I' for Inactive)
REMARK    1  A    between atoms: N_9  and  C_10
REMARK    2  A    between atoms: C_10  and  C_11
REMARK    3  A    between atoms: C_11  and  C_12
REMARK    4  A    between atoms: C_12  and  C_13
REMARK    5  A    between atoms: C_13  and  N_14
REMARK    6  A    between atoms: C_17  and  C_20
REMARK                            x       y       z     vdW  Elec       q    Type
REMARK                         _______ _______ _______ _____ _____    ______ ____
ROOT
ATOM      1  C   UNL     1       6.191  -4.743   1.755  0.00  0.00    +0.127 C 
ENDROOT
BRANCH   1   8
ATOM      2  F   UNL     1       0.303  -3.229   2.526  0.00  0.00    -0.205 F 
ATOM      3  C   UNL     1       1.632  -3.099   2.625  0.00  0.00    +0.138 A 
ATOM      4  C   UNL     1       2.126  -2.023   3.355  0.00  0.00    +0.039 A 
ATOM      5  C   UNL     1       3.499  -1.850   3.486  0.00  0.00    +0.005 A 
ATOM      6  C   UNL     1       4.373  -2.762   2.891  0.00  0.00    +0.027 A 
ATOM      7  C   UNL     1       3.883  -3.853   2.147  0.00  0.00    +0.061 A 
ATOM      8  N   UNL     1       4.753  -4.800   1.536  0.00  0.00    -0.293 N 
ATOM      9  C   UNL     1       4.276  -5.818   0.721  0.00  0.00    +0.330 A 
ATOM     10  O   UNL     1       4.993  -6.630   0.141  0.00  0.00    -0.246 OA
ATOM     11  N   UNL     1       2.922  -5.904   0.592  0.00  0.00    -0.274 N 
ATOM     12  H   UNL     1       2.580  -6.679   0.044  0.00  0.00    +0.173 HD
ATOM     13  C   UNL     1       1.985  -5.130   1.220  0.00  0.00    +0.264 A 
ATOM     14  O   UNL     1       0.790  -5.383   1.116  0.00  0.00    -0.267 OA
ATOM     15  C   UNL     1       2.501  -4.005   2.014  0.00  0.00    +0.098 A 
ENDBRANCH   1   8
BRANCH   1  16
ATOM     16  C   UNL     1       6.905  -3.820   0.762  0.00  0.00    +0.023 C 
BRANCH  16  17
ATOM     17  C   UNL     1       8.410  -3.745   1.036  0.00  0.00    +0.017 C 
BRANCH  17  18
ATOM     18  C   UNL     1       9.056  -5.132   0.980  0.00  0.00    +0.085 C 
BRANCH  18  19
ATOM     19  N   UNL     1      10.485  -5.162   1.204  0.00  0.00    -0.298 NA
ATOM     20  C   UNL     1      11.309  -4.780   0.075  0.00  0.00    +0.112 C 
ATOM     21  C   UNL     1      12.167  -3.572   0.261  0.00  0.00    -0.008 C 
ATOM     22  C   UNL     1      12.325  -2.914   1.423  0.00  0.00    -0.042 C 
ATOM     23  C   UNL     1      11.644  -3.416   2.671  0.00  0.00    +0.051 C 
ATOM     24  C   UNL     1      10.940  -4.776   2.530  0.00  0.00    +0.089 C 
BRANCH  22  25
ATOM     25  C   UNL     1      13.185  -1.707   1.511  0.00  0.00    -0.022 A 
ATOM     26  C   UNL     1      13.934  -1.424   2.663  0.00  0.00    +0.008 A 
ATOM     27  C   UNL     1      14.740  -0.283   2.741  0.00  0.00    +0.001 A 
ATOM     28  C   UNL     1      14.813   0.596   1.666  0.00  0.00    +0.000 A 
ATOM     29  C   UNL     1      14.071   0.343   0.518  0.00  0.00    +0.001 A 
ATOM     30  C   UNL     1      13.259  -0.793   0.445  0.00  0.00    +0.008 A 
ENDBRANCH  22  25
ENDBRANCH  18  19
ENDBRANCH  17  18
ENDBRANCH  16  17
ENDBRANCH   1  16
TORSDOF 6
