REMARK  Name = 
REMARK  5 active torsions:
REMARK  status: ('A' for Active; 'I' for Inactive)
REMARK    1  A    between atoms: C_9  and  O_10
REMARK    2  A    between atoms: O_10  and  C_11
REMARK    3  A    between atoms: C_11  and  C_12
REMARK    4  A    between atoms: N_15  and  C_16
REMARK    5  A    between atoms: C_16  and  C_17
REMARK                            x       y       z     vdW  Elec       q    Type
REMARK                         _______ _______ _______ _____ _____    ______ ____
ROOT
ATOM      1  O   UNL     1       6.908   1.435   0.876  0.00  0.00    -0.491 OA
ENDROOT
BRANCH   1  12
ATOM      2  N   UNL     1       1.193  -1.096   1.604  0.00  0.00    -0.327 N 
ATOM      3  H   UNL     1       0.927  -1.410   0.682  0.00  0.00    +0.145 HD
ATOM      4  H   UNL     1       1.000  -1.709   2.382  0.00  0.00    +0.145 HD
ATOM      5  C   UNL     1       2.525  -0.753   1.609  0.00  0.00    +0.215 A 
ATOM      6  N   UNL     1       3.076  -0.376   0.459  0.00  0.00    -0.199 NA
ATOM      7  C   UNL     1       4.348   0.036   0.510  0.00  0.00    +0.133 A 
ATOM      8  N   UNL     1       4.951   0.230  -0.739  0.00  0.00    -0.342 N 
ATOM      9  H   UNL     1       4.236   0.204  -1.458  0.00  0.00    +0.144 HD
ATOM     10  H   UNL     1       5.531   1.062  -0.753  0.00  0.00    +0.144 HD
ATOM     11  C   UNL     1       5.089   0.103   1.699  0.00  0.00    +0.082 A 
ATOM     12  C   UNL     1       6.389   0.640   1.870  0.00  0.00    +0.133 A 
ATOM     13  C   UNL     1       7.086   0.488   3.072  0.00  0.00    +0.046 A 
ATOM     14  C   UNL     1       6.482  -0.181   4.122  0.00  0.00    +0.006 A 
ATOM     15  C   UNL     1       5.159  -0.611   3.990  0.00  0.00    +0.029 A 
ATOM     16  C   UNL     1       4.444  -0.459   2.808  0.00  0.00    +0.081 A 
ATOM     17  N   UNL     1       3.175  -0.874   2.771  0.00  0.00    -0.214 NA
ENDBRANCH   1  12
BRANCH   1  18
ATOM     18  C   UNL     1       8.169   0.953   0.425  0.00  0.00    +0.232 C 
BRANCH  18  19
ATOM     19  C   UNL     1       9.237   2.052   0.554  0.00  0.00    +0.029 C 
ATOM     20  C   UNL     1       9.114   3.144  -0.522  0.00  0.00    +0.022 C 
ATOM     21  C   UNL     1       9.424   2.608  -1.927  0.00  0.00    +0.085 C 
ATOM     22  N   UNL     1      10.680   1.843  -2.027  0.00  0.00    -0.298 NA
ATOM     23  C   UNL     1      10.793   0.824  -0.971  0.00  0.00    +0.085 C 
ATOM     24  C   UNL     1      10.611   1.397   0.434  0.00  0.00    +0.022 C 
BRANCH  22  25
ATOM     25  C   UNL     1      11.862   2.725  -2.081  0.00  0.00    +0.121 C 
BRANCH  25  26
ATOM     26  C   UNL     1      13.136   1.943  -2.353  0.00  0.00    -0.014 A 
ATOM     27  C   UNL     1      13.212   1.229  -3.567  0.00  0.00    +0.006 A 
ATOM     28  C   UNL     1      14.299   0.409  -3.854  0.00  0.00    +0.002 A 
ATOM     29  C   UNL     1      15.331   0.282  -2.930  0.00  0.00    +0.021 A 
ATOM     30  C   UNL     1      15.280   0.979  -1.719  0.00  0.00    +0.060 A 
ATOM     31 CL   UNL     1      16.590   0.733  -0.615  0.00  0.00    -0.082 Cl
ATOM     32  C   UNL     1      14.192   1.820  -1.426  0.00  0.00    +0.064 A 
ATOM     33 CL   UNL     1      14.149   2.674   0.085  0.00  0.00    -0.082 Cl
ENDBRANCH  25  26
ENDBRANCH  22  25
ENDBRANCH  18  19
ENDBRANCH   1  18
TORSDOF 5
