REMARK  Name = 
REMARK  7 active torsions:
REMARK  status: ('A' for Active; 'I' for Inactive)
REMARK    1  A    between atoms: C_1  and  C_2
REMARK    2  A    between atoms: C_6  and  C_8
REMARK    3  A    between atoms: C_8  and  C_10
REMARK    4  A    between atoms: C_14  and  N_15
REMARK    5  A    between atoms: N_15  and  C_16
REMARK    6  A    between atoms: C_16  and  C_17
REMARK    7  A    between atoms: C_20  and  C_23
REMARK                            x       y       z     vdW  Elec       q    Type
REMARK                         _______ _______ _______ _____ _____    ______ ____
ROOT
ATOM      1  C   UNL     1       4.403  -3.881  -0.458  0.00  0.00    +0.027 A 
ATOM      2  C   UNL     1       3.065  -3.891  -0.854  0.00  0.00    +0.055 A 
ATOM      3  C   UNL     1       2.346  -5.078  -0.791  0.00  0.00    +0.120 A 
ATOM      4  N   UNL     1       2.937  -6.247  -0.490  0.00  0.00    -0.240 NA
ATOM      5  C   UNL     1       4.268  -6.236  -0.240  0.00  0.00    +0.113 A 
ATOM      6  C   UNL     1       5.036  -5.089  -0.192  0.00  0.00    +0.031 A 
ENDROOT
BRANCH   1   7
ATOM      7  C   UNL     1       5.167  -2.614  -0.274  0.00  0.00    +0.193 C 
ATOM      8  O   UNL     1       6.387  -2.631  -0.417  0.00  0.00    -0.287 OA
BRANCH   7  12
ATOM      9  C   UNL     1       1.187  -0.139   1.528  0.00  0.00    +0.044 C 
ATOM     10  C   UNL     1       2.569  -0.106   0.944  0.00  0.00    -0.050 A 
ATOM     11  C   UNL     1       3.282  -1.302   0.794  0.00  0.00    +0.015 A 
ATOM     12  C   UNL     1       4.487  -1.332   0.077  0.00  0.00    +0.023 A 
ATOM     13  C   UNL     1       5.053  -0.130  -0.359  0.00  0.00    +0.012 A 
ATOM     14  C   UNL     1       4.382   1.076  -0.148  0.00  0.00    +0.001 A 
ATOM     15  C   UNL     1       3.133   1.084   0.476  0.00  0.00    +0.003 A 
ENDBRANCH   7  12
ENDBRANCH   1   7
BRANCH   3  16
ATOM     16  N   UNL     1       0.966  -4.992  -0.981  0.00  0.00    -0.325 N 
ATOM     17  H   UNL     1       0.749  -4.735  -1.939  0.00  0.00    +0.148 HD
BRANCH  16  18
ATOM     18  C   UNL     1       0.160  -6.098  -0.489  0.00  0.00    +0.138 C 
BRANCH  18  19
ATOM     19  C   UNL     1      -1.268  -5.603  -0.336  0.00  0.00    -0.030 A 
ATOM     20  C   UNL     1      -1.544  -4.479   0.464  0.00  0.00    +0.006 A 
ATOM     21  C   UNL     1      -2.845  -3.973   0.572  0.00  0.00    +0.016 A 
ATOM     22  C   UNL     1      -3.891  -4.589  -0.118  0.00  0.00    +0.065 A 
ATOM     23  C   UNL     1      -3.637  -5.741  -0.872  0.00  0.00    +0.016 A 
ATOM     24  C   UNL     1      -2.333  -6.243  -0.982  0.00  0.00    +0.006 A 
BRANCH  22  25
ATOM     25  C   UNL     1      -5.260  -4.002  -0.061  0.00  0.00    +0.308 C 
ATOM     26  N   UNL     1      -6.107  -4.103  -1.035  0.00  0.00    -0.099 NA
ATOM     27  H   UNL     1      -5.697  -4.581  -1.841  0.00  0.00    +0.363 HD
ATOM     28  N   UNL     1      -5.679  -3.310   1.035  0.00  0.00    -0.247 N 
ATOM     29  H   UNL     1      -6.682  -3.147   0.994  0.00  0.00    +0.288 HD
ATOM     30  H   UNL     1      -5.379  -3.668   1.933  0.00  0.00    +0.288 HD
ENDBRANCH  22  25
ENDBRANCH  18  19
ENDBRANCH  16  18
ENDBRANCH   3  16
TORSDOF 6
