REMARK  Name = 
REMARK  9 active torsions:
REMARK  status: ('A' for Active; 'I' for Inactive)
REMARK    1  A    between atoms: C_2  and  O_3
REMARK    2  A    between atoms: N_5  and  C_6
REMARK    3  A    between atoms: C_6  and  C_7
REMARK    4  A    between atoms: C_18  and  C_20
REMARK    5  A    between atoms: C_20  and  S_21
REMARK    6  A    between atoms: S_21  and  C_22
REMARK    7  A    between atoms: C_22  and  C_23
REMARK    8  A    between atoms: C_23  and  C_24
REMARK    9  A    between atoms: C_24  and  C_25
REMARK                            x       y       z     vdW  Elec       q    Type
REMARK                         _______ _______ _______ _____ _____    ______ ____
ROOT
ATOM      1  C   UNL     1       5.029   0.636   0.122  0.00  0.00    +0.123 C 
ENDROOT
BRANCH   1   2
ATOM      2  C   UNL     1       6.354   0.043   0.484  0.00  0.00    +0.010 A 
ATOM      3  C   UNL     1       6.991  -1.042  -0.182  0.00  0.00    +0.098 A 
ATOM      4  N   UNL     1       6.576  -1.743  -1.261  0.00  0.00    -0.233 NA
ATOM      5  C   UNL     1       7.407  -2.746  -1.584  0.00  0.00    +0.224 A 
ATOM      6  N   UNL     1       8.562  -3.098  -0.986  0.00  0.00    -0.219 NA
ATOM      7  C   UNL     1       8.964  -2.389   0.080  0.00  0.00    +0.144 A 
ATOM      8  N   UNL     1      10.144  -2.756   0.704  0.00  0.00    -0.341 N 
ATOM      9  H   UNL     1      10.695  -1.995   1.069  0.00  0.00    +0.144 HD
ATOM     10  H   UNL     1      10.649  -3.412   0.116  0.00  0.00    +0.144 HD
ATOM     11  C   UNL     1       8.168  -1.332   0.489  0.00  0.00    +0.105 A 
ATOM     12  N   UNL     1       8.272  -0.436   1.525  0.00  0.00    -0.356 N 
ATOM     13  H   UNL     1       9.021  -0.430   2.203  0.00  0.00    +0.165 HD
ATOM     14  C   UNL     1       7.194   0.410   1.524  0.00  0.00    +0.090 A 
ENDBRANCH   1   2
BRANCH   1  18
ATOM     15  C   UNL     1       2.062  -0.003   0.057  0.00  0.00    +0.134 C 
ATOM     16  C   UNL     1       2.530  -1.300   0.726  0.00  0.00    +0.043 C 
ATOM     17  C   UNL     1       3.743  -0.883   1.568  0.00  0.00    +0.091 C 
ATOM     18  N   UNL     1       4.068   0.520   1.240  0.00  0.00    -0.295 NA
ATOM     19  C   UNL     1       2.764   1.093   0.861  0.00  0.00    +0.116 C 
BRANCH  15  20
ATOM     20  O   UNL     1       0.645   0.113   0.095  0.00  0.00    -0.390 OA
ATOM     21  H   UNL     1       0.355   0.024   1.020  0.00  0.00    +0.210 HD
ENDBRANCH  15  20
BRANCH  16  22
ATOM     22  C   UNL     1       2.823  -2.389  -0.310  0.00  0.00    +0.076 C 
BRANCH  22  23
ATOM     23  S   UNL     1       3.446  -3.960   0.390  0.00  0.00    -0.160 S 
BRANCH  23  24
ATOM     24  C   UNL     1       2.073  -4.403   1.503  0.00  0.00    +0.069 C 
BRANCH  24  25
ATOM     25  C   UNL     1       2.461  -5.649   2.293  0.00  0.00    +0.010 C 
BRANCH  25  26
ATOM     26  C   UNL     1       1.332  -6.092   3.224  0.00  0.00    -0.003 C 
ATOM     27  C   UNL     1       1.735  -7.328   4.012  0.00  0.00    +0.004 C 
ENDBRANCH  25  26
ENDBRANCH  24  25
ENDBRANCH  23  24
ENDBRANCH  22  23
ENDBRANCH  16  22
ENDBRANCH   1  18
TORSDOF 8
