REMARK  Name = 
REMARK  14 active torsions:
REMARK  status: ('A' for Active; 'I' for Inactive)
REMARK    1  A    between atoms: CA_2  and  CB_3
REMARK    2  A    between atoms: CA_2  and  N_7
REMARK    3  A    between atoms: CA_2  and  C_35
REMARK    4  A    between atoms: CB_3  and  CG_4
REMARK    5  A    between atoms: CG_4  and  OD1_5
REMARK    6  A    between atoms: C_8  and  C_10
REMARK    7  A    between atoms: C_10  and  C_12
REMARK    8  A    between atoms: C_10  and  C_30
REMARK    9  A    between atoms: C_12  and  C_13
REMARK   10  A    between atoms: C_13  and  C_14
REMARK   11  A    between atoms: C_14  and  C_15
REMARK   12  A    between atoms: C_15  and  N_16
REMARK   13  A    between atoms: C_17  and  C_19
REMARK   14  A    between atoms: C_26  and  O_27
REMARK                            x       y       z     vdW  Elec       q    Type
REMARK                         _______ _______ _______ _____ _____    ______ ____
ROOT
ATOM      1  C   UNK A   0       4.126   0.988  -3.704  0.00  0.00    +0.018 C 
ENDROOT
BRANCH   1   2
ATOM      2  C   UNK A   0       2.592   0.874  -3.612  0.00  0.00    +0.112 C 
BRANCH   2   3
ATOM      3  C   UNK A   0       2.156   0.140  -2.370  0.00  0.00    +0.002 A 
ATOM      4  S   UNK A   0       2.137  -1.580  -2.379  0.00  0.00    -0.101 S 
ATOM      5  C   UNK A   0       1.732  -1.650  -0.722  0.00  0.00    +0.045 A 
ATOM      6  C   UNK A   0       1.569  -0.397  -0.177  0.00  0.00    +0.008 A 
ATOM      7  C   UNK A   0       1.802   0.636  -1.130  0.00  0.00    +0.012 A 
ENDBRANCH   2   3
BRANCH   2  10
ATOM      8  N   ASP A   1       0.675   2.222  -4.365  0.00  0.00    -0.305 N 
ATOM      9  H   ASP A   1       0.168   1.341  -4.281  0.00  0.00    +0.149 HD
ATOM     10  C   UNK A   0       1.904   2.242  -3.726  0.00  0.00    +0.221 C 
ATOM     11  O   UNK A   0       2.387   3.303  -3.344  0.00  0.00    -0.275 OA
BRANCH   8  12
ATOM     12  CA  ASP A   1      -0.156   3.431  -4.379  0.00  0.00    +0.146 C 
BRANCH  12  13
ATOM     13  C   ASP A   1      -1.001   3.434  -3.115  0.00  0.00    +0.246 C 
ATOM     14  O   ASP A   1      -1.414   2.408  -2.578  0.00  0.00    -0.299 OA
ENDBRANCH  12  13
BRANCH  12  15
ATOM     15  CB  ASP A   1      -1.076   3.473  -5.587  0.00  0.00    +0.150 C 
BRANCH  15  16
ATOM     16  CG  ASP A   1      -0.414   3.509  -6.942  0.00  0.00    +0.307 C 
ATOM     17  OD2 ASP A   1      -1.070   3.618  -7.971  0.00  0.00    -0.251 OA
BRANCH  16  18
ATOM     18  OD1 ASP A   1       0.926   3.398  -6.981  0.00  0.00    -0.481 OA
ATOM     19  HD1 ASP A   1       1.374   3.236  -6.128  0.00  0.00    +0.295 HD
ENDBRANCH  16  18
ENDBRANCH  15  16
ENDBRANCH  12  15
ENDBRANCH   8  12
ENDBRANCH   2  10
ENDBRANCH   1   2
BRANCH   1  20
ATOM     20  C   UNK A   0       4.831   1.671  -2.521  0.00  0.00    +0.003 C 
BRANCH  20  21
ATOM     21  C   UNK A   0       6.350   1.743  -2.692  0.00  0.00    +0.019 C 
BRANCH  21  22
ATOM     22  C   UNK A   0       6.761   2.475  -3.966  0.00  0.00    +0.104 C 
BRANCH  22  23
ATOM     23  N   UNK A   0       8.189   2.640  -4.056  0.00  0.00    -0.310 N 
ATOM     24  H   UNK A   0       8.774   1.933  -4.494  0.00  0.00    +0.149 HD
ATOM     25  C   UNK A   0       8.836   3.723  -3.512  0.00  0.00    +0.262 C 
ATOM     26  O   UNK A   0       8.278   4.636  -2.916  0.00  0.00    -0.269 OA
BRANCH  25  27
ATOM     27  C   UNK A   0      10.321   3.698  -3.685  0.00  0.00    +0.126 A 
ATOM     28  C   UNK A   0      11.083   4.732  -3.174  0.00  0.00    +0.033 A 
ATOM     29  C   UNK A   0      12.460   4.647  -3.313  0.00  0.00    +0.012 A 
ATOM     30  C   UNK A   0      13.030   3.537  -3.950  0.00  0.00    +0.004 A 
ATOM     31  C   UNK A   0      14.424   3.420  -4.061  0.00  0.00    +0.010 A 
ATOM     32  C   UNK A   0      14.995   2.310  -4.680  0.00  0.00    +0.004 A 
ATOM     33  C   UNK A   0      14.176   1.322  -5.213  0.00  0.00    +0.047 A 
ATOM     34  C   UNK A   0      12.786   1.448  -5.113  0.00  0.00    +0.143 A 
ATOM     35  C   UNK A   0      12.177   2.533  -4.468  0.00  0.00    +0.113 A 
ATOM     36  N   UNK A   0      10.835   2.618  -4.338  0.00  0.00    -0.238 NA
BRANCH  34  37
ATOM     37  O   UNK A   0      11.991   0.469  -5.665  0.00  0.00    -0.505 OA
ATOM     38  H   UNK A   0      12.541  -0.115  -6.211  0.00  0.00    +0.292 HD
ENDBRANCH  34  37
ENDBRANCH  25  27
ENDBRANCH  22  23
ENDBRANCH  21  22
ENDBRANCH  20  21
ENDBRANCH   1  20
TORSDOF 14
