REMARK  Name = 
REMARK  8 active torsions:
REMARK  status: ('A' for Active; 'I' for Inactive)
REMARK    1  A    between atoms: C_1  and  C_2
REMARK    2  A    between atoms: C_4  and  N_5
REMARK    3  A    between atoms: C_6  and  N_8
REMARK    4  A    between atoms: C_12  and  C_13
REMARK    5  A    between atoms: C_13  and  C_14
REMARK    6  A    between atoms: C_14  and  N_15
REMARK    7  A    between atoms: C_20  and  N_21
REMARK    8  A    between atoms: C_29  and  C_31
REMARK                            x       y       z     vdW  Elec       q    Type
REMARK                         _______ _______ _______ _____ _____    ______ ____
ROOT
ATOM      1  N   UNL     1       7.035   3.518  -0.039  0.00  0.00    -0.139 NA
ATOM      2  C   UNL     1       6.875   4.797  -0.181  0.00  0.00    +0.165 A 
ATOM      3  S   UNL     1       5.323   5.672  -0.354  0.00  0.00    -0.057 S 
ATOM      4  C   UNL     1       6.121   7.228  -0.160  0.00  0.00    +0.010 A 
ATOM      5  C   UNL     1       7.453   7.060  -0.106  0.00  0.00    +0.095 A 
ATOM      6  N   UNL     1       7.873   5.751  -0.203  0.00  0.00    -0.342 N 
ATOM      7  H   UNL     1       8.820   5.497   0.039  0.00  0.00    +0.167 HD
ENDROOT
BRANCH   1  10
ATOM      8  N   UNL     1       5.813   1.644  -0.546  0.00  0.00    -0.265 N 
ATOM      9  H   UNL     1       6.647   1.369  -1.044  0.00  0.00    +0.157 HD
ATOM     10  C   UNL     1       5.900   2.792   0.207  0.00  0.00    +0.330 C 
ATOM     11  O   UNL     1       5.093   3.099   1.078  0.00  0.00    -0.250 OA
BRANCH   8  16
ATOM     12  C   UNL     1       1.172  -0.213   0.013  0.00  0.00    +0.086 C 
ATOM     13  C   UNL     1       2.587   0.061  -0.295  0.00  0.00    +0.104 A 
ATOM     14  O   UNL     1       3.291  -0.902  -0.949  0.00  0.00    -0.454 OA
ATOM     15  C   UNL     1       4.569  -0.427  -1.118  0.00  0.00    +0.229 A 
ATOM     16  C   UNL     1       4.683   0.836  -0.567  0.00  0.00    +0.085 A 
ATOM     17  C   UNL     1       3.394   1.143  -0.047  0.00  0.00    +0.068 A 
BRANCH  15  18
ATOM     18  C   UNL     1       5.522  -1.339  -1.794  0.00  0.00    +0.452 C 
ATOM     19  F   UNL     1       5.115  -1.682  -3.044  0.00  0.00    -0.163 F 
ATOM     20  F   UNL     1       5.711  -2.496  -1.108  0.00  0.00    -0.163 F 
ATOM     21  F   UNL     1       6.751  -0.768  -1.933  0.00  0.00    -0.163 F 
ENDBRANCH  15  18
ENDBRANCH   8  16
ENDBRANCH   1  10
BRANCH   4  22
ATOM     22  C   UNL     1       5.269   8.446  -0.061  0.00  0.00    +0.062 C 
BRANCH  22  23
ATOM     23  C   UNL     1       5.997   9.785   0.063  0.00  0.00    +0.108 C 
BRANCH  23  24
ATOM     24  N   UNL     1       4.982  10.824   0.074  0.00  0.00    -0.329 N 
ATOM     25  H   UNL     1       4.267  10.666   0.781  0.00  0.00    +0.147 HD
ATOM     26  C   UNL     1       5.428  12.147   0.181  0.00  0.00    +0.124 A 
ATOM     27  C   UNL     1       4.445  13.111   0.211  0.00  0.00    +0.087 A 
ATOM     28  C   UNL     1       4.804  14.430   0.375  0.00  0.00    +0.130 A 
ATOM     29  N   UNL     1       6.099  14.779   0.438  0.00  0.00    -0.220 NA
ATOM     30  C   UNL     1       6.992  13.775   0.342  0.00  0.00    +0.225 A 
ATOM     31  N   UNL     1       6.723  12.466   0.224  0.00  0.00    -0.221 NA
BRANCH  28  32
ATOM     32  N   UNL     1       3.847  15.443   0.505  0.00  0.00    -0.267 N 
ATOM     33  H   UNL     1       4.284  16.344   0.646  0.00  0.00    +0.156 HD
ATOM     34  C   UNL     1       2.507  15.372   0.564  0.00  0.00    +0.239 A 
ATOM     35  N   UNL     1       1.806  16.522   0.811  0.00  0.00    -0.202 NA
ATOM     36  C   UNL     1       0.554  16.127   0.825  0.00  0.00    +0.217 A 
ATOM     37  N   UNL     1       0.502  14.795   0.585  0.00  0.00    -0.264 N 
ATOM     38  H   UNL     1      -0.297  14.174   0.521  0.00  0.00    +0.190 HD
ATOM     39  N   UNL     1       1.727  14.293   0.426  0.00  0.00    -0.136 NA
ENDBRANCH  28  32
ENDBRANCH  23  24
ENDBRANCH  22  23
ENDBRANCH   4  22
TORSDOF 7
