REMARK  Name = 
REMARK  10 active torsions:
REMARK  status: ('A' for Active; 'I' for Inactive)
REMARK    1  A    between atoms: C_2  and  O_3
REMARK    2  A    between atoms: C_2  and  C_7
REMARK    3  A    between atoms: C_2  and  C_11
REMARK    4  A    between atoms: O_3  and  C_4
REMARK    5  A    between atoms: C_4  and  C_5
REMARK    6  A    between atoms: C_7  and  O_9
REMARK    7  A    between atoms: O_9  and  C_10
REMARK    8  A    between atoms: C_14  and  N_15
REMARK    9  A    between atoms: C_17  and  C_18
REMARK   10  A    between atoms: C_18  and  O_19
REMARK                            x       y       z     vdW  Elec       q    Type
REMARK                         _______ _______ _______ _____ _____    ______ ____
ROOT
ATOM      1  C   UNL     1       2.639  -0.921   1.071  0.00  0.00    +0.018 A 
ATOM      2  C   UNL     1       2.498  -2.313   0.880  0.00  0.00    +0.068 A 
ATOM      3  C   UNL     1       2.922  -3.216   1.878  0.00  0.00    +0.038 A 
ATOM      4  C   UNL     1       3.497  -2.765   3.065  0.00  0.00    +0.025 A 
ATOM      5  C   UNL     1       3.550  -1.395   3.295  0.00  0.00    +0.023 A 
ATOM      6  C   UNL     1       3.137  -0.488   2.315  0.00  0.00    +0.010 A 
ENDROOT
BRANCH   4   7
ATOM      7  N   UNL     1       3.792  -3.664   4.095  0.00  0.00    -0.358 N 
ATOM      8  H   UNL     1       4.036  -4.599   3.782  0.00  0.00    +0.142 HD
ATOM      9  H   UNL     1       4.469  -3.305   4.764  0.00  0.00    +0.142 HD
ENDBRANCH   4   7
BRANCH   2  10
ATOM     10  C   UNL     1       1.947  -2.883  -0.384  0.00  0.00    +0.337 C 
ATOM     11  O   UNL     1       2.191  -2.437  -1.488  0.00  0.00    -0.245 OA
BRANCH  10  12
ATOM     12  O   UNL     1       1.140  -3.950  -0.192  0.00  0.00    -0.477 OA
ATOM     13  H   UNL     1       0.916  -4.149   0.736  0.00  0.00    +0.295 HD
ENDBRANCH  10  12
ENDBRANCH   2  10
BRANCH   1  14
ATOM     14  C   UNL     1       2.213   0.103   0.012  0.00  0.00    +0.315 C 
BRANCH  14  15
ATOM     15  C   UNL     1       2.971   1.460   0.053  0.00  0.00    +0.353 C 
ATOM     16  O   UNL     1       4.122   1.613   0.449  0.00  0.00    -0.246 OA
BRANCH  15  17
ATOM     17  O   UNL     1       2.225   2.463  -0.501  0.00  0.00    -0.465 OA
ATOM     18  C   UNL     1       2.894   3.727  -0.520  0.00  0.00    +0.280 C 
ENDBRANCH  15  17
ENDBRANCH  14  15
BRANCH  14  19
ATOM     19  O   UNL     1       0.783   0.110  -0.101  0.00  0.00    -0.445 OA
BRANCH  19  20
ATOM     20  C   UNL     1       0.084   0.815   0.823  0.00  0.00    +0.305 C 
ATOM     21  O   UNL     1       0.565   1.425   1.761  0.00  0.00    -0.251 OA
ATOM     22  C   UNL     1      -1.390   0.677   0.564  0.00  0.00    +0.136 C 
ENDBRANCH  19  20
ENDBRANCH  14  19
ENDBRANCH   1  14
TORSDOF 8
