REMARK  Name = 
REMARK  6 active torsions:
REMARK  status: ('A' for Active; 'I' for Inactive)
REMARK    1  A    between atoms: C_10  and  C_23
REMARK    2  A    between atoms: C_16  and  O_17
REMARK    3  A    between atoms: C_19  and  C_20
REMARK    4  A    between atoms: C_20  and  O_21
REMARK    5  A    between atoms: O_21  and  C_22
REMARK    6  A    between atoms: C_26  and  O_27
REMARK                            x       y       z     vdW  Elec       q    Type
REMARK                         _______ _______ _______ _____ _____    ______ ____
ROOT
ATOM      1  C   UNL     1       2.155  -0.060  -0.036  0.00  0.00    +0.035 C 
ATOM      2  C   UNL     1       2.548  -1.519  -0.031  0.00  0.00    +0.002 A 
ATOM      3  C   UNL     1       2.260  -2.324  -1.147  0.00  0.00    +0.053 A 
ATOM      4  C   UNL     1       2.672  -3.651  -1.177  0.00  0.00    +0.118 A 
ATOM      5  C   UNL     1       3.358  -4.202  -0.107  0.00  0.00    +0.055 A 
ATOM      6  C   UNL     1       3.632  -3.429   1.033  0.00  0.00    +0.023 A 
ATOM      7  C   UNL     1       3.190  -2.096   1.078  0.00  0.00    +0.130 A 
ATOM      8  O   UNL     1       3.474  -1.387   2.219  0.00  0.00    -0.483 OA
ATOM      9  C   UNL     1       2.691  -0.201   2.410  0.00  0.00    +0.207 C 
ATOM     10  C   UNL     1       2.729   0.693   1.169  0.00  0.00    +0.048 C 
ATOM     11  C   UNL     1       4.140   1.093   0.711  0.00  0.00    +0.083 C 
ATOM     12  C   UNL     1       3.986   1.375  -0.767  0.00  0.00    +0.250 C 
ATOM     13  F   UNL     1       5.044   0.896  -1.456  0.00  0.00    -0.206 F 
ATOM     14  F   UNL     1       3.937   2.710  -0.988  0.00  0.00    -0.206 F 
ATOM     15  C   UNL     1       2.690   0.735  -1.237  0.00  0.00    +0.084 C 
ENDROOT
BRANCH   9  16
ATOM     16  C   UNL     1       3.178   0.557   3.637  0.00  0.00    -0.007 A 
ATOM     17  C   UNL     1       4.532   0.563   4.011  0.00  0.00    +0.011 A 
ATOM     18  C   UNL     1       4.973   1.339   5.085  0.00  0.00    +0.046 A 
ATOM     19  C   UNL     1       4.065   2.114   5.793  0.00  0.00    +0.117 A 
ATOM     20  C   UNL     1       2.715   2.109   5.462  0.00  0.00    +0.046 A 
ATOM     21  C   UNL     1       2.274   1.333   4.385  0.00  0.00    +0.011 A 
BRANCH  19  22
ATOM     22  O   UNL     1       4.544   2.880   6.814  0.00  0.00    -0.507 OA
ATOM     23  H   UNL     1       3.821   3.429   7.158  0.00  0.00    +0.292 HD
ENDBRANCH  19  22
ENDBRANCH   9  16
BRANCH   4  24
ATOM     24  O   UNL     1       2.438  -4.445  -2.260  0.00  0.00    -0.507 OA
ATOM     25  H   UNL     1       2.018  -3.915  -2.957  0.00  0.00    +0.292 HD
ENDBRANCH   4  24
BRANCH   6  26
ATOM     26  C   UNL     1       4.427  -4.050   2.156  0.00  0.00    +0.198 C 
BRANCH  26  27
ATOM     27  O   UNL     1       5.691  -4.546   1.700  0.00  0.00    -0.378 OA
ATOM     28  C   UNL     1       6.589  -3.503   1.335  0.00  0.00    +0.194 C 
ENDBRANCH  26  27
ENDBRANCH   6  26
TORSDOF 5
