REMARK  Name = 
REMARK  6 active torsions:
REMARK  status: ('A' for Active; 'I' for Inactive)
REMARK    1  A    between atoms: N_1  and  C_2
REMARK    2  A    between atoms: C_2  and  C_3
REMARK    3  A    between atoms: N_6  and  C_7
REMARK    4  A    between atoms: C_7  and  C_8
REMARK    5  A    between atoms: C_13  and  C_15
REMARK    6  A    between atoms: C_22  and  C_24
REMARK                            x       y       z     vdW  Elec       q    Type
REMARK                         _______ _______ _______ _____ _____    ______ ____
ROOT
ATOM      1  C   UNL     1       2.595  -5.745  -0.625  0.00  0.00    -0.033 A 
ATOM      2  C   UNL     1       1.417  -5.567  -1.366  0.00  0.00    +0.007 A 
ATOM      3  C   UNL     1       0.625  -6.651  -1.756  0.00  0.00    +0.026 A 
ATOM      4  C   UNL     1       1.072  -7.927  -1.408  0.00  0.00    +0.047 A 
ATOM      5  N   UNL     1       0.569  -9.163  -1.732  0.00  0.00    -0.353 N 
ATOM      6  H   UNL     1      -0.238  -9.342  -2.313  0.00  0.00    +0.166 HD
ATOM      7  C   UNL     1       1.424 -10.148  -1.307  0.00  0.00    +0.068 A 
ATOM      8  C   UNL     1       2.396  -9.552  -0.537  0.00  0.00    +0.037 A 
ATOM      9  C   UNL     1       2.224  -8.144  -0.652  0.00  0.00    +0.001 A 
ATOM     10  C   UNL     1       2.983  -7.038  -0.232  0.00  0.00    +0.015 A 
ENDROOT
BRANCH   7  11
ATOM     11  C   UNL     1       1.296 -11.562  -1.738  0.00  0.00    +0.116 A 
ATOM     12  C   UNL     1       2.081 -12.683  -1.354  0.00  0.00    +0.029 A 
ATOM     13  C   UNL     1       3.119 -12.953  -0.439  0.00  0.00    +0.013 A 
ATOM     14  C   UNL     1       3.666 -14.241  -0.380  0.00  0.00    +0.019 A 
ATOM     15  C   UNL     1       3.201 -15.254  -1.223  0.00  0.00    +0.054 A 
ATOM     16  C   UNL     1       2.171 -15.008  -2.142  0.00  0.00    +0.046 A 
ATOM     17  C   UNL     1       1.632 -13.716  -2.171  0.00  0.00    +0.068 A 
ATOM     18  N   UNL     1       0.634 -13.170  -2.932  0.00  0.00    -0.276 N 
ATOM     19  H   UNL     1       0.089 -13.625  -3.656  0.00  0.00    +0.189 HD
ATOM     20  N   UNL     1       0.381 -11.879  -2.665  0.00  0.00    -0.171 NA
BRANCH  15  21
ATOM     21  C   UNL     1       3.779 -16.561  -1.145  0.00  0.00    +0.099 C 
ATOM     22  N   UNL     1       4.245 -17.625  -1.086  0.00  0.00    -0.191 NA
ENDBRANCH  15  21
ENDBRANCH   7  11
BRANCH   1  23
ATOM     23  C   UNL     1       3.470  -4.557  -0.287  0.00  0.00    +0.119 C 
BRANCH  23  27
ATOM     24  C   UNL     1       5.229  -2.162  -2.522  0.00  0.00    +0.005 C 
ATOM     25  C   UNL     1       5.251  -2.154  -0.984  0.00  0.00    +0.020 C 
ATOM     26  C   UNL     1       5.661  -3.511  -0.403  0.00  0.00    +0.085 C 
ATOM     27  N   UNL     1       4.824  -4.625  -0.873  0.00  0.00    -0.298 NA
ATOM     28  C   UNL     1       4.831  -4.679  -2.343  0.00  0.00    +0.085 C 
ATOM     29  C   UNL     1       4.408  -3.368  -3.016  0.00  0.00    +0.020 C 
BRANCH  24  30
ATOM     30  C   UNL     1       6.633  -2.173  -3.163  0.00  0.00    +0.081 C 
BRANCH  30  31
ATOM     31  N   UNL     1       7.440  -1.021  -2.774  0.00  0.00    -0.330 NA
ATOM     32  H   UNL     1       7.642  -1.057  -1.777  0.00  0.00    +0.118 HD
ATOM     33  H   UNL     1       8.348  -1.081  -3.237  0.00  0.00    +0.118 HD
ENDBRANCH  30  31
ENDBRANCH  24  30
ENDBRANCH  23  27
ENDBRANCH   1  23
TORSDOF 6
