REMARK  Name = 
REMARK  9 active torsions:
REMARK  status: ('A' for Active; 'I' for Inactive)
REMARK    1  A    between atoms: C_2  and  C_3
REMARK    2  A    between atoms: C_3  and  C_4
REMARK    3  A    between atoms: C_4  and  N_5
REMARK    4  A    between atoms: N_12  and  C_13
REMARK    5  A    between atoms: C_13  and  C_14
REMARK    6  A    between atoms: C_14  and  N_15
REMARK    7  A    between atoms: N_15  and  C_16
REMARK    8  A    between atoms: C_16  and  C_17
REMARK    9  A    between atoms: C_27  and  O_29
REMARK                            x       y       z     vdW  Elec       q    Type
REMARK                         _______ _______ _______ _____ _____    ______ ____
ROOT
ATOM      1  N   UNL     1       4.586   0.736   2.595  0.00  0.00    -0.234 N 
ATOM      2  H   UNL     1       4.059   0.207   3.299  0.00  0.00    +0.291 HD
ATOM      3  C   UNL     1       5.936   0.840   2.858  0.00  0.00    +0.325 C 
ATOM      4  C   UNL     1       6.680  -0.501   3.087  0.00  0.00    +0.304 C 
ATOM      5  N   UNL     1       8.008  -0.383   3.642  0.00  0.00    -0.247 NA
ATOM      6  C   UNL     1       8.704   0.872   3.435  0.00  0.00    +0.198 C 
ATOM      7 CL   UNL     1       9.842   0.560   2.080  0.00  0.00    -0.100 Cl
ATOM      8  C   UNL     1       7.901   2.154   3.160  0.00  0.00    +0.325 C 
ATOM      9  N   UNL     1       6.482   2.007   2.869  0.00  0.00    -0.081 NA
ENDROOT
BRANCH   4  10
ATOM     10  O   UNL     1       5.816  -1.293   3.887  0.00  0.00    -0.367 OA
ATOM     11  H   UNL     1       5.704  -0.794   4.713  0.00  0.00    +0.212 HD
ENDBRANCH   4  10
BRANCH   1  12
ATOM     12  C   UNL     1       3.839   1.827   2.011  0.00  0.00    +0.224 C 
BRANCH  12  13
ATOM     13  C   UNL     1       2.351   1.495   1.946  0.00  0.00    +0.062 C 
BRANCH  13  14
ATOM     14  C   UNL     1       1.647   1.348   3.311  0.00  0.00    +0.057 C 
ATOM     15  N   UNL     1       2.150   0.158   4.027  0.00  0.00    -0.313 NA
ATOM     16  H   UNL     1       1.971  -0.671   3.453  0.00  0.00    +0.122 HD
ATOM     17  C   UNL     1       1.469  -0.023   5.313  0.00  0.00    +0.081 C 
ATOM     18  C   UNL     1       1.633   1.197   6.215  0.00  0.00    +0.015 C 
ATOM     19  C   UNL     1       1.121   2.455   5.525  0.00  0.00    +0.003 C 
ATOM     20  C   UNL     1       1.799   2.615   4.170  0.00  0.00    +0.019 C 
ENDBRANCH  13  14
ENDBRANCH  12  13
ENDBRANCH   1  12
BRANCH   5  21
ATOM     21  C   UNL     1       8.397  -1.122   4.836  0.00  0.00    +0.104 C 
BRANCH  21  22
ATOM     22  C   UNL     1       8.111  -2.650   4.867  0.00  0.00    +0.096 C 
BRANCH  22  23
ATOM     23  N   UNL     1       8.501  -3.382   3.660  0.00  0.00    -0.311 NA
ATOM     24  H   UNL     1       8.103  -2.900   2.853  0.00  0.00    +0.122 HD
BRANCH  23  25
ATOM     25  C   UNL     1       9.948  -3.444   3.506  0.00  0.00    +0.117 C 
BRANCH  25  26
ATOM     26  C   UNL     1      10.245  -4.230   2.268  0.00  0.00    -0.019 A 
ATOM     27  C   UNL     1      10.358  -5.673   2.214  0.00  0.00    -0.005 A 
ATOM     28  C   UNL     1      10.654  -6.120   0.923  0.00  0.00    +0.020 A 
ATOM     29  C   UNL     1      10.819  -7.482   0.631  0.00  0.00    +0.017 A 
ATOM     30  C   UNL     1      10.678  -8.422   1.658  0.00  0.00    +0.021 A 
ATOM     31  C   UNL     1      10.380  -8.004   2.950  0.00  0.00    +0.042 A 
ATOM     32 CL   UNL     1      10.214  -9.161   4.207  0.00  0.00    -0.084 Cl
ATOM     33  S   UNL     1      10.780  -4.806  -0.184  0.00  0.00    -0.096 S 
ATOM     34  C   UNL     1      10.215  -6.644   3.235  0.00  0.00    +0.029 A 
ATOM     35  C   UNL     1      10.448  -3.659   1.027  0.00  0.00    +0.051 A 
ENDBRANCH  25  26
ENDBRANCH  23  25
ENDBRANCH  22  23
ENDBRANCH  21  22
ENDBRANCH   5  21
TORSDOF 9
