REMARK  Name = 
REMARK  7 active torsions:
REMARK  status: ('A' for Active; 'I' for Inactive)
REMARK    1  A    between atoms: C_1  and  C_2
REMARK    2  A    between atoms: C_4  and  C_27
REMARK    3  A    between atoms: C_6  and  C_7
REMARK    4  A    between atoms: C_8  and  O_9
REMARK    5  A    between atoms: O_9  and  C_10
REMARK    6  A    between atoms: N_17  and  C_18
REMARK    7  A    between atoms: C_21  and  C_24
REMARK                            x       y       z     vdW  Elec       q    Type
REMARK                         _______ _______ _______ _____ _____    ______ ____
ROOT
ATOM      1  C   UNL     1       1.079  -2.394  -0.139  0.00  0.00    +0.241 A 
ATOM      2  N   UNL     1       0.286  -1.360  -0.450  0.00  0.00    -0.178 NA
ATOM      3  C   UNL     1      -1.043  -1.526  -0.458  0.00  0.00    +0.224 A 
ATOM      4  N   UNL     1      -1.801  -0.356  -0.614  0.00  0.00    -0.283 N 
ATOM      5  H   UNL     1      -1.165   0.425  -0.701  0.00  0.00    +0.155 HD
ATOM      6  N   UNL     1      -1.614  -2.714  -0.265  0.00  0.00    -0.198 NA
ATOM      7  C   UNL     1      -0.817  -3.770  -0.058  0.00  0.00    +0.139 A 
ATOM      8  N   UNL     1      -1.507  -4.962   0.162  0.00  0.00    -0.342 N 
ATOM      9  H   UNL     1      -2.497  -4.783   0.009  0.00  0.00    +0.144 HD
ATOM     10  H   UNL     1      -1.159  -5.728  -0.404  0.00  0.00    +0.144 HD
ATOM     11  C   UNL     1       0.566  -3.668   0.011  0.00  0.00    +0.119 A 
ATOM     12 BR   UNL     1       1.657  -5.189   0.284  0.00  0.00    -0.041 Br
ENDROOT
BRANCH   4  13
ATOM     13  C   UNL     1      -3.090  -0.035  -0.143  0.00  0.00    +0.034 A 
ATOM     14  C   UNL     1      -3.437   1.319   0.029  0.00  0.00    +0.024 A 
ATOM     15  C   UNL     1      -4.693   1.684   0.542  0.00  0.00    +0.020 A 
ATOM     16  C   UNL     1      -5.635   0.709   0.870  0.00  0.00    +0.052 A 
ATOM     17  C   UNL     1      -5.315  -0.634   0.664  0.00  0.00    +0.020 A 
ATOM     18  C   UNL     1      -4.060  -0.991   0.152  0.00  0.00    +0.024 A 
BRANCH  16  19
ATOM     19  C   UNL     1      -6.914   1.069   1.422  0.00  0.00    +0.099 C 
ATOM     20  N   UNL     1      -7.945   1.354   1.870  0.00  0.00    -0.191 NA
ENDBRANCH  16  19
ENDBRANCH   4  13
BRANCH   1  21
ATOM     21  O   UNL     1       2.461  -2.230  -0.040  0.00  0.00    -0.436 OA
BRANCH  21  24
ATOM     22  C   UNL     1       1.601   0.859  -0.338  0.00  0.00    +0.047 C 
ATOM     23  C   UNL     1       2.875   0.259   0.170  0.00  0.00    -0.007 A 
ATOM     24  C   UNL     1       3.146  -1.107   0.405  0.00  0.00    +0.136 A 
ATOM     25  C   UNL     1       4.378  -1.426   1.061  0.00  0.00    -0.007 A 
ATOM     26  C   UNL     1       4.724  -2.832   1.490  0.00  0.00    +0.047 C 
ATOM     27  C   UNL     1       5.327  -0.422   1.362  0.00  0.00    +0.025 A 
ATOM     28  C   UNL     1       5.078   0.904   1.044  0.00  0.00    +0.052 A 
ATOM     29  C   UNL     1       3.859   1.231   0.468  0.00  0.00    +0.025 A 
BRANCH  28  30
ATOM     30  C   UNL     1       6.027   1.940   1.321  0.00  0.00    +0.099 C 
ATOM     31  N   UNL     1       6.768   2.809   1.533  0.00  0.00    -0.191 NA
ENDBRANCH  28  30
ENDBRANCH  21  24
ENDBRANCH   1  21
TORSDOF 5
