REMARK  Name = 
REMARK  5 active torsions:
REMARK  status: ('A' for Active; 'I' for Inactive)
REMARK    1  A    between atoms: O_1  and  C_2
REMARK    2  A    between atoms: C_2  and  C_4
REMARK    3  A    between atoms: C_4  and  N_5
REMARK    4  A    between atoms: C_6  and  C_8
REMARK    5  A    between atoms: C_8  and  C_9
REMARK                            x       y       z     vdW  Elec       q    Type
REMARK                         _______ _______ _______ _____ _____    ______ ____
ROOT
ATOM      1  C   UNL     1       6.978   1.433   1.157  0.00  0.00    +0.133 C 
ENDROOT
BRANCH   1   2
ATOM      2  C   UNL     1       7.713   2.519   1.875  0.00  0.00    -0.014 A 
ATOM      3  C   UNL     1       8.766   2.356   2.836  0.00  0.00    +0.003 A 
ATOM      4  C   UNL     1       9.443   1.242   3.374  0.00  0.00    +0.010 A 
ATOM      5  C   UNL     1      10.415   1.433   4.362  0.00  0.00    +0.001 A 
ATOM      6  C   UNL     1      10.724   2.713   4.814  0.00  0.00    +0.002 A 
ATOM      7  C   UNL     1      10.084   3.836   4.283  0.00  0.00    +0.026 A 
ATOM      8  C   UNL     1       9.115   3.626   3.294  0.00  0.00    +0.047 A 
ATOM      9  N   UNL     1       8.347   4.532   2.601  0.00  0.00    -0.360 N 
ATOM     10  H   UNL     1       8.402   5.534   2.720  0.00  0.00    +0.165 HD
ATOM     11  C   UNL     1       7.506   3.880   1.739  0.00  0.00    +0.087 A 
ENDBRANCH   1   2
BRANCH   1  14
ATOM     12  N   UNL     1       4.921   0.921   2.387  0.00  0.00    -0.305 N 
ATOM     13  H   UNL     1       4.628   1.855   2.123  0.00  0.00    +0.149 HD
ATOM     14  C   UNL     1       6.219   0.549   2.134  0.00  0.00    +0.218 C 
ATOM     15  O   UNL     1       6.721  -0.393   2.745  0.00  0.00    -0.275 OA
BRANCH  12  16
ATOM     16  C   UNL     1       4.098   0.195   3.345  0.00  0.00    +0.224 C 
BRANCH  16  17
ATOM     17  C   UNL     1       4.369   0.599   4.790  0.00  0.00    +0.322 C 
ATOM     18  O   UNL     1       3.487   0.911   5.578  0.00  0.00    -0.249 OA
BRANCH  17  19
ATOM     19  O   UNL     1       5.667   0.500   5.160  0.00  0.00    -0.480 OA
ATOM     20  H   UNL     1       6.243   0.141   4.444  0.00  0.00    +0.295 HD
ENDBRANCH  17  19
ENDBRANCH  16  17
ENDBRANCH  12  16
ENDBRANCH   1  14
TORSDOF 5
