REMARK  Name = 
REMARK  4 active torsions:
REMARK  status: ('A' for Active; 'I' for Inactive)
REMARK    1  A    between atoms: O_1  and  C_2
REMARK    2  A    between atoms: C_2  and  C_4
REMARK    3  A    between atoms: C_7  and  C_10
REMARK    4  A    between atoms: C_13  and  C_15
REMARK                            x       y       z     vdW  Elec       q    Type
REMARK                         _______ _______ _______ _____ _____    ______ ____
ROOT
ATOM      1  C   UNL     1       5.366   3.086   4.029  0.00  0.00    +0.136 A 
ATOM      2  O   UNL     1       6.268   2.434   4.814  0.00  0.00    -0.455 OA
ATOM      3  C   UNL     1       6.897   3.343   5.633  0.00  0.00    +0.130 A 
ATOM      4  C   UNL     1       6.406   4.600   5.310  0.00  0.00    +0.050 A 
ATOM      5  C   UNL     1       5.418   4.434   4.312  0.00  0.00    +0.050 A 
ENDROOT
BRANCH   3   6
ATOM      6  C   UNL     1       7.851   3.004   6.631  0.00  0.00    +0.066 C 
ATOM      7  C   UNL     1       7.785   1.875   7.347  0.00  0.00    +0.081 C 
ATOM      8  C   UNL     1       8.683   1.646   8.520  0.00  0.00    +0.257 C 
ATOM      9  O   UNL     1       9.645   2.338   8.814  0.00  0.00    -0.269 OA
ATOM     10  N   UNL     1       8.217   0.593   9.249  0.00  0.00    -0.261 N 
ATOM     11  H   UNL     1       8.616   0.349  10.140  0.00  0.00    +0.157 HD
ATOM     12  C   UNL     1       7.079   0.021   8.816  0.00  0.00    +0.158 C 
ATOM     13  N   UNL     1       6.424  -0.851   9.486  0.00  0.00    -0.279 NA
ATOM     14  H   UNL     1       5.589  -1.089   8.938  0.00  0.00    +0.189 HD
ATOM     15  S   UNL     1       6.592   0.623   7.280  0.00  0.00    -0.049 S 
ENDBRANCH   3   6
BRANCH   1  19
ATOM     16  C   UNL     1       3.190   0.757   1.165  0.00  0.00    +0.059 A 
ATOM     17  C   UNL     1       4.075   0.128   2.047  0.00  0.00    +0.015 A 
ATOM     18  C   UNL     1       4.768   0.879   3.005  0.00  0.00    +0.012 A 
ATOM     19  C   UNL     1       4.598   2.269   3.092  0.00  0.00    +0.017 A 
ATOM     20  C   UNL     1       3.690   2.882   2.215  0.00  0.00    +0.012 A 
ATOM     21  C   UNL     1       3.000   2.140   1.250  0.00  0.00    +0.015 A 
BRANCH  16  22
ATOM     22  C   UNL     1       2.534  -0.061   0.113  0.00  0.00    +0.337 C 
ATOM     23  O   UNL     1       3.039  -1.069  -0.351  0.00  0.00    -0.245 OA
BRANCH  22  24
ATOM     24  O   UNL     1       1.322   0.394  -0.265  0.00  0.00    -0.477 OA
ATOM     25  H   UNL     1       0.943   1.089   0.303  0.00  0.00    +0.295 HD
ENDBRANCH  22  24
ENDBRANCH  16  22
ENDBRANCH   1  19
TORSDOF 4
