REMARK  Name = 
REMARK  4 active torsions:
REMARK  status: ('A' for Active; 'I' for Inactive)
REMARK    1  A    between atoms: C_2  and  O_3
REMARK    2  A    between atoms: C_15  and  O_16
REMARK    3  A    between atoms: C_17  and  O_18
REMARK    4  A    between atoms: C_24  and  C_25
REMARK                            x       y       z     vdW  Elec       q    Type
REMARK                         _______ _______ _______ _____ _____    ______ ____
ROOT
ATOM      1  C   UNL     1       2.587  -1.070   1.340  0.00  0.00    +0.121 C 
ATOM      2  C   UNL     1       3.145  -1.040   2.844  0.00  0.00    -0.003 C 
ATOM      3  C   UNL     1       1.768  -1.389   3.531  0.00  0.00    +0.014 C 
ATOM      4  C   UNL     1       4.266   0.098   2.566  0.00  0.00    +0.001 C 
ATOM      5  C   UNL     1       4.104   1.272   3.497  0.00  0.00    +0.000 C 
ATOM      6  C   UNL     1       4.298   0.901   4.982  0.00  0.00    +0.023 C 
ATOM      7  C   UNL     1       3.709  -0.506   5.279  0.00  0.00    +0.009 C 
ATOM      8  C   UNL     1       3.801   2.127   5.782  0.00  0.00    -0.037 A 
ATOM      9  C   UNL     1       3.305   2.027   7.095  0.00  0.00    +0.053 A 
ATOM     10  C   UNL     1       2.807   3.169   7.739  0.00  0.00    +0.158 A 
ATOM     11  C   UNL     1       2.839   4.417   7.115  0.00  0.00    +0.158 A 
ATOM     12  C   UNL     1       3.351   4.554   5.836  0.00  0.00    +0.053 A 
ATOM     13  C   UNL     1       3.855   3.430   5.183  0.00  0.00    -0.040 A 
ATOM     14  C   UNL     1       4.373   3.674   3.785  0.00  0.00    +0.036 C 
ATOM     15  C   UNL     1       5.061   2.445   3.228  0.00  0.00    +0.009 C 
ATOM     16  C   UNL     1       4.285   0.453   1.074  0.00  0.00    +0.007 C 
ATOM     17  C   UNL     1       3.958  -1.592   4.083  0.00  0.00    +0.010 C 
ATOM     18  C   UNL     1       2.845   0.335   0.766  0.00  0.00    +0.032 C 
ENDROOT
BRANCH   1  19
ATOM     19  O   UNL     1       1.146  -1.119   1.207  0.00  0.00    -0.391 OA
ATOM     20  H   UNL     1       0.914  -1.407   0.312  0.00  0.00    +0.210 HD
ENDBRANCH   1  19
BRANCH  11  21
ATOM     21  O   UNL     1       2.319   5.520   7.736  0.00  0.00    -0.503 OA
ATOM     22  H   UNL     1       1.994   5.169   8.587  0.00  0.00    +0.292 HD
ENDBRANCH  11  21
BRANCH  10  23
ATOM     23  O   UNL     1       2.294   3.146   8.995  0.00  0.00    -0.503 OA
ATOM     24  H   UNL     1       2.389   2.227   9.316  0.00  0.00    +0.292 HD
ENDBRANCH  10  23
TORSDOF 3
