REMARK  Name = 
REMARK  11 active torsions:
REMARK  status: ('A' for Active; 'I' for Inactive)
REMARK    1  A    between atoms: C_2  and  O_3
REMARK    2  A    between atoms: C_2  and  C_4
REMARK    3  A    between atoms: C_2  and  C_27
REMARK    4  A    between atoms: C_4  and  O_5
REMARK    5  A    between atoms: O_5  and  C_6
REMARK    6  A    between atoms: C_9  and  N_10
REMARK    7  A    between atoms: C_13  and  N_14
REMARK    8  A    between atoms: N_14  and  C_15
REMARK    9  A    between atoms: C_27  and  N_28
REMARK   10  A    between atoms: N_28  and  C_29
REMARK   11  A    between atoms: N_28  and  C_30
REMARK                            x       y       z     vdW  Elec       q    Type
REMARK                         _______ _______ _______ _____ _____    ______ ____
ROOT
ATOM      1  N   UNL     1       3.653   1.023   7.657  0.00  0.00    -0.284 N 
ATOM      2  H   UNL     1       4.333   0.315   7.901  0.00  0.00    +0.155 HD
ATOM      3  C   UNL     1       3.554   1.992   8.656  0.00  0.00    +0.221 A 
ATOM      4  N   UNL     1       4.398   1.908   9.691  0.00  0.00    -0.221 NA
ATOM      5  C   UNL     1       4.342   2.913  10.595  0.00  0.00    +0.133 A 
ATOM      6  C   UNL     1       3.471   3.979  10.520  0.00  0.00    +0.076 A 
ATOM      7 BR   UNL     1       3.540   5.369  11.791  0.00  0.00    -0.045 Br
ATOM      8  C   UNL     1       2.562   3.935   9.484  0.00  0.00    +0.142 A 
ATOM      9  N   UNL     1       2.629   2.956   8.560  0.00  0.00    -0.198 NA
ENDROOT
BRANCH   1  13
ATOM     10  C   UNL     1       2.375   1.264   3.612  0.00  0.00    +0.121 A 
ATOM     11  C   UNL     1       2.677   0.030   4.190  0.00  0.00    +0.047 A 
ATOM     12  C   UNL     1       3.138  -0.043   5.520  0.00  0.00    +0.027 A 
ATOM     13  C   UNL     1       3.305   1.113   6.297  0.00  0.00    +0.034 A 
ATOM     14  C   UNL     1       3.014   2.336   5.692  0.00  0.00    +0.027 A 
ATOM     15  C   UNL     1       2.563   2.414   4.377  0.00  0.00    +0.047 A 
BRANCH  10  16
ATOM     16  O   UNL     1       1.901   1.260   2.316  0.00  0.00    -0.489 OA
BRANCH  16  17
ATOM     17  C   UNL     1       1.630   2.581   1.809  0.00  0.00    +0.261 C 
BRANCH  17  18
ATOM     18  C   UNL     1       1.145   2.562   0.358  0.00  0.00    +0.166 C 
BRANCH  18  19
ATOM     19  O   UNL     1      -0.106   1.863   0.270  0.00  0.00    -0.387 OA
ATOM     20  H   UNL     1       0.006   1.038   0.779  0.00  0.00    +0.210 HD
ENDBRANCH  18  19
BRANCH  18  21
ATOM     21  C   UNL     1       0.928   4.012  -0.145  0.00  0.00    +0.118 C 
BRANCH  21  22
ATOM     22  N   UNL     1       2.090   4.923  -0.050  0.00  0.00    -0.306 NA
ATOM     23  C   UNL     1       1.703   6.274  -0.466  0.00  0.00    +0.104 C 
ATOM     24  C   UNL     1       3.220   4.455  -0.853  0.00  0.00    +0.104 C 
ENDBRANCH  21  22
ENDBRANCH  18  21
ENDBRANCH  17  18
ENDBRANCH  16  17
ENDBRANCH  10  16
ENDBRANCH   1  13
BRANCH   8  25
ATOM     25  N   UNL     1       1.505   4.872   9.390  0.00  0.00    -0.298 N 
ATOM     26  H   UNL     1       1.839   5.828   9.404  0.00  0.00    +0.154 HD
BRANCH  25  27
ATOM     27  C   UNL     1       0.324   4.668   8.644  0.00  0.00    +0.032 A 
ATOM     28  C   UNL     1      -0.249   5.700   7.896  0.00  0.00    +0.023 A 
ATOM     29  C   UNL     1      -1.357   5.450   7.077  0.00  0.00    +0.002 A 
ATOM     30  C   UNL     1      -1.915   4.173   7.014  0.00  0.00    +0.000 A 
ATOM     31  C   UNL     1      -1.391   3.152   7.796  0.00  0.00    +0.002 A 
ATOM     32  C   UNL     1      -0.289   3.404   8.611  0.00  0.00    +0.023 A 
ENDBRANCH  25  27
ENDBRANCH   8  25
TORSDOF 9
