REMARK  Name = 
REMARK  7 active torsions:
REMARK  status: ('A' for Active; 'I' for Inactive)
REMARK    1  A    between atoms: C_1  and  O_2
REMARK    2  A    between atoms: O_2  and  C_3
REMARK    3  A    between atoms: C_8  and  C_10
REMARK    4  A    between atoms: C_17  and  C_18
REMARK    5  A    between atoms: C_19  and  C_20
REMARK    6  A    between atoms: C_20  and  C_21
REMARK    7  A    between atoms: C_21  and  O_22
REMARK                            x       y       z     vdW  Elec       q    Type
REMARK                         _______ _______ _______ _____ _____    ______ ____
ROOT
ATOM      1  C   UNL     1       3.185   1.225   0.044  0.00  0.00    +0.121 A 
ATOM      2  C   UNL     1       4.482   1.318   0.554  0.00  0.00    +0.056 A 
ATOM      3  C   UNL     1       5.134   2.567   0.626  0.00  0.00    +0.008 A 
ATOM      4  C   UNL     1       4.445   3.718   0.244  0.00  0.00    +0.057 A 
ATOM      5  N   UNL     1       5.227   4.827   0.598  0.00  0.00    -0.280 N 
ATOM      6  C   UNL     1       6.508   4.342   0.917  0.00  0.00    +0.028 A 
ATOM      7  C   UNL     1       7.684   5.212   1.253  0.00  0.00    +0.064 C 
ATOM      8  C   UNL     1       4.790   6.187   0.632  0.00  0.00    +0.263 C 
ATOM      9  O   UNL     1       5.643   7.063   0.493  0.00  0.00    -0.267 OA
ATOM     10  C   UNL     1       3.187   3.614  -0.381  0.00  0.00    +0.030 A 
ATOM     11  C   UNL     1       6.463   2.949   0.964  0.00  0.00    -0.008 A 
ATOM     12  C   UNL     1       2.563   2.362  -0.453  0.00  0.00    +0.048 A 
ENDROOT
BRANCH   8  13
ATOM     13  C   UNL     1       3.382   6.656   0.797  0.00  0.00    +0.040 A 
ATOM     14  C   UNL     1       3.013   7.878   0.212  0.00  0.00    +0.014 A 
ATOM     15  C   UNL     1       1.684   8.310   0.239  0.00  0.00    +0.015 A 
ATOM     16  C   UNL     1       0.716   7.523   0.860  0.00  0.00    +0.013 A 
ATOM     17  I   UNL     1      -1.285   8.068   0.746  0.00  0.00    -0.044 I 
ATOM     18  C   UNL     1       1.084   6.356   1.530  0.00  0.00    +0.015 A 
ATOM     19  C   UNL     1       2.421   5.939   1.526  0.00  0.00    +0.014 A 
ENDBRANCH   8  13
BRANCH   1  21
ATOM     20  C   UNL     1       1.318  -0.186  -0.374  0.00  0.00    +0.277 C 
ATOM     21  O   UNL     1       2.662  -0.037   0.065  0.00  0.00    -0.495 OA
ENDBRANCH   1  21
BRANCH  11  22
ATOM     22  C   UNL     1       7.579   2.014   1.364  0.00  0.00    +0.158 C 
BRANCH  22  23
ATOM     23  C   UNL     1       7.972   0.908   0.402  0.00  0.00    +0.309 C 
ATOM     24  O   UNL     1       8.757   0.024   0.729  0.00  0.00    -0.251 OA
BRANCH  23  25
ATOM     25  O   UNL     1       7.455   0.939  -0.842  0.00  0.00    -0.480 OA
ATOM     26  H   UNL     1       6.829   1.667  -1.013  0.00  0.00    +0.295 HD
ENDBRANCH  23  25
ENDBRANCH  22  23
ENDBRANCH  11  22
TORSDOF 5
