REMARK  Name = 
REMARK  4 active torsions:
REMARK  status: ('A' for Active; 'I' for Inactive)
REMARK    1  A    between atoms: N_1  and  S_2
REMARK    2  A    between atoms: S_2  and  C_5
REMARK    3  A    between atoms: N_9  and  S_10
REMARK    4  A    between atoms: S_10  and  C_13
REMARK                            x       y       z     vdW  Elec       q    Type
REMARK                         _______ _______ _______ _____ _____    ______ ____
ROOT
ATOM      1  C   UNL     1       3.035   5.111  -4.532  0.00  0.00    +0.256 A 
ATOM      2  S   UNL     1       3.361   3.653  -3.706  0.00  0.00    -0.009 S 
ATOM      3  C   UNL     1       4.825   4.379  -3.210  0.00  0.00    +0.202 A 
ATOM      4  N   UNL     1       5.797   3.764  -2.386  0.00  0.00    -0.192 N 
ATOM      5  H   UNL     1       6.386   4.470  -1.949  0.00  0.00    +0.176 HD
ATOM      6  N   UNL     1       4.974   5.634  -3.568  0.00  0.00    -0.123 NA
ATOM      7  N   UNL     1       3.948   6.052  -4.397  0.00  0.00    -0.119 NA
ENDROOT
BRANCH   1   8
ATOM      8  S   UNL     1       1.580   5.207  -5.512  0.00  0.00    +0.081 S 
ATOM      9  O   UNL     1       1.702   4.173  -6.514  0.00  0.00    -0.151 OA
ATOM     10  O   UNL     1       0.461   5.268  -4.602  0.00  0.00    -0.151 OA
BRANCH   8  11
ATOM     11  N   UNL     1       1.575   6.654  -6.386  0.00  0.00    -0.202 NA
ATOM     12  H   UNL     1       2.292   6.634  -7.112  0.00  0.00    +0.144 HD
ATOM     13  H   UNL     1       0.645   6.802  -6.780  0.00  0.00    +0.144 HD
ENDBRANCH   8  11
ENDBRANCH   1   8
BRANCH   4  14
ATOM     14  S   UNL     1       6.796   2.702  -3.255  0.00  0.00    +0.074 S 
ATOM     15  O   UNL     1       5.995   1.825  -4.079  0.00  0.00    -0.150 OA
ATOM     16  O   UNL     1       7.745   2.167  -2.298  0.00  0.00    -0.150 OA
BRANCH  14  17
ATOM     17  C   UNL     1       7.708   3.794  -4.334  0.00  0.00    +0.109 A 
ATOM     18  C   UNL     1       7.216   4.069  -5.615  0.00  0.00    +0.029 A 
ATOM     19  C   UNL     1       7.940   4.908  -6.465  0.00  0.00    +0.002 A 
ATOM     20  C   UNL     1       9.155   5.449  -6.042  0.00  0.00    +0.000 A 
ATOM     21  C   UNL     1       9.656   5.150  -4.773  0.00  0.00    +0.002 A 
ATOM     22  C   UNL     1       8.936   4.317  -3.916  0.00  0.00    +0.029 A 
ENDBRANCH  14  17
ENDBRANCH   4  14
TORSDOF 4
