REMARK  Name = 
REMARK  5 active torsions:
REMARK  status: ('A' for Active; 'I' for Inactive)
REMARK    1  A    between atoms: C_2  and  C_3
REMARK    2  A    between atoms: C_2  and  C_5
REMARK    3  A    between atoms: C_2  and  C_12
REMARK    4  A    between atoms: C_3  and  N_4
REMARK    5  A    between atoms: C_15  and  C_18
REMARK                            x       y       z     vdW  Elec       q    Type
REMARK                         _______ _______ _______ _____ _____    ______ ____
ROOT
ATOM      1  C   UNL     1       2.105  -0.145  -0.070  0.00  0.00    +0.062 C 
ENDROOT
BRANCH   1   2
ATOM      2  C   UNL     1       2.538  -1.011   1.121  0.00  0.00    -0.039 A 
ATOM      3  C   UNL     1       2.294  -2.397   1.138  0.00  0.00    +0.006 A 
ATOM      4  C   UNL     1       2.755  -3.192   2.188  0.00  0.00    +0.020 A 
ATOM      5  C   UNL     1       3.446  -2.607   3.242  0.00  0.00    +0.041 A 
ATOM      6 CL   UNL     1       4.036  -3.591   4.525  0.00  0.00    -0.084 Cl
ATOM      7  C   UNL     1       3.674  -1.233   3.259  0.00  0.00    +0.020 A 
ATOM      8  C   UNL     1       3.222  -0.436   2.203  0.00  0.00    +0.006 A 
ENDBRANCH   1   2
BRANCH   1   9
ATOM      9  C   UNL     1       2.773  -0.652  -1.353  0.00  0.00    -0.039 A 
ATOM     10  C   UNL     1       4.116  -0.324  -1.598  0.00  0.00    +0.005 A 
ATOM     11  C   UNL     1       4.832  -0.954  -2.621  0.00  0.00    +0.009 A 
ATOM     12  C   UNL     1       4.225  -1.929  -3.421  0.00  0.00    -0.015 A 
ATOM     13  C   UNL     1       2.863  -2.190  -3.241  0.00  0.00    +0.009 A 
ATOM     14  C   UNL     1       2.144  -1.557  -2.222  0.00  0.00    +0.005 A 
BRANCH  12  15
ATOM     15  C   UNL     1       5.026  -2.724  -4.336  0.00  0.00    +0.019 A 
ATOM     16  C   UNL     1       6.383  -3.117  -4.250  0.00  0.00    +0.142 A 
ATOM     17  N   UNL     1       6.757  -3.912  -5.255  0.00  0.00    -0.182 NA
ATOM     18  N   UNL     1       5.637  -4.045  -5.982  0.00  0.00    -0.284 N 
ATOM     19  H   UNL     1       5.668  -4.633  -6.807  0.00  0.00    +0.188 HD
ATOM     20  C   UNL     1       4.573  -3.353  -5.476  0.00  0.00    +0.113 A 
ENDBRANCH  12  15
ENDBRANCH   1   9
BRANCH   1  21
ATOM     21  C   UNL     1       0.558  -0.011  -0.164  0.00  0.00    +0.090 C 
BRANCH  21  22
ATOM     22  N   UNL     1      -0.076   0.614   1.005  0.00  0.00    -0.329 NA
ATOM     23  H   UNL     1       0.085   0.024   1.824  0.00  0.00    +0.118 HD
ATOM     24  H   UNL     1       0.378   1.502   1.210  0.00  0.00    +0.118 HD
ENDBRANCH  21  22
ENDBRANCH   1  21
TORSDOF 5
