REMARK  Name = 
REMARK  10 active torsions:
REMARK  status: ('A' for Active; 'I' for Inactive)
REMARK    1  A    between atoms: C_1  and  C_2
REMARK    2  A    between atoms: C_2  and  N_3
REMARK    3  A    between atoms: N_3  and  C_4
REMARK    4  A    between atoms: N_3  and  S_6
REMARK    5  A    between atoms: C_4  and  C_5
REMARK    6  A    between atoms: S_6  and  C_9
REMARK    7  A    between atoms: C_11  and  C_16
REMARK    8  A    between atoms: N_18  and  C_19
REMARK    9  A    between atoms: C_24  and  C_25
REMARK   10  A    between atoms: C_25  and  O_26
REMARK                            x       y       z     vdW  Elec       q    Type
REMARK                         _______ _______ _______ _____ _____    ______ ____
ROOT
ATOM      1  C   UNL     1       5.376   1.046   2.912  0.00  0.00    +0.120 A 
ATOM      2  C   UNL     1       5.973   0.178   3.834  0.00  0.00    +0.044 A 
ATOM      3 BR   UNL     1       6.251  -1.686   3.619  0.00  0.00    -0.048 Br
ATOM      4  C   UNL     1       6.440   0.695   5.047  0.00  0.00    +0.018 A 
ATOM      5  C   UNL     1       6.308   2.051   5.337  0.00  0.00    +0.014 A 
ATOM      6  C   UNL     1       5.707   2.928   4.427  0.00  0.00    +0.039 A 
ATOM      7  C   UNL     1       5.236   2.424   3.212  0.00  0.00    +0.042 A 
ENDROOT
BRANCH   6   8
ATOM      8  C   UNL     1       5.575   4.343   4.859  0.00  0.00    +0.248 C 
ATOM      9  N   UNL     1       5.509   5.330   3.889  0.00  0.00    -0.281 N 
ATOM     10  H   UNL     1       5.394   5.067   2.908  0.00  0.00    +0.155 HD
ATOM     11  O   UNL     1       5.531   4.541   6.071  0.00  0.00    -0.270 OA
BRANCH   9  12
ATOM     12  C   UNL     1       5.530   6.732   4.145  0.00  0.00    +0.048 A 
ATOM     13  C   UNL     1       5.121   7.656   3.158  0.00  0.00    +0.080 A 
ATOM     14  C   UNL     1       5.168   9.039   3.421  0.00  0.00    +0.017 A 
ATOM     15  C   UNL     1       5.579   9.509   4.668  0.00  0.00    +0.001 A 
ATOM     16  C   UNL     1       5.990   8.608   5.640  0.00  0.00    +0.002 A 
ATOM     17  C   UNL     1       5.982   7.238   5.372  0.00  0.00    +0.024 A 
BRANCH  13  18
ATOM     18  C   UNL     1       4.645   7.168   1.836  0.00  0.00    +0.339 C 
ATOM     19  O   UNL     1       5.021   6.109   1.355  0.00  0.00    -0.245 OA
BRANCH  18  20
ATOM     20  O   UNL     1       3.731   7.959   1.234  0.00  0.00    -0.477 OA
ATOM     21  H   UNL     1       3.347   8.662   1.790  0.00  0.00    +0.295 HD
ENDBRANCH  18  20
ENDBRANCH  13  18
ENDBRANCH   9  12
ENDBRANCH   6   8
BRANCH   1  22
ATOM     22  S   UNL     1       4.746   0.548   1.324  0.00  0.00    +0.062 S 
ATOM     23  O   UNL     1       4.895  -0.875   1.122  0.00  0.00    -0.153 OA
ATOM     24  O   UNL     1       3.451   1.177   1.180  0.00  0.00    -0.153 OA
BRANCH  22  25
ATOM     25  N   UNL     1       5.841   1.325   0.244  0.00  0.00    -0.177 NA
BRANCH  25  27
ATOM     26  C   UNL     1       8.224   1.663  -0.488  0.00  0.00    +0.022 C 
ATOM     27  C   UNL     1       7.256   0.857   0.362  0.00  0.00    +0.106 C 
ENDBRANCH  25  27
BRANCH  25  28
ATOM     28  C   UNL     1       5.319   1.437  -1.153  0.00  0.00    +0.106 C 
ATOM     29  C   UNL     1       5.133   0.095  -1.841  0.00  0.00    +0.022 C 
ENDBRANCH  25  28
ENDBRANCH  22  25
ENDBRANCH   1  22
TORSDOF 8
