REMARK  Name = 
REMARK  4 active torsions:
REMARK  status: ('A' for Active; 'I' for Inactive)
REMARK    1  A    between atoms: N_1  and  S_2
REMARK    2  A    between atoms: S_2  and  C_5
REMARK    3  A    between atoms: C_8  and  C_11
REMARK    4  A    between atoms: C_14  and  C_16
REMARK                            x       y       z     vdW  Elec       q    Type
REMARK                         _______ _______ _______ _____ _____    ______ ____
ROOT
ATOM      1  C   UNL     1       4.969  -5.388   1.719  0.00  0.00    +0.136 A 
ATOM      2  O   UNL     1       4.281  -6.489   1.308  0.00  0.00    -0.455 OA
ATOM      3  C   UNL     1       4.961  -7.621   1.687  0.00  0.00    +0.130 A 
ATOM      4  C   UNL     1       6.130  -7.209   2.312  0.00  0.00    +0.050 A 
ATOM      5  C   UNL     1       6.122  -5.792   2.356  0.00  0.00    +0.050 A 
ENDROOT
BRANCH   3   6
ATOM      6  C   UNL     1       4.495  -8.944   1.458  0.00  0.00    +0.066 C 
ATOM      7  C   UNL     1       3.199  -9.279   1.503  0.00  0.00    +0.081 C 
ATOM      8  C   UNL     1       2.761 -10.702   1.405  0.00  0.00    +0.257 C 
ATOM      9  O   UNL     1       3.484 -11.644   1.121  0.00  0.00    -0.269 OA
ATOM     10  N   UNL     1       1.442 -10.798   1.748  0.00  0.00    -0.261 N 
ATOM     11  H   UNL     1       0.980 -11.689   1.836  0.00  0.00    +0.157 HD
ATOM     12  C   UNL     1       0.828  -9.658   2.108  0.00  0.00    +0.158 C 
ATOM     13  N   UNL     1      -0.355  -9.612   2.590  0.00  0.00    -0.279 NA
ATOM     14  H   UNL     1      -0.558  -8.628   2.804  0.00  0.00    +0.189 HD
ATOM     15  S   UNL     1       1.834  -8.280   1.872  0.00  0.00    -0.049 S 
ENDBRANCH   3   6
BRANCH   1  19
ATOM     16  C   UNL     1       3.318  -1.616   0.595  0.00  0.00    +0.105 A 
ATOM     17  C   UNL     1       2.624  -2.788   0.294  0.00  0.00    +0.029 A 
ATOM     18  C   UNL     1       3.152  -4.020   0.690  0.00  0.00    +0.013 A 
ATOM     19  C   UNL     1       4.373  -4.097   1.383  0.00  0.00    +0.017 A 
ATOM     20  C   UNL     1       5.030  -2.901   1.713  0.00  0.00    +0.013 A 
ATOM     21  C   UNL     1       4.510  -1.663   1.324  0.00  0.00    +0.029 A 
BRANCH  16  22
ATOM     22  S   UNL     1       2.708  -0.064   0.011  0.00  0.00    +0.056 S 
ATOM     23  O   UNL     1       1.606  -0.289  -0.890  0.00  0.00    -0.153 OA
ATOM     24  O   UNL     1       2.638   0.852   1.125  0.00  0.00    -0.153 OA
BRANCH  22  25
ATOM     25  N   UNL     1       3.976   0.466  -0.959  0.00  0.00    -0.204 NA
ATOM     26  H   UNL     1       3.706   0.420  -1.941  0.00  0.00    +0.144 HD
ATOM     27  H   UNL     1       4.273   1.394  -0.656  0.00  0.00    +0.144 HD
ENDBRANCH  22  25
ENDBRANCH  16  22
ENDBRANCH   1  19
TORSDOF 4
