REMARK  Name = 
REMARK  9 active torsions:
REMARK  status: ('A' for Active; 'I' for Inactive)
REMARK    1  A    between atoms: C_2  and  C_3
REMARK    2  A    between atoms: C_2  and  C_15
REMARK    3  A    between atoms: C_2  and  C_21
REMARK    4  A    between atoms: C_3  and  C_4
REMARK    5  A    between atoms: C_6  and  N_12
REMARK    6  A    between atoms: C_9  and  O_10
REMARK    7  A    between atoms: O_10  and  C_11
REMARK    8  A    between atoms: C_24  and  O_25
REMARK    9  A    between atoms: O_25  and  C_26
REMARK                            x       y       z     vdW  Elec       q    Type
REMARK                         _______ _______ _______ _____ _____    ______ ____
ROOT
ATOM      1  C   UNL     1       2.086  -0.253   0.060  0.00  0.00    +0.074 C 
ENDROOT
BRANCH   1   2
ATOM      2  C   UNL     1       2.573  -0.676   1.426  0.00  0.00    +0.068 A 
ATOM      3  N   UNL     1       2.030  -0.060   2.542  0.00  0.00    -0.219 NA
ATOM      4  C   UNL     1       2.671  -0.531   3.576  0.00  0.00    +0.191 A 
ATOM      5  N   UNL     1       2.505  -0.188   4.856  0.00  0.00    -0.329 N 
ATOM      6  H   UNL     1       1.683   0.374   5.057  0.00  0.00    +0.145 HD
ATOM      7  H   UNL     1       2.760  -0.812   5.611  0.00  0.00    +0.145 HD
ATOM      8  N   UNL     1       3.603  -1.453   3.200  0.00  0.00    -0.333 N 
ATOM      9  H   UNL     1       4.242  -1.924   3.822  0.00  0.00    +0.168 HD
ATOM     10  C   UNL     1       3.548  -1.568   1.837  0.00  0.00    +0.109 A 
ENDBRANCH   1   2
BRANCH   1  11
ATOM     11  C   UNL     1       2.584  -1.205  -1.030  0.00  0.00    -0.035 A 
ATOM     12  C   UNL     1       2.210  -2.561  -1.002  0.00  0.00    +0.046 A 
ATOM     13  C   UNL     1       2.477  -3.402  -2.084  0.00  0.00    +0.165 A 
ATOM     14  F   UNL     1       2.074  -4.680  -2.014  0.00  0.00    -0.202 F 
ATOM     15  C   UNL     1       3.104  -2.927  -3.237  0.00  0.00    +0.155 A 
ATOM     16  C   UNL     1       3.539  -1.604  -3.254  0.00  0.00    +0.049 A 
ATOM     17  C   UNL     1       3.279  -0.757  -2.167  0.00  0.00    +0.008 A 
BRANCH  15  18
ATOM     18  O   UNL     1       3.225  -3.811  -4.274  0.00  0.00    -0.492 OA
ATOM     19  C   UNL     1       3.608  -3.272  -5.534  0.00  0.00    +0.277 C 
ENDBRANCH  15  18
ENDBRANCH   1  11
BRANCH   1  20
ATOM     20  C   UNL     1       2.244   1.277  -0.208  0.00  0.00    +0.053 C 
BRANCH  20  21
ATOM     21  C   UNL     1       3.577   2.002  -0.064  0.00  0.00    +0.002 A 
ATOM     22  C   UNL     1       3.682   3.406  -0.125  0.00  0.00    +0.124 A 
ATOM     23  C   UNL     1       4.902   4.036   0.188  0.00  0.00    +0.052 A 
ATOM     24  C   UNL     1       6.022   3.307   0.587  0.00  0.00    +0.088 A 
ATOM     25  C   UNL     1       5.932   1.921   0.634  0.00  0.00    +0.274 A 
ATOM     26  C   UNL     1       4.745   1.279   0.259  0.00  0.00    +0.091 A 
BRANCH  25  27
ATOM     27  N   UNL     1       7.048   1.122   1.162  0.00  0.00    +0.080 N 
ATOM     28  O   UNL     1       8.080   1.725   1.494  0.00  0.00    +0.041 OA
ATOM     29  O   UNL     1       6.890  -0.103   1.265  0.00  0.00    -0.576 OA
ENDBRANCH  25  27
BRANCH  22  30
ATOM     30  O   UNL     1       2.672   4.310  -0.324  0.00  0.00    -0.495 OA
ATOM     31  C   UNL     1       1.720   4.057  -1.347  0.00  0.00    +0.277 C 
ENDBRANCH  22  30
ENDBRANCH  20  21
ENDBRANCH   1  20
TORSDOF 7
