REMARK  Name = 
REMARK  10 active torsions:
REMARK  status: ('A' for Active; 'I' for Inactive)
REMARK    1  A    between atoms: O_1  and  B_2
REMARK    2  A    between atoms: B_2  and  O_3
REMARK    3  A    between atoms: B_2  and  C_4
REMARK    4  A    between atoms: C_6  and  N_7
REMARK    5  A    between atoms: N_7  and  S_8
REMARK    6  A    between atoms: S_8  and  C_11
REMARK    7  A    between atoms: C_13  and  S_16
REMARK    8  A    between atoms: S_16  and  C_19
REMARK    9  A    between atoms: C_25  and  C_28
REMARK   10  A    between atoms: C_28  and  O_29
REMARK                            x       y       z     vdW  Elec       q    Type
REMARK                         _______ _______ _______ _____ _____    ______ ____
ROOT
ATOM      1  N   UNL     1       6.205  -1.662   2.537  0.00  0.00    +0.000 N 
ATOM      2  H   UNL     1       5.649  -1.633   1.672  0.00  0.00    +0.000 HD
ENDROOT
BRANCH   1   7
ATOM      3  C   UNL     1       7.102  -4.615   4.620  0.00  0.00    +0.000 A 
ATOM      4  C   UNL     1       7.745  -5.417   3.682  0.00  0.00    +0.000 A 
ATOM      5  C   UNL     1       7.964  -4.969   2.382  0.00  0.00    +0.000 A 
ATOM      6  C   UNL     1       7.499  -3.709   1.955  0.00  0.00    +0.000 A 
ATOM      7  C   UNL     1       6.781  -2.911   2.896  0.00  0.00    +0.000 A 
ATOM      8  C   UNL     1       6.616  -3.362   4.221  0.00  0.00    +0.000 A 
BRANCH   6   9
ATOM      9  C   UNL     1       7.795  -3.242   0.552  0.00  0.00    +0.000 C 
ATOM     10  O   UNL     1       7.331  -2.194   0.139  0.00  0.00    +0.000 OA
BRANCH   9  11
ATOM     11  O   UNL     1       8.627  -3.913  -0.280  0.00  0.00    +0.000 OA
ATOM     12  H   UNL     1       9.135  -4.698  -0.047  0.00  0.00    +0.000 HD
ENDBRANCH   9  11
ENDBRANCH   6   9
BRANCH   3  13
ATOM     13  B   UNL     1       6.938  -5.145   6.102  0.00  0.00    +0.000 B 
BRANCH  13  14
ATOM     14  O   UNL     1       6.232  -4.353   7.106  0.00  0.00    +0.000 OA
ATOM     15  H   UNL     1       5.669  -5.012   7.588  0.00  0.00    +0.000 HD
ENDBRANCH  13  14
BRANCH  13  16
ATOM     16  O   UNL     1       7.558  -6.411   6.503  0.00  0.00    +0.000 OA
ATOM     17  H   UNL     1       8.173  -6.171   7.243  0.00  0.00    +0.000 HD
ENDBRANCH  13  16
ENDBRANCH   3  13
ENDBRANCH   1   7
BRANCH   1  18
ATOM     18  S   UNL     1       7.099  -0.181   2.831  0.00  0.00    +0.000 S 
ATOM     19  O   UNL     1       6.141   0.726   3.617  0.00  0.00    +0.000 OA
ATOM     20  O   UNL     1       7.163   0.513   1.461  0.00  0.00    +0.000 OA
BRANCH  18  21
ATOM     21  C   UNL     1       8.711  -0.357   3.575  0.00  0.00    +0.000 A 
ATOM     22  S   UNL     1       9.187   0.317   5.038  0.00  0.00    +0.000 S 
ATOM     23  C   UNL     1      10.727  -0.370   5.040  0.00  0.00    +0.000 A 
ATOM     24  C   UNL     1      10.869  -1.131   3.886  0.00  0.00    +0.000 A 
ATOM     25  C   UNL     1       9.744  -1.119   3.060  0.00  0.00    +0.000 A 
BRANCH  24  26
ATOM     26  S   UNL     1      12.319  -2.102   3.495  0.00  0.00    +0.000 S 
ATOM     27  O   UNL     1      13.459  -1.665   4.428  0.00  0.00    +0.000 OA
ATOM     28  O   UNL     1      12.875  -1.611   2.149  0.00  0.00    +0.000 OA
BRANCH  26  29
ATOM     29  C   UNL     1      12.269  -3.895   3.477  0.00  0.00    +0.000 A 
ATOM     30  C   UNL     1      13.385  -4.643   3.076  0.00  0.00    +0.000 A 
ATOM     31  C   UNL     1      13.330  -6.042   3.062  0.00  0.00    +0.000 A 
ATOM     32  C   UNL     1      12.159  -6.694   3.457  0.00  0.00    +0.000 A 
ATOM     33  C   UNL     1      11.055  -5.951   3.867  0.00  0.00    +0.000 A 
ATOM     34  C   UNL     1      11.099  -4.553   3.871  0.00  0.00    +0.000 A 
ENDBRANCH  26  29
ENDBRANCH  24  26
ENDBRANCH  18  21
ENDBRANCH   1  18
TORSDOF 10
