REMARK  Name = 
REMARK  7 active torsions:
REMARK  status: ('A' for Active; 'I' for Inactive)
REMARK    1  A    between atoms: C_2  and  N_3
REMARK    2  A    between atoms: C_2  and  C_4
REMARK    3  A    between atoms: C_2  and  C_22
REMARK    4  A    between atoms: C_4  and  O_5
REMARK    5  A    between atoms: O_5  and  C_6
REMARK    6  A    between atoms: C_10  and  C_16
REMARK    7  A    between atoms: C_22  and  C_23
REMARK                            x       y       z     vdW  Elec       q    Type
REMARK                         _______ _______ _______ _____ _____    ______ ____
ROOT
ATOM      1  O   UNL     1       1.860   1.481   2.114  0.00  0.00    -0.488 OA
ENDROOT
BRANCH   1   2
ATOM      2  C   UNL     1       2.284   1.530   3.437  0.00  0.00    +0.148 A 
ATOM      3  C   UNL     1       3.110   0.563   4.018  0.00  0.00    +0.157 A 
ATOM      4  N   UNL     1       3.556   0.589   5.293  0.00  0.00    -0.257 NA
ATOM      5  C   UNL     1       3.162   1.651   6.026  0.00  0.00    +0.139 A 
ATOM      6  C   UNL     1       2.353   2.686   5.598  0.00  0.00    +0.093 A 
ATOM      7  N   UNL     1       2.081   3.691   6.455  0.00  0.00    -0.245 NA
ATOM      8  C   UNL     1       1.283   4.706   6.054  0.00  0.00    +0.072 A 
ATOM      9  C   UNL     1       0.716   4.705   4.782  0.00  0.00    +0.029 A 
ATOM     10  C   UNL     1       1.020   3.669   3.886  0.00  0.00    +0.016 A 
ATOM     11  C   UNL     1       1.876   2.616   4.270  0.00  0.00    +0.045 A 
BRANCH   8  12
ATOM     12  C   UNL     1       1.145   5.829   7.013  0.00  0.00    +0.003 A 
ATOM     13  C   UNL     1       2.187   6.146   7.902  0.00  0.00    +0.030 A 
ATOM     14  C   UNL     1       2.083   7.266   8.714  0.00  0.00    +0.111 A 
ATOM     15  N   UNL     1       1.012   8.084   8.724  0.00  0.00    -0.263 NA
ATOM     16  C   UNL     1      -0.004   7.750   7.903  0.00  0.00    +0.111 A 
ATOM     17  C   UNL     1       0.012   6.653   7.053  0.00  0.00    +0.030 A 
ENDBRANCH   8  12
ENDBRANCH   1   2
BRANCH   1  18
ATOM     18  C   UNL     1       2.392   0.348   1.391  0.00  0.00    +0.247 C 
BRANCH  18  19
ATOM     19  C   UNL     1       1.969   0.246  -0.090  0.00  0.00    +0.093 C 
BRANCH  19  20
ATOM     20  N   UNL     1       2.445   1.390  -0.888  0.00  0.00    -0.324 NA
ATOM     21  H   UNL     1       2.076   1.329  -1.836  0.00  0.00    +0.119 HD
ATOM     22  H   UNL     1       2.098   2.257  -0.480  0.00  0.00    +0.119 HD
ENDBRANCH  19  20
BRANCH  19  23
ATOM     23  C   UNL     1       2.440  -1.131  -0.662  0.00  0.00    +0.059 C 
BRANCH  23  24
ATOM     24  C   UNL     1       3.932  -1.369  -0.700  0.00  0.00    -0.021 A 
ATOM     25  C   UNL     1       4.691  -2.379  -0.006  0.00  0.00    +0.003 A 
ATOM     26  C   UNL     1       4.375  -3.423   0.892  0.00  0.00    +0.010 A 
ATOM     27  C   UNL     1       5.395  -4.253   1.383  0.00  0.00    +0.001 A 
ATOM     28  C   UNL     1       6.719  -4.059   1.000  0.00  0.00    +0.002 A 
ATOM     29  C   UNL     1       7.063  -3.035   0.117  0.00  0.00    +0.026 A 
ATOM     30  C   UNL     1       6.031  -2.221  -0.370  0.00  0.00    +0.047 A 
ATOM     31  N   UNL     1       6.091  -1.164  -1.244  0.00  0.00    -0.360 N 
ATOM     32  H   UNL     1       6.940  -0.820  -1.670  0.00  0.00    +0.165 HD
ATOM     33  C   UNL     1       4.841  -0.662  -1.465  0.00  0.00    +0.087 A 
ENDBRANCH  23  24
ENDBRANCH  19  23
ENDBRANCH  18  19
ENDBRANCH   1  18
TORSDOF 7
