REMARK  Name = 
REMARK  8 active torsions:
REMARK  status: ('A' for Active; 'I' for Inactive)
REMARK    1  A    between atoms: C_1  and  C_2
REMARK    2  A    between atoms: C_2  and  O_3
REMARK    3  A    between atoms: O_3  and  C_4
REMARK    4  A    between atoms: C_7  and  C_8
REMARK    5  A    between atoms: C_8  and  C_9
REMARK    6  A    between atoms: C_9  and  N_10
REMARK    7  A    between atoms: N_10  and  C_11
REMARK    8  A    between atoms: C_11  and  N_13
REMARK                            x       y       z     vdW  Elec       q    Type
REMARK                         _______ _______ _______ _____ _____    ______ ____
ROOT
ATOM      1  N   UNL     1       6.017  -6.931  -0.679  0.00  0.00    -0.326 N 
ATOM      2  H   UNL     1       5.463  -7.514  -1.306  0.00  0.00    +0.148 HD
ENDROOT
BRANCH   1   3
ATOM      3  C   UNL     1       6.709  -7.667   0.238  0.00  0.00    +0.136 C 
ATOM      4  S   UNL     1       7.481  -7.090   1.602  0.00  0.00    -0.019 S 
BRANCH   3   5
ATOM      5  N   UNL     1       6.843  -9.002  -0.024  0.00  0.00    -0.282 N 
ATOM      6  H   UNL     1       7.514  -9.467   0.573  0.00  0.00    +0.155 HD
ATOM      7  C   UNL     1       6.080  -9.812  -0.873  0.00  0.00    +0.124 A 
ATOM      8  C   UNL     1       6.462 -11.143  -1.011  0.00  0.00    +0.045 A 
ATOM      9  C   UNL     1       5.677 -11.998  -1.786  0.00  0.00    +0.025 A 
ATOM     10  C   UNL     1       4.523 -11.504  -2.377  0.00  0.00    +0.059 A 
ATOM     11 CL   UNL     1       3.508 -12.525  -3.307  0.00  0.00    -0.082 Cl
ATOM     12  C   UNL     1       4.213 -10.167  -2.189  0.00  0.00    +0.132 A 
ATOM     13  N   UNL     1       4.977  -9.307  -1.469  0.00  0.00    -0.239 NA
ENDBRANCH   3   5
ENDBRANCH   1   3
BRANCH   1  14
ATOM     14  C   UNL     1       5.588  -5.536  -0.591  0.00  0.00    +0.109 C 
BRANCH  14  15
ATOM     15  C   UNL     1       6.710  -4.496  -0.655  0.00  0.00    +0.077 C 
BRANCH  15  20
ATOM     16  C   UNL     1       5.340  -1.236   0.735  0.00  0.00    +0.159 A 
ATOM     17  C   UNL     1       5.048  -0.582  -0.459  0.00  0.00    +0.068 A 
ATOM     18  C   UNL     1       5.320  -1.238  -1.653  0.00  0.00    +0.115 A 
ATOM     19  N   UNL     1       5.852  -2.476  -1.735  0.00  0.00    -0.257 NA
ATOM     20  C   UNL     1       6.144  -3.101  -0.566  0.00  0.00    +0.081 A 
ATOM     21  C   UNL     1       5.898  -2.515   0.674  0.00  0.00    +0.186 A 
ATOM     22  F   UNL     1       6.184  -3.180   1.803  0.00  0.00    -0.200 F 
BRANCH  16  23
ATOM     23  O   UNL     1       5.122  -0.730   1.991  0.00  0.00    -0.489 OA
BRANCH  23  25
ATOM     24  C   UNL     1       4.343   0.905   3.550  0.00  0.00    +0.048 C 
ATOM     25  C   UNL     1       4.522   0.561   2.082  0.00  0.00    +0.226 C 
ENDBRANCH  23  25
ENDBRANCH  16  23
ENDBRANCH  15  20
ENDBRANCH  14  15
ENDBRANCH   1  14
TORSDOF 7
