REMARK  Name = 
REMARK  13 active torsions:
REMARK  status: ('A' for Active; 'I' for Inactive)
REMARK    1  A    between atoms: C_2  and  N_3
REMARK    2  A    between atoms: C_2  and  C_4
REMARK    3  A    between atoms: C_2  and  C_11
REMARK    4  A    between atoms: C_4  and  C_5
REMARK    5  A    between atoms: C_11  and  O_13
REMARK    6  A    between atoms: C_11  and  C_14
REMARK    7  A    between atoms: C_14  and  C_15
REMARK    8  A    between atoms: C_15  and  C_17
REMARK    9  A    between atoms: C_15  and  C_21
REMARK   10  A    between atoms: C_17  and  C_18
REMARK   11  A    between atoms: C_18  and  C_19
REMARK   12  A    between atoms: C_18  and  C_20
REMARK   13  A    between atoms: C_21  and  O_22
REMARK                            x       y       z     vdW  Elec       q    Type
REMARK                         _______ _______ _______ _____ _____    ______ ____
ROOT
ATOM      1  C   UNL     1       2.724   0.171   1.511  0.00  0.00    +0.132 C 
ENDROOT
BRANCH   1   2
ATOM      2  O   UNL     1       1.965  -0.706   2.361  0.00  0.00    -0.390 OA
ATOM      3  H   UNL     1       1.030  -0.664   2.098  0.00  0.00    +0.210 HD
ENDBRANCH   1   2
BRANCH   1   4
ATOM      4  C   UNL     1       2.060   0.279   0.108  0.00  0.00    +0.080 C 
BRANCH   4   5
ATOM      5  N   UNL     1       1.814  -1.044  -0.489  0.00  0.00    -0.325 NA
ATOM      6  H   UNL     1       2.693  -1.434  -0.832  0.00  0.00    +0.119 HD
ATOM      7  H   UNL     1       1.502  -1.698   0.230  0.00  0.00    +0.119 HD
ENDBRANCH   4   5
BRANCH   4   8
ATOM      8  C   UNL     1       0.706   1.024   0.159  0.00  0.00    +0.024 C 
BRANCH   8   9
ATOM      9  C   UNL     1       0.800   2.499   0.627  0.00  0.00    -0.009 C 
ATOM     10  C   UNL     1      -0.595   3.138   0.713  0.00  0.00    +0.003 C 
ATOM     11  C   UNL     1      -1.231   3.337  -0.660  0.00  0.00    +0.000 C 
ATOM     12  C   UNL     1      -0.313   4.099  -1.616  0.00  0.00    +0.000 C 
ATOM     13  C   UNL     1       1.101   3.525  -1.675  0.00  0.00    +0.000 C 
ATOM     14  C   UNL     1       1.693   3.362  -0.279  0.00  0.00    +0.003 C 
ENDBRANCH   8   9
ENDBRANCH   4   8
ENDBRANCH   1   4
BRANCH   1  15
ATOM     15  C   UNL     1       4.150  -0.382   1.522  0.00  0.00    +0.047 C 
BRANCH  15  16
ATOM     16  C   UNL     1       5.199   0.395   0.711  0.00  0.00    +0.100 C 
BRANCH  16  17
ATOM     17  C   UNL     1       6.507  -0.386   0.752  0.00  0.00    +0.308 C 
ATOM     18  O   UNL     1       7.024  -0.867  -0.242  0.00  0.00    -0.251 OA
BRANCH  17  19
ATOM     19  O   UNL     1       7.056  -0.502   1.980  0.00  0.00    -0.480 OA
ATOM     20  H   UNL     1       6.550  -0.088   2.703  0.00  0.00    +0.295 HD
ENDBRANCH  17  19
ENDBRANCH  16  17
BRANCH  16  21
ATOM     21  C   UNL     1       5.415   1.866   1.133  0.00  0.00    +0.017 C 
BRANCH  21  22
ATOM     22  C   UNL     1       6.501   2.607   0.315  0.00  0.00    -0.016 C 
ATOM     23  C   UNL     1       6.754   4.013   0.871  0.00  0.00    +0.007 C 
ATOM     24  C   UNL     1       6.162   2.721  -1.177  0.00  0.00    +0.007 C 
ENDBRANCH  21  22
ENDBRANCH  16  21
ENDBRANCH  15  16
ENDBRANCH   1  15
TORSDOF 11
