REMARK  Name = 
REMARK  8 active torsions:
REMARK  status: ('A' for Active; 'I' for Inactive)
REMARK    1  A    between atoms: CA_2  and  N_3
REMARK    2  A    between atoms: CA_2  and  CB_16
REMARK    3  A    between atoms: CA_2  and  C_19
REMARK    4  A    between atoms: C_4  and  C_6
REMARK    5  A    between atoms: C_6  and  C_7
REMARK    6  A    between atoms: CB_16  and  CG1_17
REMARK    7  A    between atoms: CB_16  and  CG2_18
REMARK    8  A    between atoms: C_19  and  O_20
REMARK                            x       y       z     vdW  Elec       q    Type
REMARK                         _______ _______ _______ _____ _____    ______ ____
ROOT
ATOM      1  N   VAL A   1       0.483   0.036  -0.037  0.00  0.00    -0.302 N 
ATOM      2  H   VAL A   1       0.132  -0.463  -0.847  0.00  0.00    +0.150 HD
ATOM      3  C   UNK A   0      -0.291   1.063   0.451  0.00  0.00    +0.218 C 
ATOM      4  O   UNK A   0       0.127   1.797   1.344  0.00  0.00    -0.275 OA
ENDROOT
BRANCH   1   5
ATOM      5  CA  VAL A   1       1.885  -0.233   0.343  0.00  0.00    +0.184 C 
BRANCH   5   6
ATOM      6  CB  VAL A   1       2.864   0.928   0.032  0.00  0.00    +0.014 C 
ATOM      7  CG2 VAL A   1       2.748   1.399  -1.422  0.00  0.00    +0.009 C 
ATOM      8  CG1 VAL A   1       4.325   0.523   0.288  0.00  0.00    +0.009 C 
ENDBRANCH   5   6
BRANCH   5   9
ATOM      9  C   VAL A   1       2.025  -0.717   1.804  0.00  0.00    +0.326 C 
ATOM     10  OXT VAL A   1       2.771  -1.632   2.132  0.00  0.00    -0.249 OA
BRANCH   9  11
ATOM     11  O   VAL A   1       1.347  -0.001   2.728  0.00  0.00    -0.479 OA
ATOM     12  H   VAL A   1       0.900   0.795   2.349  0.00  0.00    +0.295 HD
ENDBRANCH   9  11
ENDBRANCH   5   9
ENDBRANCH   1   5
BRANCH   3  13
ATOM     13  C   UNK A   0      -1.716   1.115  -0.068  0.00  0.00    +0.133 C 
BRANCH  13  14
ATOM     14  C   UNK A   0      -1.864   1.836  -1.367  0.00  0.00    -0.014 A 
ATOM     15  C   UNK A   0      -1.602   3.222  -1.625  0.00  0.00    +0.003 A 
ATOM     16  C   UNK A   0      -1.957   3.476  -2.950  0.00  0.00    +0.047 A 
ATOM     17  C   UNK A   0      -1.842   4.741  -3.541  0.00  0.00    +0.026 A 
ATOM     18  C   UNK A   0      -1.345   5.782  -2.752  0.00  0.00    +0.002 A 
ATOM     19  C   UNK A   0      -0.986   5.564  -1.425  0.00  0.00    +0.001 A 
ATOM     20  N   UNK A   0      -2.421   2.296  -3.479  0.00  0.00    -0.360 N 
ATOM     21  H   UNK A   0      -2.774   2.192  -4.421  0.00  0.00    +0.165 HD
ATOM     22  C   UNK A   0      -1.113   4.294  -0.848  0.00  0.00    +0.010 A 
ATOM     23  C   UNK A   0      -2.368   1.302  -2.539  0.00  0.00    +0.087 A 
ENDBRANCH  13  14
ENDBRANCH   3  13
TORSDOF 6
