REMARK  Name = 
REMARK  11 active torsions:
REMARK  status: ('A' for Active; 'I' for Inactive)
REMARK    1  A    between atoms: C_2  and  C_3
REMARK    2  A    between atoms: C_2  and  C_16
REMARK    3  A    between atoms: C_2  and  C_19
REMARK    4  A    between atoms: C_3  and  P_4
REMARK    5  A    between atoms: P_4  and  O_5
REMARK    6  A    between atoms: P_4  and  C_7
REMARK    7  A    between atoms: C_7  and  C_8
REMARK    8  A    between atoms: C_8  and  C_9
REMARK    9  A    between atoms: C_9  and  C_10
REMARK   10  A    between atoms: C_16  and  O_17
REMARK   11  A    between atoms: C_21  and  N_22
REMARK                            x       y       z     vdW  Elec       q    Type
REMARK                         _______ _______ _______ _____ _____    ______ ____
ROOT
ATOM      1  C   UNL     1       4.837   0.938  -1.617  0.00  0.00    +0.137 C 
ENDROOT
BRANCH   1   2
ATOM      2  C   UNL     1       4.995   1.151  -0.084  0.00  0.00    -0.030 A 
ATOM      3  C   UNL     1       4.455   2.273   0.568  0.00  0.00    +0.004 A 
ATOM      4  C   UNL     1       4.497   2.396   1.958  0.00  0.00    +0.004 A 
ATOM      5  C   UNL     1       5.103   1.411   2.734  0.00  0.00    +0.042 A 
ATOM      6  C   UNL     1       5.682   0.292   2.134  0.00  0.00    +0.100 A 
ATOM      7  C   UNL     1       5.658   0.203   0.728  0.00  0.00    +0.046 A 
BRANCH   6   8
ATOM      8  N   UNL     1       6.316  -0.721   2.877  0.00  0.00    -0.244 N 
ATOM      9  H   UNL     1       6.265  -1.643   2.464  0.00  0.00    +0.265 HD
ATOM     10  C   UNL     1       6.747  -0.665   4.158  0.00  0.00    +0.381 C 
ATOM     11  N   UNL     1       7.291   0.333   4.755  0.00  0.00    -0.129 NA
ATOM     12  H   UNL     1       7.380   1.098   4.079  0.00  0.00    +0.306 HD
ATOM     13  N   UNL     1       6.607  -1.825   4.841  0.00  0.00    -0.289 N 
ATOM     14  H   UNL     1       6.917  -1.674   5.799  0.00  0.00    +0.255 HD
ATOM     15  H   UNL     1       5.651  -2.156   4.847  0.00  0.00    +0.255 HD
ENDBRANCH   6   8
ENDBRANCH   1   2
BRANCH   1  16
ATOM     16  C   UNL     1       4.556  -0.548  -2.020  0.00  0.00    +0.313 C 
ATOM     17  O   UNL     1       5.280  -1.481  -1.679  0.00  0.00    -0.250 OA
BRANCH  16  18
ATOM     18  O   UNL     1       3.514  -0.810  -2.840  0.00  0.00    -0.480 OA
ATOM     19  H   UNL     1       2.793  -0.140  -2.885  0.00  0.00    +0.295 HD
ENDBRANCH  16  18
ENDBRANCH   1  16
BRANCH   1  20
ATOM     20  C   UNL     1       3.929   1.986  -2.349  0.00  0.00    +0.116 C 
BRANCH  20  21
ATOM     21  P   UNL     1       2.033   1.942  -1.828  0.00  0.00    +0.203 P 
ATOM     22  O   UNL     1       1.436   0.974  -2.859  0.00  0.00    -0.291 OA
BRANCH  21  23
ATOM     23  O   UNL     1       2.455   0.564  -0.870  0.00  0.00    -0.344 OA
ATOM     24  H   UNL     1       1.670  -0.000  -0.697  0.00  0.00    +0.218 HD
ENDBRANCH  21  23
BRANCH  21  25
ATOM     25  C   UNL     1       1.586   3.399  -2.841  0.00  0.00    +0.097 C 
BRANCH  25  26
ATOM     26  C   UNL     1       0.067   3.585  -2.949  0.00  0.00    +0.014 C 
BRANCH  26  27
ATOM     27  C   UNL     1      -0.602   3.705  -1.576  0.00  0.00    +0.035 C 
BRANCH  27  28
ATOM     28  C   UNL     1      -2.104   3.756  -1.678  0.00  0.00    -0.047 A 
ATOM     29  C   UNL     1      -2.766   4.982  -1.807  0.00  0.00    +0.003 A 
ATOM     30  C   UNL     1      -4.157   5.024  -1.898  0.00  0.00    +0.000 A 
ATOM     31  C   UNL     1      -4.897   3.844  -1.868  0.00  0.00    +0.000 A 
ATOM     32  C   UNL     1      -4.249   2.618  -1.750  0.00  0.00    +0.000 A 
ATOM     33  C   UNL     1      -2.857   2.573  -1.659  0.00  0.00    +0.003 A 
ENDBRANCH  27  28
ENDBRANCH  26  27
ENDBRANCH  25  26
ENDBRANCH  21  25
ENDBRANCH  20  21
ENDBRANCH   1  20
TORSDOF 11
