REMARK  Name = 
REMARK  4 active torsions:
REMARK  status: ('A' for Active; 'I' for Inactive)
REMARK    1  A    between atoms: C_3  and  C_4
REMARK    2  A    between atoms: C_7  and  N_8
REMARK    3  A    between atoms: N_8  and  C_9
REMARK    4  A    between atoms: N_14  and  C_15
REMARK                            x       y       z     vdW  Elec       q    Type
REMARK                         _______ _______ _______ _____ _____    ______ ____
ROOT
ATOM      1  C   UNL     1       3.515  -2.978   4.890  0.00  0.00    +0.129 A 
ATOM      2  N   UNL     1       3.802  -4.155   5.491  0.00  0.00    -0.199 NA
ATOM      3  C   UNL     1       4.365  -4.123   6.712  0.00  0.00    +0.221 A 
ATOM      4  N   UNL     1       4.652  -5.357   7.291  0.00  0.00    -0.284 N 
ATOM      5  H   UNL     1       4.503  -6.108   6.635  0.00  0.00    +0.155 HD
ATOM      6  N   UNL     1       4.664  -2.983   7.350  0.00  0.00    -0.223 NA
ATOM      7  C   UNL     1       4.380  -1.830   6.733  0.00  0.00    +0.118 A 
ATOM      8  C   UNL     1       3.796  -1.769   5.497  0.00  0.00    +0.063 A 
ENDROOT
BRANCH   4   9
ATOM      9  C   UNL     1       4.959  -5.723   8.612  0.00  0.00    +0.036 A 
ATOM     10  C   UNL     1       4.855  -4.832   9.692  0.00  0.00    +0.025 A 
ATOM     11  C   UNL     1       5.209  -5.179  11.004  0.00  0.00    +0.029 A 
ATOM     12  C   UNL     1       5.685  -6.471  11.194  0.00  0.00    +0.066 A 
ATOM     13  N   UNL     1       6.120  -7.140  12.308  0.00  0.00    -0.344 N 
ATOM     14  H   UNL     1       6.170  -6.764  13.243  0.00  0.00    +0.167 HD
ATOM     15  C   UNL     1       6.477  -8.402  11.925  0.00  0.00    +0.197 A 
ATOM     16  N   UNL     1       6.305  -8.586  10.635  0.00  0.00    -0.236 NA
ATOM     17  C   UNL     1       5.808  -7.394  10.164  0.00  0.00    +0.091 A 
ATOM     18  C   UNL     1       5.450  -7.018   8.858  0.00  0.00    +0.053 A 
ENDBRANCH   4   9
BRANCH   1  19
ATOM     19  N   UNL     1       2.839  -2.948   3.646  0.00  0.00    -0.285 N 
ATOM     20  H   UNL     1       2.878  -2.046   3.185  0.00  0.00    +0.155 HD
BRANCH  19  23
ATOM     21  C   UNL     1       1.609  -5.481   1.490  0.00  0.00    +0.068 A 
ATOM     22  C   UNL     1       1.839  -4.103   1.686  0.00  0.00    +0.068 A 
ATOM     23  C   UNL     1       2.408  -4.016   2.935  0.00  0.00    +0.120 A 
ATOM     24  N   UNL     1       2.471  -5.304   3.398  0.00  0.00    -0.264 N 
ATOM     25  H   UNL     1       2.844  -5.599   4.295  0.00  0.00    +0.190 HD
ATOM     26  N   UNL     1       1.996  -6.220   2.534  0.00  0.00    -0.177 NA
BRANCH  21  28
ATOM     27  C   UNL     1       0.063  -7.250   0.361  0.00  0.00    +0.010 C 
ATOM     28  C   UNL     1       0.982  -6.052   0.227  0.00  0.00    +0.040 C 
ATOM     29  C   UNL     1       1.411  -7.426  -0.248  0.00  0.00    +0.010 C 
ENDBRANCH  21  28
ENDBRANCH  19  23
ENDBRANCH   1  19
TORSDOF 4
