REMARK  Name = 
REMARK  6 active torsions:
REMARK  status: ('A' for Active; 'I' for Inactive)
REMARK    1  A    between atoms: C_2  and  C_3
REMARK    2  A    between atoms: C_2  and  N_4
REMARK    3  A    between atoms: C_2  and  C_26
REMARK    4  A    between atoms: C_7  and  N_9
REMARK    5  A    between atoms: N_9  and  S_10
REMARK    6  A    between atoms: S_10  and  C_13
REMARK                            x       y       z     vdW  Elec       q    Type
REMARK                         _______ _______ _______ _____ _____    ______ ____
ROOT
ATOM      1  N   UNL     1       2.486   1.372   1.164  0.00  0.00    -0.289 N 
ATOM      2  C   UNL     1       3.760   1.713   1.604  0.00  0.00    +0.235 C 
ATOM      3  O   UNL     1       4.669   0.926   1.824  0.00  0.00    -0.274 OA
ATOM      4  C   UNL     1       3.866   3.241   1.696  0.00  0.00    +0.164 C 
ATOM      5  C   UNL     1       2.575   3.709   1.027  0.00  0.00    +0.049 C 
ATOM      6  C   UNL     1       1.637   2.529   1.060  0.00  0.00    +0.110 C 
ENDROOT
BRANCH   1   7
ATOM      7  C   UNL     1       2.211   0.161   0.366  0.00  0.00    +0.159 C 
ATOM      8  C   UNL     1       2.828   0.281  -1.033  0.00  0.00    +0.038 C 
BRANCH   7   9
ATOM      9  C   UNL     1       2.606  -1.193   1.014  0.00  0.00    +0.236 C 
ATOM     10  N   UNL     1       2.219  -1.458   2.314  0.00  0.00    -0.296 N 
ATOM     11  C   UNL     1       1.259  -0.703   3.118  0.00  0.00    +0.136 C 
ATOM     12  C   UNL     1       1.824  -0.454   4.519  0.00  0.00    +0.179 C 
ATOM     13  O   UNL     1       2.200  -1.689   5.148  0.00  0.00    -0.377 OA
ATOM     14  C   UNL     1       3.199  -2.371   4.369  0.00  0.00    +0.179 C 
ATOM     15  C   UNL     1       2.682  -2.686   2.961  0.00  0.00    +0.136 C 
ATOM     16  O   UNL     1       3.151  -2.071   0.334  0.00  0.00    -0.274 OA
ENDBRANCH   7   9
ENDBRANCH   1   7
BRANCH   4  17
ATOM     17  N   UNL     1       5.042   3.658   0.914  0.00  0.00    -0.178 NA
ATOM     18  H   UNL     1       5.368   3.028   0.180  0.00  0.00    +0.149 HD
BRANCH  17  19
ATOM     19  S   UNL     1       5.431   5.256   0.662  0.00  0.00    +0.059 S 
ATOM     20  O   UNL     1       4.218   6.043   0.694  0.00  0.00    -0.153 OA
ATOM     21  O   UNL     1       6.318   5.278  -0.482  0.00  0.00    -0.153 OA
BRANCH  19  22
ATOM     22  C   UNL     1       6.394   5.667   2.090  0.00  0.00    +0.106 A 
ATOM     23  C   UNL     1       5.888   6.565   3.034  0.00  0.00    +0.029 A 
ATOM     24  C   UNL     1       6.670   6.917   4.134  0.00  0.00    +0.010 A 
ATOM     25  C   UNL     1       7.957   6.384   4.297  0.00  0.00    -0.016 A 
ATOM     26  C   UNL     1       8.474   5.492   3.322  0.00  0.00    -0.016 A 
ATOM     27  C   UNL     1       9.769   4.973   3.484  0.00  0.00    +0.010 A 
ATOM     28  C   UNL     1      10.540   5.316   4.597  0.00  0.00    +0.020 A 
ATOM     29  C   UNL     1      10.023   6.183   5.555  0.00  0.00    +0.042 A 
ATOM     30 CL   UNL     1      10.967   6.595   6.933  0.00  0.00    -0.084 Cl
ATOM     31  C   UNL     1       8.744   6.719   5.408  0.00  0.00    +0.028 A 
ATOM     32  C   UNL     1       7.681   5.142   2.220  0.00  0.00    +0.037 A 
ENDBRANCH  19  22
ENDBRANCH  17  19
ENDBRANCH   4  17
TORSDOF 5
