REMARK  Name = 
REMARK  8 active torsions:
REMARK  status: ('A' for Active; 'I' for Inactive)
REMARK    1  A    between atoms: O_1  and  C_2
REMARK    2  A    between atoms: C_2  and  C_4
REMARK    3  A    between atoms: C_4  and  O_5
REMARK    4  A    between atoms: O_5  and  C_6
REMARK    5  A    between atoms: C_7  and  C_19
REMARK    6  A    between atoms: C_9  and  C_12
REMARK    7  A    between atoms: C_15  and  O_16
REMARK    8  A    between atoms: C_19  and  O_20
REMARK                            x       y       z     vdW  Elec       q    Type
REMARK                         _______ _______ _______ _____ _____    ______ ____
ROOT
ATOM      1  C   UNL     1       5.556  -0.583   2.201  0.00  0.00    +0.157 A 
ATOM      2  C   UNL     1       5.908  -1.947   2.475  0.00  0.00    +0.075 A 
ATOM      3 BR   UNL     1       5.509  -3.370   1.274  0.00  0.00    -0.045 Br
ATOM      4  C   UNL     1       6.624  -2.105   3.652  0.00  0.00    +0.038 A 
ATOM      5  S   UNL     1       6.980  -0.560   4.325  0.00  0.00    -0.077 S 
ATOM      6  C   UNL     1       6.193   0.287   3.067  0.00  0.00    +0.139 A 
ENDROOT
BRANCH   4   7
ATOM      7  C   UNL     1       7.089  -3.319   4.360  0.00  0.00    -0.010 A 
ATOM      8  C   UNL     1       8.341  -3.363   5.000  0.00  0.00    +0.012 A 
ATOM      9  C   UNL     1       8.750  -4.497   5.709  0.00  0.00    +0.046 A 
ATOM     10  C   UNL     1       7.925  -5.611   5.764  0.00  0.00    +0.117 A 
ATOM     11  C   UNL     1       6.694  -5.609   5.125  0.00  0.00    +0.046 A 
ATOM     12  C   UNL     1       6.275  -4.462   4.441  0.00  0.00    +0.012 A 
BRANCH  10  13
ATOM     13  O   UNL     1       8.362  -6.690   6.472  0.00  0.00    -0.507 OA
ATOM     14  H   UNL     1       7.660  -7.362   6.482  0.00  0.00    +0.292 HD
ENDBRANCH  10  13
ENDBRANCH   4   7
BRANCH   6  15
ATOM     15  C   UNL     1       6.217   1.740   3.004  0.00  0.00    +0.347 C 
ATOM     16  O   UNL     1       5.583   2.420   2.207  0.00  0.00    -0.244 OA
BRANCH  15  17
ATOM     17  O   UNL     1       7.047   2.308   3.919  0.00  0.00    -0.477 OA
ATOM     18  H   UNL     1       7.499   1.647   4.480  0.00  0.00    +0.295 HD
ENDBRANCH  15  17
ENDBRANCH   6  15
BRANCH   1  19
ATOM     19  O   UNL     1       4.813  -0.078   1.175  0.00  0.00    -0.478 OA
BRANCH  19  20
ATOM     20  C   UNL     1       3.558  -0.732   0.978  0.00  0.00    +0.349 C 
BRANCH  20  21
ATOM     21  C   UNL     1       2.488   0.227   0.472  0.00  0.00    +0.343 C 
ATOM     22  O   UNL     1       1.361  -0.136   0.164  0.00  0.00    -0.247 OA
BRANCH  21  23
ATOM     23  O   UNL     1       2.890   1.513   0.399  0.00  0.00    -0.478 OA
ATOM     24  H   UNL     1       3.819   1.637   0.702  0.00  0.00    +0.295 HD
ENDBRANCH  21  23
ENDBRANCH  20  21
ENDBRANCH  19  20
ENDBRANCH   1  19
TORSDOF 8
