REMARK  Name = 
REMARK  7 active torsions:
REMARK  status: ('A' for Active; 'I' for Inactive)
REMARK    1  A    between atoms: C_1  and  C_2
REMARK    2  A    between atoms: N_5  and  C_8
REMARK    3  A    between atoms: C_11  and  C_12
REMARK    4  A    between atoms: C_12  and  O_13
REMARK    5  A    between atoms: C_15  and  N_16
REMARK    6  A    between atoms: C_17  and  C_19
REMARK    7  A    between atoms: C_22  and  C_24
REMARK                            x       y       z     vdW  Elec       q    Type
REMARK                         _______ _______ _______ _____ _____    ______ ____
ROOT
ATOM      1  C   UNL     1       3.920  -1.182  -3.663  0.00  0.00    +0.051 A 
ATOM      2  C   UNL     1       3.987  -2.525  -4.113  0.00  0.00    +0.055 A 
ATOM      3  C   UNL     1       4.631  -2.858  -5.321  0.00  0.00    +0.031 A 
ATOM      4  C   UNL     1       5.201  -1.875  -6.133  0.00  0.00    -0.020 A 
ATOM      5  C   UNL     1       5.143  -0.550  -5.703  0.00  0.00    +0.008 A 
ATOM      6  C   UNL     1       4.522  -0.215  -4.492  0.00  0.00    +0.025 A 
ENDROOT
BRANCH   1  11
ATOM      7  C   UNL     1       3.794   0.979   0.834  0.00  0.00    +0.007 C 
ATOM      8  C   UNL     1       2.634   0.171   0.244  0.00  0.00    -0.011 C 
ATOM      9  C   UNL     1       3.036  -1.285  -0.029  0.00  0.00    +0.022 C 
ATOM     10  C   UNL     1       3.960  -1.425  -1.246  0.00  0.00    +0.105 C 
ATOM     11  N   UNL     1       3.291  -0.839  -2.432  0.00  0.00    -0.328 N 
ATOM     12  C   UNL     1       2.999   0.600  -2.242  0.00  0.00    +0.105 C 
ATOM     13  C   UNL     1       2.081   0.804  -1.039  0.00  0.00    +0.022 C 
ENDBRANCH   1  11
BRANCH   2  14
ATOM     14  N   UNL     1       3.314  -3.545  -3.403  0.00  0.00    -0.277 N 
ATOM     15  H   UNL     1       2.554  -3.241  -2.803  0.00  0.00    +0.155 HD
ATOM     16  C   UNL     1       3.859  -4.800  -3.181  0.00  0.00    +0.284 C 
ATOM     17  O   UNL     1       5.018  -5.099  -3.462  0.00  0.00    -0.266 OA
BRANCH  16  18
ATOM     18  C   UNL     1       2.970  -5.752  -2.543  0.00  0.00    +0.191 A 
ATOM     19  O   UNL     1       1.626  -5.497  -2.456  0.00  0.00    -0.440 OA
ATOM     20  C   UNL     1       1.050  -6.613  -1.930  0.00  0.00    +0.205 A 
ATOM     21  C   UNL     1       1.997  -7.565  -1.632  0.00  0.00    +0.061 A 
ATOM     22  C   UNL     1       3.234  -7.006  -2.023  0.00  0.00    +0.056 A 
BRANCH  20  23
ATOM     23  C   UNL     1      -0.365  -6.628  -1.800  0.00  0.00    +0.138 C 
ATOM     24  N   UNL     1      -1.519  -6.667  -1.693  0.00  0.00    -0.188 NA
ENDBRANCH  20  23
ENDBRANCH  16  18
ENDBRANCH   2  14
BRANCH   4  25
ATOM     25  C   UNL     1       5.855  -2.227  -7.440  0.00  0.00    +0.191 C 
BRANCH  25  26
ATOM     26  O   UNL     1       5.170  -1.604  -8.520  0.00  0.00    -0.390 OA
ATOM     27  H   UNL     1       4.229  -1.829  -8.421  0.00  0.00    +0.210 HD
ENDBRANCH  25  26
ENDBRANCH   4  25
TORSDOF 6
