REMARK  Name = 
REMARK  1 active torsions:
REMARK  status: ('A' for Active; 'I' for Inactive)
REMARK    1  A    between atoms: C_8  and  C_11
REMARK                            x       y       z     vdW  Elec       q    Type
REMARK                         _______ _______ _______ _____ _____    ______ ____
ROOT
ATOM      1  N   UNL     1       1.197   0.099   0.204  0.00  0.00    -0.341 N 
ATOM      2  H   UNL     1       0.649  -0.723  -0.009  0.00  0.00    +0.144 HD
ATOM      3  H   UNL     1       0.737   0.981   0.015  0.00  0.00    +0.144 HD
ATOM      4  C   UNL     1       2.534   0.084   0.150  0.00  0.00    +0.146 A 
ATOM      5  C   UNL     1       3.333  -1.090   0.122  0.00  0.00    +0.041 A 
ATOM      6  C   UNL     1       4.640  -0.625   0.071  0.00  0.00    +0.068 A 
ATOM      7  C   UNL     1       5.747  -1.472   0.031  0.00  0.00    +0.028 A 
ATOM      8  C   UNL     1       5.491  -2.852   0.020  0.00  0.00    +0.010 A 
ATOM      9  C   UNL     1       4.190  -3.391   0.067  0.00  0.00    -0.017 A 
ATOM     10  N   UNL     1       4.532   0.739   0.070  0.00  0.00    -0.275 N 
ATOM     11  H   UNL     1       5.284   1.417   0.040  0.00  0.00    +0.189 HD
ATOM     12  C   UNL     1       3.108  -2.484   0.136  0.00  0.00    +0.022 A 
ATOM     13  N   UNL     1       3.268   1.194   0.103  0.00  0.00    -0.158 NA
ENDROOT
BRANCH   9  14
ATOM     14  C   UNL     1       3.962  -4.859   0.023  0.00  0.00    -0.018 A 
ATOM     15  C   UNL     1       2.832  -5.408  -0.614  0.00  0.00    +0.008 A 
ATOM     16  C   UNL     1       2.623  -6.790  -0.678  0.00  0.00    +0.001 A 
ATOM     17  C   UNL     1       3.549  -7.662  -0.115  0.00  0.00    +0.000 A 
ATOM     18  C   UNL     1       4.674  -7.151   0.522  0.00  0.00    +0.001 A 
ATOM     19  C   UNL     1       4.871  -5.767   0.597  0.00  0.00    +0.008 A 
ENDBRANCH   9  14
TORSDOF 1
