REMARK  Name = 
REMARK  3 active torsions:
REMARK  status: ('A' for Active; 'I' for Inactive)
REMARK    1  A    between atoms: C_2  and  C_14
REMARK    2  A    between atoms: N_4  and  C_5
REMARK    3  A    between atoms: N_16  and  C_17
REMARK                            x       y       z     vdW  Elec       q    Type
REMARK                         _______ _______ _______ _____ _____    ______ ____
ROOT
ATOM      1  C   UNL     1       1.800   0.165  -0.109  0.00  0.00    +0.101 C 
ATOM      2  C   UNL     1       2.122  -1.140   0.612  0.00  0.00    +0.110 C 
ATOM      3  C   UNL     1       3.327  -0.814   1.458  0.00  0.00    +0.217 C 
ATOM      4  O   UNL     1       3.830  -1.581   2.256  0.00  0.00    -0.276 OA
ATOM      5  N   UNL     1       3.777   0.450   1.075  0.00  0.00    -0.298 N 
ATOM      6  C   UNL     1       2.663   1.209   0.557  0.00  0.00    +0.121 C 
ENDROOT
BRANCH   5   7
ATOM      7  C   UNL     1       5.067   1.054   1.475  0.00  0.00    +0.076 C 
ATOM      8  C   UNL     1       5.545   2.115   0.461  0.00  0.00    +0.022 C 
ATOM      9  C   UNL     1       5.713   1.511  -0.936  0.00  0.00    +0.002 C 
ATOM     10  C   UNL     1       6.571   0.245  -0.961  0.00  0.00    +0.000 C 
ATOM     11  C   UNL     1       6.333  -0.722   0.196  0.00  0.00    +0.002 C 
ATOM     12  C   UNL     1       6.194   0.002   1.537  0.00  0.00    +0.022 C 
ENDBRANCH   5   7
BRANCH   1  13
ATOM     13  C   UNL     1       1.988   0.221  -1.628  0.00  0.00    +0.222 C 
ATOM     14  N   UNL     1       3.086  -0.411  -2.181  0.00  0.00    -0.285 N 
ATOM     15  H   UNL     1       3.593  -1.081  -1.615  0.00  0.00    +0.155 HD
ATOM     16  O   UNL     1       1.184   0.898  -2.271  0.00  0.00    -0.275 OA
BRANCH  14  17
ATOM     17  C   UNL     1       3.539  -0.269  -3.523  0.00  0.00    +0.034 A 
ATOM     18  C   UNL     1       4.449  -1.210  -4.021  0.00  0.00    +0.038 A 
ATOM     19  C   UNL     1       4.893  -1.132  -5.347  0.00  0.00    +0.020 A 
ATOM     20 BR   UNL     1       6.066  -2.452  -6.026  0.00  0.00    -0.050 Br
ATOM     21  C   UNL     1       4.470  -0.102  -6.183  0.00  0.00    +0.015 A 
ATOM     22  C   UNL     1       3.603   0.863  -5.681  0.00  0.00    +0.003 A 
ATOM     23  C   UNL     1       3.143   0.781  -4.361  0.00  0.00    +0.023 A 
ENDBRANCH  14  17
ENDBRANCH   1  13
TORSDOF 3
