REMARK  Name = 
REMARK  14 active torsions:
REMARK  status: ('A' for Active; 'I' for Inactive)
REMARK    1  A    between atoms: C_2  and  C_32
REMARK    2  A    between atoms: C_4  and  C_5
REMARK    3  A    between atoms: C_4  and  C_29
REMARK    4  A    between atoms: C_5  and  C_6
REMARK    5  A    between atoms: C_6  and  C_7
REMARK    6  A    between atoms: C_6  and  C_8
REMARK    7  A    between atoms: C_10  and  C_12
REMARK    8  A    between atoms: C_15  and  C_18
REMARK    9  A    between atoms: C_18  and  C_19
REMARK   10  A    between atoms: C_18  and  C_20
REMARK   11  A    between atoms: C_18  and  C_21
REMARK   12  A    between atoms: C_22  and  C_24
REMARK   13  A    between atoms: C_29  and  O_30
REMARK   14  A    between atoms: C_32  and  O_33
REMARK                            x       y       z     vdW  Elec       q    Type
REMARK                         _______ _______ _______ _____ _____    ______ ____
ROOT
ATOM      1  C   UNL     1       2.113   0.268  -0.007  0.00  0.00    +0.127 C 
ATOM      2  C   UNL     1       2.406  -1.029   0.776  0.00  0.00    +0.147 C 
ATOM      3  N   UNL     1       3.707  -0.771   1.458  0.00  0.00    -0.271 N 
ATOM      4  C   UNL     1       4.601  -1.709   1.986  0.00  0.00    +0.248 C 
ATOM      5  O   UNL     1       5.706  -1.328   2.390  0.00  0.00    -0.270 OA
ATOM      6  C   UNL     1       4.073   0.700   1.357  0.00  0.00    +0.136 C 
ATOM      7  C   UNL     1       2.743   1.330   0.868  0.00  0.00    +0.054 C 
ENDROOT
BRANCH   4   8
ATOM      8  C   UNL     1       4.291  -3.160   2.194  0.00  0.00    +0.037 A 
ATOM      9  C   UNL     1       4.821  -3.793   3.330  0.00  0.00    +0.013 A 
ATOM     10  C   UNL     1       4.575  -5.155   3.593  0.00  0.00    +0.005 A 
ATOM     11  C   UNL     1       3.764  -5.928   2.745  0.00  0.00    -0.042 A 
ATOM     12  C   UNL     1       3.298  -5.297   1.583  0.00  0.00    +0.005 A 
ATOM     13  C   UNL     1       3.590  -3.953   1.294  0.00  0.00    +0.013 A 
BRANCH  11  14
ATOM     14  C   UNL     1       3.422  -7.394   3.077  0.00  0.00    -0.013 C 
ATOM     15  C   UNL     1       2.850  -7.503   4.508  0.00  0.00    +0.015 C 
ATOM     16  C   UNL     1       4.687  -8.269   2.976  0.00  0.00    +0.015 C 
ATOM     17  C   UNL     1       2.358  -8.003   2.132  0.00  0.00    +0.015 C 
ENDBRANCH  11  14
ENDBRANCH   4   8
BRANCH   2  18
ATOM     18  C   UNL     1       1.318  -1.367   1.769  0.00  0.00    +0.099 A 
ATOM     19  S   UNL     1       0.306  -2.743   1.506  0.00  0.00    -0.079 S 
ATOM     20  C   UNL     1      -0.740  -2.196   2.742  0.00  0.00    +0.066 A 
ATOM     21  C   UNL     1      -0.211  -1.069   3.331  0.00  0.00    +0.119 A 
ATOM     22  N   UNL     1       0.971  -0.604   2.785  0.00  0.00    -0.250 NA
ENDBRANCH   2  18
BRANCH   1  23
ATOM     23  C   UNL     1       0.658   0.467  -0.369  0.00  0.00    +0.310 C 
ATOM     24  O   UNL     1      -0.052  -0.443  -0.779  0.00  0.00    -0.251 OA
BRANCH  23  25
ATOM     25  O   UNL     1       0.200   1.736  -0.329  0.00  0.00    -0.480 OA
ATOM     26  H   UNL     1       0.812   2.427  -0.006  0.00  0.00    +0.295 HD
ENDBRANCH  23  25
ENDBRANCH   1  23
BRANCH   6  27
ATOM     27  C   UNL     1       4.389   1.405   2.714  0.00  0.00    +0.329 C 
ATOM     28  O   UNL     1       3.871   2.470   3.058  0.00  0.00    -0.249 OA
BRANCH  27  29
ATOM     29  O   UNL     1       5.370   0.858   3.460  0.00  0.00    -0.479 OA
ATOM     30  H   UNL     1       5.721   0.015   3.084  0.00  0.00    +0.295 HD
ENDBRANCH  27  29
ENDBRANCH   6  27
BRANCH   6  31
ATOM     31  C   UNL     1       5.220   0.889   0.302  0.00  0.00    +0.040 C 
BRANCH  31  32
ATOM     32  C   UNL     1       5.528   2.308  -0.248  0.00  0.00    -0.015 C 
ATOM     33  C   UNL     1       6.477   2.222  -1.454  0.00  0.00    +0.007 C 
ATOM     34  C   UNL     1       6.156   3.240   0.786  0.00  0.00    +0.007 C 
ENDBRANCH  31  32
ENDBRANCH   6  31
TORSDOF 9
