REMARK  Name = 
REMARK  2 active torsions:
REMARK  status: ('A' for Active; 'I' for Inactive)
REMARK    1  A    between atoms: C_1  and  C_2
REMARK    2  A    between atoms: C_11  and  O_12
REMARK                            x       y       z     vdW  Elec       q    Type
REMARK                         _______ _______ _______ _____ _____    ______ ____
ROOT
ATOM      1  C   UNL     1       1.000   0.104  -0.065  0.00  0.00    +0.045 C 
ATOM      2  C   UNL     1       2.499   0.110  -0.053  0.00  0.00    -0.033 A 
ATOM      3  C   UNL     1       3.245  -1.157  -0.056  0.00  0.00    +0.021 A 
ATOM      4  C   UNL     1       2.633  -2.417  -0.104  0.00  0.00    +0.015 A 
ATOM      5  C   UNL     1       3.402  -3.589  -0.110  0.00  0.00    +0.046 A 
ATOM      6  C   UNL     1       4.790  -3.503  -0.062  0.00  0.00    +0.120 A 
ATOM      7  C   UNL     1       5.421  -2.270  -0.010  0.00  0.00    +0.092 A 
ATOM      8  C   UNL     1       4.642  -1.114  -0.013  0.00  0.00    +0.143 A 
ATOM      9  O   UNL     1       5.339   0.110   0.020  0.00  0.00    -0.422 OA
ATOM     10  C   UNL     1       4.665   1.317  -0.015  0.00  0.00    +0.337 A 
ATOM     11  O   UNL     1       5.245   2.396  -0.020  0.00  0.00    -0.245 OA
ATOM     12  C   UNL     1       3.195   1.256  -0.039  0.00  0.00    +0.096 A 
ENDROOT
BRANCH   6  13
ATOM     13  O   UNL     1       5.571  -4.620  -0.070  0.00  0.00    -0.507 OA
ATOM     14  H   UNL     1       5.002  -5.404  -0.132  0.00  0.00    +0.292 HD
ENDBRANCH   6  13
TORSDOF 1
