REMARK  Name = 
REMARK  11 active torsions:
REMARK  status: ('A' for Active; 'I' for Inactive)
REMARK    1  A    between atoms: C_2  and  N_27
REMARK    2  A    between atoms: C_7  and  O_8
REMARK    3  A    between atoms: O_8  and  C_9
REMARK    4  A    between atoms: C_10  and  O_11
REMARK    5  A    between atoms: O_11  and  C_12
REMARK    6  A    between atoms: C_13  and  O_14
REMARK    7  A    between atoms: O_14  and  C_15
REMARK    8  A    between atoms: C_20  and  O_21
REMARK    9  A    between atoms: O_21  and  C_22
REMARK   10  A    between atoms: C_28  and  C_30
REMARK   11  A    between atoms: C_30  and  S_31
REMARK                            x       y       z     vdW  Elec       q    Type
REMARK                         _______ _______ _______ _____ _____    ______ ____
ROOT
ATOM      1  C   UNL     1       2.792  -0.358  -0.861  0.00  0.00    +0.104 C 
ATOM      2  C   UNL     1       4.172  -0.561  -0.194  0.00  0.00    -0.016 A 
ATOM      3  C   UNL     1       4.372  -1.738   0.776  0.00  0.00    -0.009 A 
ATOM      4  C   UNL     1       5.058  -1.619   1.946  0.00  0.00    +0.012 A 
ATOM      5  C   UNL     1       5.841  -0.465   2.365  0.00  0.00    +0.050 A 
ATOM      6  C   UNL     1       5.391   0.787   2.145  0.00  0.00    +0.167 A 
ATOM      7  C   UNL     1       5.900   1.065   0.760  0.00  0.00    +0.221 A 
ATOM      8  O   UNL     1       6.866   1.768   0.506  0.00  0.00    -0.284 OA
ATOM      9  C   UNL     1       3.730  -3.131   0.667  0.00  0.00    +0.031 A 
ATOM     10  C   UNL     1       4.413  -4.392   0.675  0.00  0.00    +0.173 A 
ATOM     11  C   UNL     1       3.690  -5.616   0.863  0.00  0.00    +0.204 A 
ATOM     12  C   UNL     1       2.293  -5.588   1.065  0.00  0.00    +0.165 A 
ATOM     13  C   UNL     1       1.630  -4.374   0.993  0.00  0.00    +0.054 A 
ATOM     14  C   UNL     1       2.322  -3.182   0.749  0.00  0.00    -0.032 A 
ATOM     15  C   UNL     1       1.479  -1.987   0.440  0.00  0.00    +0.038 C 
ATOM     16  C   UNL     1       4.965   0.547  -0.285  0.00  0.00    +0.060 A 
ATOM     17  C   UNL     1       1.859  -1.551  -0.967  0.00  0.00    +0.032 C 
ENDROOT
BRANCH   1  18
ATOM     18  N   UNL     1       2.846   0.358  -2.138  0.00  0.00    -0.308 N 
ATOM     19  H   UNL     1       3.667   0.304  -2.726  0.00  0.00    +0.149 HD
ATOM     20  C   UNL     1       1.784   1.180  -2.507  0.00  0.00    +0.223 C 
ATOM     21  O   UNL     1       0.748   1.250  -1.847  0.00  0.00    -0.275 OA
BRANCH  20  22
ATOM     22  C   UNL     1       1.945   1.948  -3.796  0.00  0.00    +0.161 C 
BRANCH  22  23
ATOM     23  S   UNL     1       3.578   2.720  -3.939  0.00  0.00    -0.169 S 
ATOM     24  H   UNL     1       3.383   3.646  -2.986  0.00  0.00    +0.102 HD
ENDBRANCH  22  23
ENDBRANCH  20  22
ENDBRANCH   1  18
BRANCH   6  25
ATOM     25  O   UNL     1       4.104   1.251   2.347  0.00  0.00    -0.491 OA
ATOM     26  C   UNL     1       3.485   0.904   3.574  0.00  0.00    +0.277 C 
ENDBRANCH   6  25
BRANCH  12  27
ATOM     27  O   UNL     1       1.644  -6.782   1.275  0.00  0.00    -0.491 OA
ATOM     28  C   UNL     1       0.259  -6.728   1.617  0.00  0.00    +0.277 C 
ENDBRANCH  12  27
BRANCH  11  29
ATOM     29  O   UNL     1       4.178  -6.900   0.924  0.00  0.00    -0.488 OA
ATOM     30  C   UNL     1       5.487  -7.219   0.504  0.00  0.00    +0.277 C 
ENDBRANCH  11  29
BRANCH  10  31
ATOM     31  O   UNL     1       5.789  -4.483   0.626  0.00  0.00    -0.491 OA
ATOM     32  C   UNL     1       6.401  -3.824  -0.481  0.00  0.00    +0.277 C 
ENDBRANCH  10  31
TORSDOF 7
