REMARK  Name = 
REMARK  4 active torsions:
REMARK  status: ('A' for Active; 'I' for Inactive)
REMARK    1  A    between atoms: C_2  and  C_3
REMARK    2  A    between atoms: C_3  and  C_4
REMARK    3  A    between atoms: C_4  and  N_5
REMARK    4  A    between atoms: C_6  and  C_8
REMARK                            x       y       z     vdW  Elec       q    Type
REMARK                         _______ _______ _______ _____ _____    ______ ____
ROOT
ATOM      1  C   UNL     1       2.089   0.166  -0.032  0.00  0.00    +0.313 C 
ATOM      2  N   UNL     1       2.553   1.428   0.538  0.00  0.00    -0.060 NA
ATOM      3  C   UNL     1       3.316   1.424   1.578  0.00  0.00    +0.317 C 
ATOM      4  N   UNL     1       3.724   2.648   2.030  0.00  0.00    -0.246 N 
ATOM      5  H   UNL     1       3.203   3.432   1.656  0.00  0.00    +0.288 HD
ATOM      6  H   UNL     1       4.031   2.743   2.992  0.00  0.00    +0.288 HD
ATOM      7  C   UNL     1       3.729   0.185   2.272  0.00  0.00    +0.124 A 
ATOM      8  C   UNL     1       3.324  -1.024   1.705  0.00  0.00    +0.084 A 
ATOM      9  C   UNL     1       3.740  -2.209   2.333  0.00  0.00    +0.145 A 
ATOM     10  C   UNL     1       4.502  -2.202   3.501  0.00  0.00    +0.043 A 
ATOM     11  C   UNL     1       4.877  -0.986   4.064  0.00  0.00    +0.042 A 
ATOM     12  F   UNL     1       3.394  -3.393   1.803  0.00  0.00    -0.204 F 
ATOM     13  C   UNL     1       4.487   0.201   3.449  0.00  0.00    +0.140 A 
ATOM     14  F   UNL     1       4.852   1.357   4.024  0.00  0.00    -0.205 F 
ATOM     15  N   UNL     1       2.655  -1.063   0.489  0.00  0.00    -0.300 N 
ATOM     16  H   UNL     1       2.159  -1.925   0.281  0.00  0.00    +0.150 HD
ENDROOT
BRANCH   1  17
ATOM     17  C   UNL     1       0.556   0.114   0.064  0.00  0.00    +0.093 C 
BRANCH  17  18
ATOM     18  C   UNL     1      -0.093   1.374  -0.508  0.00  0.00    +0.110 C 
BRANCH  18  19
ATOM     19  N   UNL     1      -1.541   1.289  -0.486  0.00  0.00    -0.311 N 
ATOM     20  H   UNL     1      -2.018   1.574   0.355  0.00  0.00    +0.149 HD
ATOM     21  C   UNL     1      -2.264   0.806  -1.554  0.00  0.00    +0.247 C 
ATOM     22  O   UNL     1      -1.740   0.413  -2.591  0.00  0.00    -0.270 OA
BRANCH  21  23
ATOM     23  C   UNL     1      -3.705   0.794  -1.360  0.00  0.00    +0.074 A 
ATOM     24  C   UNL     1      -4.513   1.163  -0.242  0.00  0.00    +0.054 A 
ATOM     25  C   UNL     1      -5.820   0.941  -0.609  0.00  0.00    +0.195 A 
ATOM     26  O   UNL     1      -5.881   0.469  -1.878  0.00  0.00    -0.470 OA
ATOM     27  C   UNL     1      -4.604   0.382  -2.326  0.00  0.00    +0.207 A 
ENDBRANCH  21  23
ENDBRANCH  18  19
ENDBRANCH  17  18
ENDBRANCH   1  17
TORSDOF 4
