REMARK  Name = 
REMARK  9 active torsions:
REMARK  status: ('A' for Active; 'I' for Inactive)
REMARK    1  A    between atoms: C_1  and  C_2
REMARK    2  A    between atoms: C_2  and  N_3
REMARK    3  A    between atoms: C_4  and  C_6
REMARK    4  A    between atoms: C_9  and  C_19
REMARK    5  A    between atoms: C_10  and  C_11
REMARK    6  A    between atoms: C_14  and  O_15
REMARK    7  A    between atoms: O_15  and  C_16
REMARK    8  A    between atoms: C_23  and  O_24
REMARK    9  A    between atoms: C_26  and  O_27
REMARK                            x       y       z     vdW  Elec       q    Type
REMARK                         _______ _______ _______ _____ _____    ______ ____
ROOT
ATOM      1  C   UNL     1       4.909   3.031  -0.031  0.00  0.00    +0.155 A 
ATOM      2  C   UNL     1       6.312   3.297   0.249  0.00  0.00    +0.040 A 
ATOM      3  C   UNL     1       6.437   4.685   0.063  0.00  0.00    +0.078 A 
ATOM      4  N   UNL     1       5.143   5.127  -0.052  0.00  0.00    -0.276 N 
ATOM      5  H   UNL     1       4.851   6.100  -0.093  0.00  0.00    +0.189 HD
ATOM      6  N   UNL     1       4.232   4.175  -0.256  0.00  0.00    -0.168 NA
ENDROOT
BRANCH   3   7
ATOM      7  C   UNL     1       7.534   5.670  -0.098  0.00  0.00    +0.043 A 
ATOM      8  C   UNL     1       7.356   7.037   0.219  0.00  0.00    +0.130 A 
ATOM      9  C   UNL     1       8.336   7.994  -0.057  0.00  0.00    +0.093 A 
ATOM     10  C   UNL     1       9.538   7.591  -0.619  0.00  0.00    +0.139 A 
ATOM     11  C   UNL     1       9.760   6.248  -0.916  0.00  0.00    +0.083 A 
ATOM     12 CL   UNL     1      11.269   5.742  -1.578  0.00  0.00    -0.080 Cl
ATOM     13  C   UNL     1       8.754   5.303  -0.690  0.00  0.00    +0.037 A 
BRANCH   8  14
ATOM     14  O   UNL     1       6.176   7.459   0.783  0.00  0.00    -0.506 OA
ATOM     15  H   UNL     1       6.307   8.358   1.134  0.00  0.00    +0.292 HD
ENDBRANCH   8  14
BRANCH  10  16
ATOM     16  O   UNL     1      10.467   8.560  -0.880  0.00  0.00    -0.505 OA
ATOM     17  H   UNL     1      11.243   8.119  -1.275  0.00  0.00    +0.292 HD
ENDBRANCH  10  16
ENDBRANCH   3   7
BRANCH   2  18
ATOM     18  C   UNL     1       7.445   2.372   0.448  0.00  0.00    -0.013 A 
ATOM     19  C   UNL     1       7.445   1.090  -0.114  0.00  0.00    +0.012 A 
ATOM     20  C   UNL     1       8.591   0.282  -0.115  0.00  0.00    +0.046 A 
ATOM     21  C   UNL     1       9.784   0.763   0.406  0.00  0.00    +0.120 A 
ATOM     22  C   UNL     1       9.781   2.000   1.048  0.00  0.00    +0.046 A 
ATOM     23  C   UNL     1       8.609   2.767   1.123  0.00  0.00    +0.012 A 
BRANCH  21  24
ATOM     24  O   UNL     1      11.005   0.159   0.306  0.00  0.00    -0.495 OA
ATOM     25  C   UNL     1      11.013  -1.222  -0.039  0.00  0.00    +0.277 C 
ENDBRANCH  21  24
ENDBRANCH   2  18
BRANCH   1  28
ATOM     26  N   UNL     1       3.155   1.814  -1.122  0.00  0.00    -0.310 N 
ATOM     27  H   UNL     1       2.989   2.727  -1.535  0.00  0.00    +0.149 HD
ATOM     28  C   UNL     1       4.186   1.754  -0.189  0.00  0.00    +0.265 C 
ATOM     29  O   UNL     1       4.480   0.720   0.390  0.00  0.00    -0.268 OA
BRANCH  26  31
ATOM     30  C   UNL     1       1.446   0.890  -2.658  0.00  0.00    +0.024 C 
ATOM     31  C   UNL     1       2.518   0.618  -1.618  0.00  0.00    +0.101 C 
ENDBRANCH  26  31
ENDBRANCH   1  28
TORSDOF 7
