REMARK  Name = 
REMARK  3 active torsions:
REMARK  status: ('A' for Active; 'I' for Inactive)
REMARK    1  A    between atoms: C_2  and  C_11
REMARK    2  A    between atoms: C_8  and  C_9
REMARK    3  A    between atoms: C_11  and  O_12
REMARK                            x       y       z     vdW  Elec       q    Type
REMARK                         _______ _______ _______ _____ _____    ______ ____
ROOT
ATOM      1  C   UNL     1       2.196   0.061   0.132  0.00  0.00    +0.184 C 
ATOM      2  N   UNL     1       2.676   1.003  -0.915  0.00  0.00    -0.288 N 
ATOM      3  C   UNL     1       2.854   2.339  -0.560  0.00  0.00    +0.213 C 
ATOM      4  O   UNL     1       2.842   2.708   0.614  0.00  0.00    -0.276 OA
ATOM      5  C   UNL     1       3.066   3.366  -1.648  0.00  0.00    +0.109 C 
ATOM      6  C   UNL     1       2.270   0.663  -2.284  0.00  0.00    +0.108 C 
ATOM      7  C   UNL     1       2.599  -0.772  -2.670  0.00  0.00    +0.019 C 
ATOM      8  C   UNL     1       2.026  -1.756  -1.667  0.00  0.00    +0.004 C 
ATOM      9  C   UNL     1       2.506  -1.403  -0.267  0.00  0.00    +0.034 C 
ENDROOT
BRANCH   1  10
ATOM     10  C   UNL     1       2.713   0.194   1.594  0.00  0.00    +0.325 C 
ATOM     11  O   UNL     1       3.614  -0.466   2.089  0.00  0.00    -0.249 OA
BRANCH  10  12
ATOM     12  O   UNL     1       1.988   1.072   2.333  0.00  0.00    -0.479 OA
ATOM     13  H   UNL     1       1.680   1.808   1.755  0.00  0.00    +0.295 HD
ENDBRANCH  10  12
ENDBRANCH   1  10
TORSDOF 2
