REMARK  Name = 
REMARK  5 active torsions:
REMARK  status: ('A' for Active; 'I' for Inactive)
REMARK    1  A    between atoms: C_1  and  C_2
REMARK    2  A    between atoms: C_2  and  N_3
REMARK    3  A    between atoms: N_7  and  C_8
REMARK    4  A    between atoms: C_8  and  C_9
REMARK    5  A    between atoms: C_8  and  C_10
REMARK                            x       y       z     vdW  Elec       q    Type
REMARK                         _______ _______ _______ _____ _____    ______ ____
ROOT
ATOM      1  N   UNL     1       3.187   0.939  -1.076  0.00  0.00    -0.314 N 
ATOM      2  H   UNL     1       2.816   1.848  -0.824  0.00  0.00    +0.149 HD
ATOM      3  C   UNL     1       4.566   1.064  -1.189  0.00  0.00    +0.221 A 
ATOM      4  N   UNL     1       5.331  -0.009  -1.134  0.00  0.00    -0.184 NA
ATOM      5  C   UNL     1       6.620   0.255  -1.277  0.00  0.00    +0.229 A 
ATOM      6 CL   UNL     1       7.666  -1.096  -1.231  0.00  0.00    -0.041 Cl
ATOM      7  N   UNL     1       7.199   1.432  -1.442  0.00  0.00    -0.184 NA
ATOM      8  C   UNL     1       6.344   2.436  -1.493  0.00  0.00    +0.221 A 
ATOM      9  N   UNL     1       6.796   3.719  -1.740  0.00  0.00    -0.311 N 
ATOM     10  H   UNL     1       6.038   4.371  -1.579  0.00  0.00    +0.149 HD
ATOM     11  N   UNL     1       5.028   2.300  -1.357  0.00  0.00    -0.181 NA
ENDROOT
BRANCH   9  12
ATOM     12  C   UNL     1       8.109   4.110  -1.246  0.00  0.00    +0.067 C 
ATOM     13  C   UNL     1       7.994   4.656   0.177  0.00  0.00    +0.027 C 
ATOM     14  C   UNL     1       8.670   5.184  -2.178  0.00  0.00    +0.027 C 
ENDBRANCH   9  12
BRANCH   1  16
ATOM     15  C   UNL     1       1.201  -0.221  -0.288  0.00  0.00    +0.024 C 
ATOM     16  C   UNL     1       2.721  -0.188  -0.288  0.00  0.00    +0.101 C 
ENDBRANCH   1  16
TORSDOF 2
