REMARK  Name = 
REMARK  9 active torsions:
REMARK  status: ('A' for Active; 'I' for Inactive)
REMARK    1  A    between atoms: C_1  and  C_2
REMARK    2  A    between atoms: C_2  and  O_3
REMARK    3  A    between atoms: O_3  and  C_4
REMARK    4  A    between atoms: C_6  and  C_10
REMARK    5  A    between atoms: C_13  and  N_14
REMARK    6  A    between atoms: C_15  and  C_17
REMARK    7  A    between atoms: C_17  and  C_18
REMARK    8  A    between atoms: C_20  and  C_21
REMARK    9  A    between atoms: C_20  and  O_22
REMARK                            x       y       z     vdW  Elec       q    Type
REMARK                         _______ _______ _______ _____ _____    ______ ____
ROOT
ATOM      1  C   UNL     1       7.643   0.494   0.035  0.00  0.00    -0.018 A 
ATOM      2  C   UNL     1       8.922   0.301  -0.515  0.00  0.00    +0.010 A 
ATOM      3  C   UNL     1       9.756   1.382  -0.853  0.00  0.00    +0.024 A 
ATOM      4  C   UNL     1       9.338   2.696  -0.640  0.00  0.00    +0.034 A 
ATOM      5  C   UNL     1       8.083   2.896  -0.061  0.00  0.00    +0.024 A 
ATOM      6  C   UNL     1       7.262   1.819   0.286  0.00  0.00    +0.010 A 
ENDROOT
BRANCH   1  11
ATOM      7  C   UNL     1       4.402  -1.502   0.148  0.00  0.00    +0.121 A 
ATOM      8  C   UNL     1       4.870  -2.771   0.480  0.00  0.00    +0.045 A 
ATOM      9  C   UNL     1       6.228  -2.977   0.721  0.00  0.00    +0.004 A 
ATOM     10  C   UNL     1       7.131  -1.914   0.619  0.00  0.00    +0.009 A 
ATOM     11  C   UNL     1       6.699  -0.629   0.257  0.00  0.00    -0.014 A 
ATOM     12  C   UNL     1       5.315  -0.449   0.041  0.00  0.00    +0.054 A 
BRANCH   7  13
ATOM     13  O   UNL     1       3.052  -1.411  -0.069  0.00  0.00    -0.492 OA
BRANCH  13  15
ATOM     14  C   UNL     1       1.050  -0.226  -0.643  0.00  0.00    +0.048 C 
ATOM     15  C   UNL     1       2.544  -0.118  -0.402  0.00  0.00    +0.225 C 
ENDBRANCH  13  15
ENDBRANCH   7  13
ENDBRANCH   1  11
BRANCH   4  16
ATOM     16  N   UNL     1      10.191   3.758  -1.051  0.00  0.00    -0.281 N 
ATOM     17  H   UNL     1      11.002   3.488  -1.595  0.00  0.00    +0.155 HD
ATOM     18  C   UNL     1      10.003   5.078  -0.709  0.00  0.00    +0.262 C 
ATOM     19  O   UNL     1       9.152   5.466   0.097  0.00  0.00    -0.269 OA
BRANCH  18  20
ATOM     20  C   UNL     1      10.901   6.107  -1.311  0.00  0.00    +0.150 C 
ATOM     21  C   UNL     1      10.743   7.408  -0.939  0.00  0.00    +0.113 C 
ATOM     22  C   UNL     1      11.570   8.568  -1.440  0.00  0.00    +0.087 C 
BRANCH  21  23
ATOM     23  O   UNL     1       9.793   7.847  -0.028  0.00  0.00    -0.510 OA
ATOM     24  H   UNL     1       9.270   7.078   0.298  0.00  0.00    +0.292 HD
ENDBRANCH  21  23
BRANCH  20  25
ATOM     25  C   UNL     1      12.000   5.797  -2.314  0.00  0.00    +0.108 C 
ATOM     26  N   UNL     1      12.912   5.540  -3.146  0.00  0.00    -0.191 NA
ENDBRANCH  20  25
ENDBRANCH  18  20
ENDBRANCH   4  16
TORSDOF 7
