REMARK  Name = 
REMARK  8 active torsions:
REMARK  status: ('A' for Active; 'I' for Inactive)
REMARK    1  A    between atoms: C_2  and  C_3
REMARK    2  A    between atoms: C_2  and  N_4
REMARK    3  A    between atoms: C_2  and  C_5
REMARK    4  A    between atoms: C_5  and  C_7
REMARK    5  A    between atoms: C_10  and  C_12
REMARK    6  A    between atoms: C_12  and  C_13
REMARK    7  A    between atoms: C_12  and  C_14
REMARK    8  A    between atoms: C_12  and  C_15
REMARK                            x       y       z     vdW  Elec       q    Type
REMARK                         _______ _______ _______ _____ _____    ______ ____
ROOT
ATOM      1  C   UNL     1       4.104   1.753   0.229  0.00  0.00    +0.286 A 
ATOM      2  O   UNL     1       4.960   0.682   0.177  0.00  0.00    -0.417 OA
ATOM      3  C   UNL     1       6.184   1.295   0.280  0.00  0.00    +0.223 A 
ATOM      4  N   UNL     1       6.084   2.605   0.381  0.00  0.00    -0.111 NA
ATOM      5  N   UNL     1       4.739   2.903   0.352  0.00  0.00    -0.104 NA
ENDROOT
BRANCH   3   6
ATOM      6  C   UNL     1       7.407   0.423   0.295  0.00  0.00    +0.040 C 
ATOM      7  C   UNL     1       7.528  -0.345  -1.031  0.00  0.00    +0.020 C 
ATOM      8  C   UNL     1       7.319  -0.576   1.462  0.00  0.00    +0.020 C 
ATOM      9  C   UNL     1       8.669   1.287   0.482  0.00  0.00    +0.020 C 
ENDBRANCH   3   6
BRANCH   1  10
ATOM     10  C   UNL     1       2.672   1.558   0.186  0.00  0.00    +0.235 C 
ATOM     11  O   UNL     1       2.133   0.446   0.157  0.00  0.00    -0.285 OA
BRANCH  10  12
ATOM     12  C   UNL     1       1.825   2.848   0.254  0.00  0.00    +0.125 C 
ATOM     13  C   UNL     1       1.428   3.120   1.702  0.00  0.00    +0.032 C 
BRANCH  12  14
ATOM     14  N   UNL     1       0.615   2.711  -0.585  0.00  0.00    -0.321 NA
ATOM     15  H   UNL     1       0.087   1.894  -0.269  0.00  0.00    +0.119 HD
ATOM     16  H   UNL     1       0.008   3.518  -0.448  0.00  0.00    +0.119 HD
ENDBRANCH  12  14
ENDBRANCH  10  12
ENDBRANCH   1  10
TORSDOF 4
