REMARK  Name = 
REMARK  3 active torsions:
REMARK  status: ('A' for Active; 'I' for Inactive)
REMARK    1  A    between atoms: C_7  and  C_8
REMARK    2  A    between atoms: N_10  and  C_11
REMARK    3  A    between atoms: C_12  and  C_13
REMARK                            x       y       z     vdW  Elec       q    Type
REMARK                         _______ _______ _______ _____ _____    ______ ____
ROOT
ATOM      1  C   UNL     1       1.830  -2.307  -1.063  0.00  0.00    +0.251 C 
ATOM      2  N   UNL     1       0.737  -2.567  -0.250  0.00  0.00    -0.275 N 
ATOM      3  H   UNL     1       0.109  -1.806  -0.017  0.00  0.00    +0.156 HD
ATOM      4  O   UNL     1       2.400  -3.157  -1.742  0.00  0.00    -0.270 OA
ENDROOT
BRANCH   2   5
ATOM      5  C   UNL     1       0.236  -3.855  -0.188  0.00  0.00    +0.090 A 
ATOM      6  S   UNL     1      -1.463  -3.960  -0.236  0.00  0.00    -0.077 S 
ATOM      7  C   UNL     1      -1.404  -5.660  -0.360  0.00  0.00    -0.004 A 
ATOM      8  C   UNL     1      -2.627  -6.500  -0.579  0.00  0.00    +0.043 C 
ATOM      9  C   UNL     1      -2.342  -7.970  -0.226  0.00  0.00    +0.005 C 
ATOM     10  C   UNL     1      -0.997  -8.445  -0.794  0.00  0.00    +0.005 C 
ATOM     11  C   UNL     1       0.173  -7.628  -0.229  0.00  0.00    +0.037 C 
ATOM     12  C   UNL     1      -0.117  -6.154  -0.242  0.00  0.00    -0.018 A 
ATOM     13  C   UNL     1       0.838  -5.094  -0.102  0.00  0.00    +0.084 A 
BRANCH  13  14
ATOM     14  C   UNL     1       2.228  -5.305   0.179  0.00  0.00    +0.102 C 
ATOM     15  N   UNL     1       3.326  -5.533   0.481  0.00  0.00    -0.191 NA
ENDBRANCH  13  14
ENDBRANCH   2   5
BRANCH   1  18
ATOM     16  F   UNL     1       0.991  -0.097   0.642  0.00  0.00    -0.205 F 
ATOM     17  C   UNL     1       1.858   0.140  -0.354  0.00  0.00    +0.135 A 
ATOM     18  C   UNL     1       2.276  -0.891  -1.199  0.00  0.00    +0.072 A 
ATOM     19  C   UNL     1       3.183  -0.584  -2.232  0.00  0.00    +0.016 A 
ATOM     20  C   UNL     1       3.646   0.719  -2.414  0.00  0.00    +0.001 A 
ATOM     21  C   UNL     1       3.219   1.733  -1.561  0.00  0.00    +0.003 A 
ATOM     22  C   UNL     1       2.326   1.442  -0.529  0.00  0.00    +0.039 A 
ENDBRANCH   1  18
TORSDOF 3
