REMARK  Name = 
REMARK  12 active torsions:
REMARK  status: ('A' for Active; 'I' for Inactive)
REMARK    1  A    between atoms: C_2  and  C_3
REMARK    2  A    between atoms: C_2  and  N_4
REMARK    3  A    between atoms: C_2  and  C_20
REMARK    4  A    between atoms: C_5  and  C_7
REMARK    5  A    between atoms: C_7  and  C_9
REMARK    6  A    between atoms: C_7  and  C_16
REMARK    7  A    between atoms: C_9  and  C_10
REMARK    8  A    between atoms: N_18  and  O_19
REMARK    9  A    between atoms: N_22  and  C_23
REMARK   10  A    between atoms: C_23  and  C_24
REMARK   11  A    between atoms: N_26  and  C_27
REMARK   12  A    between atoms: C_30  and  N_33
REMARK                            x       y       z     vdW  Elec       q    Type
REMARK                         _______ _______ _______ _____ _____    ______ ____
ROOT
ATOM      1  C   UNL     1       0.175   3.996  -1.926  0.00  0.00    +0.156 C 
ATOM      2  C   UNL     1      -0.784   4.351  -3.058  0.00  0.00    +0.038 C 
ENDROOT
BRANCH   1   3
ATOM      3  C   UNL     1      -0.642   3.685  -0.652  0.00  0.00    +0.233 C 
ATOM      4  N   UNL     1      -1.054   2.375  -0.536  0.00  0.00    -0.305 N 
ATOM      5  H   UNL     1      -0.988   1.764  -1.348  0.00  0.00    +0.149 HD
ATOM      6  O   UNL     1      -0.995   4.551   0.143  0.00  0.00    -0.274 OA
BRANCH   4   7
ATOM      7  C   UNL     1      -1.948   1.947   0.529  0.00  0.00    +0.200 C 
BRANCH   7   8
ATOM      8  C   UNL     1      -2.289   0.470   0.332  0.00  0.00    +0.234 C 
ATOM      9  N   UNL     1      -2.907  -0.119   1.430  0.00  0.00    -0.284 N 
ATOM     10  H   UNL     1      -2.723   0.306   2.332  0.00  0.00    +0.155 HD
ATOM     11  O   UNL     1      -2.003  -0.109  -0.717  0.00  0.00    -0.274 OA
BRANCH   9  12
ATOM     12  C   UNL     1      -3.273  -1.480   1.428  0.00  0.00    +0.034 A 
ATOM     13  C   UNL     1      -3.895  -2.067   0.319  0.00  0.00    +0.030 A 
ATOM     14  C   UNL     1      -4.140  -3.442   0.289  0.00  0.00    +0.086 A 
ATOM     15  C   UNL     1      -3.736  -4.232   1.370  0.00  0.00    +0.273 A 
ATOM     16  C   UNL     1      -3.167  -3.643   2.509  0.00  0.00    +0.086 A 
ATOM     17  C   UNL     1      -2.967  -2.259   2.547  0.00  0.00    +0.030 A 
BRANCH  15  18
ATOM     18  N   UNL     1      -3.872  -5.692   1.293  0.00  0.00    +0.080 N 
ATOM     19  O   UNL     1      -4.420  -6.169   0.289  0.00  0.00    +0.041 OA
ATOM     20  O   UNL     1      -3.417  -6.362   2.231  0.00  0.00    -0.576 OA
ENDBRANCH  15  18
ENDBRANCH   9  12
ENDBRANCH   7   8
ENDBRANCH   4   7
ENDBRANCH   1   3
BRANCH   1  21
ATOM     21  N   UNL     1       1.004   2.831  -2.263  0.00  0.00    -0.304 N 
ATOM     22  H   UNL     1       1.167   2.204  -1.487  0.00  0.00    +0.149 HD
ATOM     23  C   UNL     1       1.958   2.883  -3.259  0.00  0.00    +0.226 C 
ATOM     24  O   UNL     1       2.087   3.872  -3.981  0.00  0.00    -0.275 OA
BRANCH  23  25
ATOM     25  C   UNL     1       2.739   1.598  -3.530  0.00  0.00    +0.167 C 
BRANCH  25  26
ATOM     26  C   UNL     1       4.081   1.940  -4.163  0.00  0.00    +0.248 C 
ATOM     27  N   UNL     1       4.091   1.941  -5.539  0.00  0.00    -0.197 N 
ATOM     28  H   UNL     1       3.357   1.570  -6.131  0.00  0.00    +0.182 HD
ATOM     29  O   UNL     1       5.091   2.215  -3.514  0.00  0.00    -0.273 OA
BRANCH  27  30
ATOM     30  O   UNL     1       5.339   2.190  -6.155  0.00  0.00    -0.295 OA
ATOM     31  H   UNL     1       5.923   2.348  -5.381  0.00  0.00    +0.241 HD
ENDBRANCH  27  30
ENDBRANCH  25  26
BRANCH  25  32
ATOM     32  C   UNL     1       2.961   0.734  -2.280  0.00  0.00    +0.057 C 
BRANCH  32  33
ATOM     33  C   UNL     1       3.665  -0.576  -2.537  0.00  0.00    -0.046 A 
ATOM     34  C   UNL     1       3.104  -1.545  -3.381  0.00  0.00    +0.003 A 
ATOM     35  C   UNL     1       3.760  -2.758  -3.594  0.00  0.00    +0.000 A 
ATOM     36  C   UNL     1       4.970  -3.019  -2.956  0.00  0.00    +0.000 A 
ATOM     37  C   UNL     1       5.527  -2.069  -2.104  0.00  0.00    +0.000 A 
ATOM     38  C   UNL     1       4.879  -0.852  -1.896  0.00  0.00    +0.003 A 
ENDBRANCH  32  33
ENDBRANCH  25  32
ENDBRANCH  23  25
ENDBRANCH   1  21
TORSDOF 11
