REMARK  Name = 
REMARK  4 active torsions:
REMARK  status: ('A' for Active; 'I' for Inactive)
REMARK    1  A    between atoms: O_1  and  N_2
REMARK    2  A    between atoms: C_3  and  C_4
REMARK    3  A    between atoms: C_11  and  C_14
REMARK    4  A    between atoms: C_17  and  O_18
REMARK                            x       y       z     vdW  Elec       q    Type
REMARK                         _______ _______ _______ _____ _____    ______ ____
ROOT
ATOM      1  C   UNL     1       4.509   0.522   0.941  0.00  0.00    +0.004 A 
ATOM      2  C   UNL     1       5.184   1.564   0.307  0.00  0.00    +0.011 A 
ATOM      3  C   UNL     1       6.573   1.607   0.328  0.00  0.00    +0.010 A 
ATOM      4  C   UNL     1       7.338   0.639   1.014  0.00  0.00    -0.010 A 
ATOM      5  C   UNL     1       6.639  -0.408   1.714  0.00  0.00    -0.010 A 
ATOM      6  C   UNL     1       7.284  -1.390   2.505  0.00  0.00    +0.009 A 
ATOM      7  C   UNL     1       6.617  -2.488   3.058  0.00  0.00    +0.001 A 
ATOM      8  C   UNL     1       5.255  -2.613   2.881  0.00  0.00    +0.001 A 
ATOM      9  C   UNL     1       4.562  -1.619   2.198  0.00  0.00    +0.009 A 
ATOM     10  C   UNL     1       5.216  -0.497   1.625  0.00  0.00    -0.009 A 
ENDROOT
BRANCH   4  11
ATOM     11  C   UNL     1       8.829   0.742   0.923  0.00  0.00    -0.017 A 
ATOM     12  C   UNL     1       9.486   1.988   0.977  0.00  0.00    +0.012 A 
ATOM     13  C   UNL     1      10.879   2.091   0.876  0.00  0.00    +0.046 A 
ATOM     14  C   UNL     1      11.646   0.943   0.761  0.00  0.00    +0.117 A 
ATOM     15  C   UNL     1      11.040  -0.302   0.682  0.00  0.00    +0.046 A 
ATOM     16  C   UNL     1       9.644  -0.391   0.723  0.00  0.00    +0.012 A 
BRANCH  14  17
ATOM     17  O   UNL     1      13.001   1.079   0.728  0.00  0.00    -0.507 OA
ATOM     18  H   UNL     1      13.402   0.194   0.756  0.00  0.00    +0.292 HD
ENDBRANCH  14  17
ENDBRANCH   4  11
BRANCH   1  20
ATOM     19  N   UNL     1       2.382   1.103  -0.081  0.00  0.00    -0.095 NA
ATOM     20  C   UNL     1       3.031   0.541   0.890  0.00  0.00    +0.161 C 
BRANCH  19  21
ATOM     21  O   UNL     1       1.010   0.932   0.136  0.00  0.00    -0.409 OA
ATOM     22  H   UNL     1       0.622   1.302  -0.679  0.00  0.00    +0.328 HD
ENDBRANCH  19  21
ENDBRANCH   1  20
TORSDOF 4
