REMARK  Name = 
REMARK  3 active torsions:
REMARK  status: ('A' for Active; 'I' for Inactive)
REMARK    1  A    between atoms: C_1  and  N_2
REMARK    2  A    between atoms: C_4  and  C_5
REMARK    3  A    between atoms: N_8  and  O_9
REMARK                            x       y       z     vdW  Elec       q    Type
REMARK                         _______ _______ _______ _____ _____    ______ ____
ROOT
ATOM      1  C   UNL     1       2.111  -1.176  -2.004  0.00  0.00    +0.174 C 
ATOM      2  N   UNL     1       3.397  -0.582  -1.731  0.00  0.00    -0.248 N 
ATOM      3  C   UNL     1       4.402  -0.215  -2.585  0.00  0.00    +0.178 A 
ATOM      4  N   UNL     1       4.680  -0.694  -3.828  0.00  0.00    -0.166 N 
ATOM      5  C   UNL     1       5.670   0.031  -4.583  0.00  0.00    +0.093 A 
ATOM      6  C   UNL     1       6.075  -0.405  -5.859  0.00  0.00    +0.031 A 
ATOM      7  C   UNL     1       6.866   0.422  -6.668  0.00  0.00    +0.022 A 
ATOM      8  C   UNL     1       7.229   1.696  -6.223  0.00  0.00    +0.042 A 
ATOM      9 CL   UNL     1       8.053   2.765  -7.290  0.00  0.00    -0.084 Cl
ATOM     10  C   UNL     1       6.934   2.101  -4.924  0.00  0.00    +0.034 A 
ATOM     11  C   UNL     1       6.221   1.239  -4.088  0.00  0.00    +0.051 A 
ATOM     12  C   UNL     1       6.094   1.542  -2.623  0.00  0.00    +0.201 A 
ATOM     13  O   UNL     1       6.780   2.407  -2.088  0.00  0.00    -0.286 OA
ATOM     14  C   UNL     1       5.124   0.742  -1.918  0.00  0.00    +0.090 A 
ATOM     15  C   UNL     1       4.815   0.478  -0.571  0.00  0.00    +0.073 A 
ATOM     16  C   UNL     1       5.656   0.651   0.633  0.00  0.00    +0.068 C 
ATOM     17  N   UNL     1       3.676  -0.220  -0.461  0.00  0.00    -0.174 NA
ENDROOT
BRANCH   4  18
ATOM     18  O   UNL     1       4.571  -2.063  -4.025  0.00  0.00    -0.425 OA
ATOM     19  H   UNL     1       5.356  -2.410  -3.555  0.00  0.00    +0.326 HD
ENDBRANCH   4  18
TORSDOF 1
