REMARK  Name = 
REMARK  6 active torsions:
REMARK  status: ('A' for Active; 'I' for Inactive)
REMARK    1  A    between atoms: C_1  and  C_2
REMARK    2  A    between atoms: C_2  and  O_3
REMARK    3  A    between atoms: C_4  and  C_5
REMARK    4  A    between atoms: C_4  and  C_7
REMARK    5  A    between atoms: N_9  and  C_10
REMARK    6  A    between atoms: C_14  and  C_17
REMARK                            x       y       z     vdW  Elec       q    Type
REMARK                         _______ _______ _______ _____ _____    ______ ____
ROOT
ATOM      1  C   UNL     1       6.870  -2.091   0.139  0.00  0.00    +0.035 A 
ATOM      2  C   UNL     1       7.540  -3.299   0.304  0.00  0.00    +0.024 A 
ATOM      3  C   UNL     1       8.946  -3.356   0.183  0.00  0.00    +0.012 A 
ATOM      4  C   UNL     1       9.730  -2.238  -0.170  0.00  0.00    +0.002 A 
ATOM      5  C   UNL     1       9.014  -1.014  -0.261  0.00  0.00    +0.050 A 
ATOM      6 CL   UNL     1       9.715   0.510  -0.720  0.00  0.00    -0.083 Cl
ATOM      7  C   UNL     1       7.630  -0.948  -0.055  0.00  0.00    +0.044 A 
ENDROOT
BRANCH   4   8
ATOM      8  C   UNL     1      11.211  -2.349  -0.457  0.00  0.00    +0.002 A 
ATOM      9  C   UNL     1      11.814  -3.393  -1.199  0.00  0.00    +0.049 A 
ATOM     10 CL   UNL     1      10.959  -4.771  -1.818  0.00  0.00    -0.083 Cl
ATOM     11  C   UNL     1      13.180  -3.355  -1.541  0.00  0.00    +0.020 A 
ATOM     12  C   UNL     1      13.975  -2.267  -1.195  0.00  0.00    +0.001 A 
ATOM     13  C   UNL     1      13.423  -1.250  -0.436  0.00  0.00    +0.001 A 
ATOM     14  C   UNL     1      12.083  -1.328  -0.029  0.00  0.00    +0.010 A 
ENDBRANCH   4   8
BRANCH   1  16
ATOM     15  C   UNL     1       4.652  -0.996  -0.256  0.00  0.00    +0.262 C 
ATOM     16  N   UNL     1       5.452  -2.056   0.146  0.00  0.00    -0.281 N 
ATOM     17  H   UNL     1       4.973  -2.923   0.383  0.00  0.00    +0.155 HD
ATOM     18  O   UNL     1       5.052   0.080  -0.690  0.00  0.00    -0.269 OA
BRANCH  15  21
ATOM     19  C   UNL     1       1.073  -2.469   0.428  0.00  0.00    +0.087 C 
ATOM     20  C   UNL     1       2.574  -2.329   0.311  0.00  0.00    +0.113 C 
ATOM     21  C   UNL     1       3.173  -1.210  -0.168  0.00  0.00    +0.150 C 
BRANCH  21  22
ATOM     22  C   UNL     1       2.270  -0.073  -0.618  0.00  0.00    +0.108 C 
ATOM     23  N   UNL     1       1.520   0.870  -0.990  0.00  0.00    -0.191 NA
ENDBRANCH  21  22
BRANCH  20  24
ATOM     24  O   UNL     1       3.307  -3.428   0.743  0.00  0.00    -0.510 OA
ATOM     25  H   UNL     1       2.695  -4.104   1.096  0.00  0.00    +0.292 HD
ENDBRANCH  20  24
ENDBRANCH  15  21
ENDBRANCH   1  16
TORSDOF 5
