REMARK  Name = 
REMARK  13 active torsions:
REMARK  status: ('A' for Active; 'I' for Inactive)
REMARK    1  A    between atoms: C_1  and  N_2
REMARK    2  A    between atoms: N_2  and  C_3
REMARK    3  A    between atoms: N_2  and  C_4
REMARK    4  A    between atoms: C_9  and  S_14
REMARK    5  A    between atoms: S_14  and  N_17
REMARK    6  A    between atoms: N_17  and  C_18
REMARK    7  A    between atoms: C_18  and  C_19
REMARK    8  A    between atoms: C_19  and  C_20
REMARK    9  A    between atoms: C_20  and  C_21
REMARK   10  A    between atoms: C_21  and  N_22
REMARK   11  A    between atoms: C_23  and  C_25
REMARK   12  A    between atoms: C_25  and  C_26
REMARK   13  A    between atoms: C_26  and  S_27
REMARK                            x       y       z     vdW  Elec       q    Type
REMARK                         _______ _______ _______ _____ _____    ______ ____
ROOT
ATOM      1  S   UNL     1       7.470   3.924  -0.716  0.00  0.00    +0.059 S 
ATOM      2  O   UNL     1       7.326   4.555   0.577  0.00  0.00    -0.153 OA
ATOM      3  O   UNL     1       7.088   4.589  -1.942  0.00  0.00    -0.153 OA
ENDROOT
BRANCH   1   9
ATOM      4  C   UNL     1       3.119   0.997  -0.213  0.00  0.00    +0.037 A 
ATOM      5  C   UNL     1       2.409   2.208  -0.122  0.00  0.00    +0.024 A 
ATOM      6  C   UNL     1       3.045   3.440  -0.194  0.00  0.00    +0.002 A 
ATOM      7  C   UNL     1       4.423   3.494  -0.349  0.00  0.00    +0.010 A 
ATOM      8  C   UNL     1       5.207   2.331  -0.478  0.00  0.00    +0.010 A 
ATOM      9  C   UNL     1       6.619   2.359  -0.675  0.00  0.00    +0.113 A 
ATOM     10  C   UNL     1       7.359   1.187  -0.863  0.00  0.00    +0.029 A 
ATOM     11  C   UNL     1       6.708  -0.035  -0.864  0.00  0.00    +0.003 A 
ATOM     12  C   UNL     1       5.329  -0.085  -0.665  0.00  0.00    +0.010 A 
ATOM     13  C   UNL     1       4.538   1.066  -0.431  0.00  0.00    +0.005 A 
BRANCH   4  15
ATOM     14  C   UNL     1       1.007  -0.279  -0.401  0.00  0.00    +0.129 C 
ATOM     15  N   UNL     1       2.436  -0.239  -0.091  0.00  0.00    -0.336 N 
ATOM     16  C   UNL     1       2.846  -1.079   1.040  0.00  0.00    +0.129 C 
ENDBRANCH   4  15
ENDBRANCH   1   9
BRANCH   1  17
ATOM     17  N   UNL     1       9.108   3.564  -0.922  0.00  0.00    -0.190 NA
ATOM     18  H   UNL     1       9.470   4.124  -1.695  0.00  0.00    +0.148 HD
BRANCH  17  19
ATOM     19  C   UNL     1       9.935   3.446   0.286  0.00  0.00    +0.106 C 
BRANCH  19  20
ATOM     20  C   UNL     1      11.378   3.106  -0.092  0.00  0.00    +0.018 C 
BRANCH  20  21
ATOM     21  C   UNL     1      12.067   4.230  -0.874  0.00  0.00    +0.020 C 
BRANCH  21  22
ATOM     22  C   UNL     1      13.533   3.906  -1.153  0.00  0.00    +0.104 C 
BRANCH  22  23
ATOM     23  N   UNL     1      14.158   4.939  -1.955  0.00  0.00    -0.315 N 
ATOM     24  H   UNL     1      14.601   5.717  -1.482  0.00  0.00    +0.149 HD
ATOM     25  C   UNL     1      14.000   4.979  -3.325  0.00  0.00    +0.214 C 
ATOM     26  O   UNL     1      13.387   4.125  -3.953  0.00  0.00    -0.276 OA
BRANCH  25  27
ATOM     27  C   UNL     1      14.686   6.160  -3.981  0.00  0.00    +0.106 C 
BRANCH  27  28
ATOM     28  C   UNL     1      14.062   6.442  -5.341  0.00  0.00    +0.075 C 
BRANCH  28  29
ATOM     29  S   UNL     1      14.863   7.870  -6.132  0.00  0.00    -0.178 S 
ATOM     30  H   UNL     1      14.415   8.799  -5.276  0.00  0.00    +0.102 HD
ENDBRANCH  28  29
ENDBRANCH  27  28
ENDBRANCH  25  27
ENDBRANCH  22  23
ENDBRANCH  21  22
ENDBRANCH  20  21
ENDBRANCH  19  20
ENDBRANCH  17  19
ENDBRANCH   1  17
TORSDOF 11
