REMARK  Name = 
REMARK  15 active torsions:
REMARK  status: ('A' for Active; 'I' for Inactive)
REMARK    1  A    between atoms: CA_2  and  CB_3
REMARK    2  A    between atoms: CA_2  and  N_4
REMARK    3  A    between atoms: CA_2  and  C_27
REMARK    4  A    between atoms: C_5  and  CA_7
REMARK    5  A    between atoms: CA_7  and  N_9
REMARK    6  A    between atoms: CA_7  and  CB_22
REMARK    7  A    between atoms: C_10  and  C_12
REMARK    8  A    between atoms: C_15  and  C_17
REMARK    9  A    between atoms: C_17  and  O_19
REMARK   10  A    between atoms: O_19  and  C_20
REMARK   11  A    between atoms: C_20  and  C_21
REMARK   12  A    between atoms: CB_22  and  CG2_24
REMARK   13  A    between atoms: CB_22  and  CG1_25
REMARK   14  A    between atoms: CG1_25  and  CD1_26
REMARK   15  A    between atoms: C_27  and  O_28
REMARK                            x       y       z     vdW  Elec       q    Type
REMARK                         _______ _______ _______ _____ _____    ______ ____
ROOT
ATOM      1  CA  ILE A   1       2.809   0.553   3.614  0.00  0.00    +0.162 C 
ENDROOT
BRANCH   1   4
ATOM      2  N   ILE A   1       2.057  -0.347   1.439  0.00  0.00    -0.301 N 
ATOM      3  H   ILE A   1       2.654  -1.143   1.677  0.00  0.00    +0.150 HD
ATOM      4  C   ILE A   1       2.278   0.802   2.181  0.00  0.00    +0.234 C 
ATOM      5  O   ILE A   1       2.108   1.918   1.702  0.00  0.00    -0.274 OA
BRANCH   2   6
ATOM      6  CA  ILE A   1       1.576  -0.231   0.048  0.00  0.00    +0.179 C 
ATOM      7  CB  ILE A   1       2.716   0.004  -0.931  0.00  0.00    +0.040 C 
BRANCH   6   8
ATOM      8  C   ILE A   1       0.747  -1.466  -0.335  0.00  0.00    +0.325 C 
ATOM      9  OXT ILE A   1       0.462  -1.797  -1.477  0.00  0.00    -0.249 OA
BRANCH   8  10
ATOM     10  O   ILE A   1       0.255  -2.112   0.753  0.00  0.00    -0.479 OA
ATOM     11  H   ILE A   1       0.517  -1.630   1.565  0.00  0.00    +0.295 HD
ENDBRANCH   8  10
ENDBRANCH   6   8
ENDBRANCH   2   6
ENDBRANCH   1   4
BRANCH   1  12
ATOM     12  N   ILE A   1       4.267   0.549   3.602  0.00  0.00    -0.302 N 
ATOM     13  H   ILE A   1       4.774   1.426   3.661  0.00  0.00    +0.150 HD
ATOM     14  C   UNK A   0       4.995  -0.570   3.297  0.00  0.00    +0.246 C 
ATOM     15  O   UNK A   0       4.495  -1.653   3.018  0.00  0.00    -0.273 OA
BRANCH  14  16
ATOM     16  C   UNK A   0       6.458  -0.374   3.262  0.00  0.00    +0.244 C 
ATOM     17  C   UNK A   0       7.291  -0.661   4.488  0.00  0.00    +0.265 C 
ATOM     18  O   UNK A   0       6.983   0.686   4.088  0.00  0.00    -0.347 OA
BRANCH  17  19
ATOM     19  C   UNK A   0       8.690  -1.098   4.303  0.00  0.00    +0.339 C 
ATOM     20  O   UNK A   0       9.239  -1.108   3.211  0.00  0.00    -0.248 OA
BRANCH  19  21
ATOM     21  O   UNK A   0       9.204  -1.589   5.461  0.00  0.00    -0.463 OA
BRANCH  21  22
ATOM     22  C   UNK A   0      10.314  -2.485   5.298  0.00  0.00    +0.229 C 
ATOM     23  C   UNK A   0       9.749  -3.880   5.100  0.00  0.00    +0.048 C 
ENDBRANCH  21  22
ENDBRANCH  19  21
ENDBRANCH  17  19
ENDBRANCH  14  16
ENDBRANCH   1  12
BRANCH   1  24
ATOM     24  CB  ILE A   1       2.248   1.554   4.658  0.00  0.00    +0.015 C 
ATOM     25  CG2 ILE A   1       2.666   3.014   4.416  0.00  0.00    +0.010 C 
BRANCH  24  26
ATOM     26  CG1 ILE A   1       0.709   1.486   4.780  0.00  0.00    +0.002 C 
ATOM     27  CD1 ILE A   1       0.180   0.142   5.263  0.00  0.00    +0.004 C 
ENDBRANCH  24  26
ENDBRANCH   1  24
TORSDOF 11
