REMARK  Name = 
REMARK  8 active torsions:
REMARK  status: ('A' for Active; 'I' for Inactive)
REMARK    1  A    between atoms: C_2  and  C_3
REMARK    2  A    between atoms: C_2  and  N_4
REMARK    3  A    between atoms: C_2  and  C_23
REMARK    4  A    between atoms: C_7  and  N_9
REMARK    5  A    between atoms: N_9  and  S_10
REMARK    6  A    between atoms: S_10  and  C_13
REMARK    7  A    between atoms: C_13  and  C_14
REMARK    8  A    between atoms: C_14  and  C_15
REMARK                            x       y       z     vdW  Elec       q    Type
REMARK                         _______ _______ _______ _____ _____    ______ ____
ROOT
ATOM      1  N   UNL     1       2.718   1.252   0.444  0.00  0.00    -0.289 N 
ATOM      2  C   UNL     1       3.839   1.635  -0.280  0.00  0.00    +0.235 C 
ATOM      3  O   UNL     1       4.456   0.907  -1.031  0.00  0.00    -0.274 OA
ATOM      4  C   UNL     1       4.122   3.069   0.090  0.00  0.00    +0.163 C 
ATOM      5  C   UNL     1       2.690   3.594   0.234  0.00  0.00    +0.049 C 
ATOM      6  C   UNL     1       1.961   2.410   0.878  0.00  0.00    +0.110 C 
ENDROOT
BRANCH   1   7
ATOM      7  C   UNL     1       2.135  -0.076   0.250  0.00  0.00    +0.159 C 
ATOM      8  C   UNL     1       1.484  -0.172  -1.135  0.00  0.00    +0.038 C 
BRANCH   7   9
ATOM      9  C   UNL     1       3.159  -1.250   0.427  0.00  0.00    +0.236 C 
ATOM     10  N   UNL     1       4.070  -1.251   1.474  0.00  0.00    -0.296 N 
ATOM     11  C   UNL     1       4.139  -0.346   2.621  0.00  0.00    +0.136 C 
ATOM     12  C   UNL     1       5.529   0.304   2.712  0.00  0.00    +0.179 C 
ATOM     13  O   UNL     1       6.563  -0.694   2.746  0.00  0.00    -0.377 OA
ATOM     14  C   UNL     1       6.513  -1.506   1.558  0.00  0.00    +0.179 C 
ATOM     15  C   UNL     1       5.164  -2.229   1.455  0.00  0.00    +0.136 C 
ATOM     16  O   UNL     1       3.076  -2.242  -0.310  0.00  0.00    -0.274 OA
ENDBRANCH   7   9
ENDBRANCH   1   7
BRANCH   4  17
ATOM     17  N   UNL     1       4.938   3.864  -0.857  0.00  0.00    -0.183 NA
ATOM     18  H   UNL     1       4.853   4.855  -0.634  0.00  0.00    +0.148 HD
BRANCH  17  19
ATOM     19  S   UNL     1       6.587   3.399  -0.818  0.00  0.00    +0.030 S 
ATOM     20  O   UNL     1       6.761   2.077  -1.363  0.00  0.00    -0.158 OA
ATOM     21  O   UNL     1       7.046   3.724   0.515  0.00  0.00    -0.158 OA
BRANCH  19  22
ATOM     22  C   UNL     1       7.330   4.526  -1.971  0.00  0.00    +0.190 C 
BRANCH  22  23
ATOM     23  C   UNL     1       7.285   5.944  -1.444  0.00  0.00    +0.066 C 
BRANCH  23  24
ATOM     24  C   UNL     1       7.986   6.892  -2.357  0.00  0.00    -0.007 A 
ATOM     25  S   UNL     1       7.131   7.651  -3.634  0.00  0.00    -0.082 S 
ATOM     26  C   UNL     1       8.508   8.513  -4.101  0.00  0.00    +0.078 A 
ATOM     27 CL   UNL     1       8.418   9.607  -5.419  0.00  0.00    -0.076 Cl
ATOM     28  C   UNL     1       9.611   8.239  -3.335  0.00  0.00    +0.028 A 
ATOM     29  C   UNL     1       9.309   7.286  -2.319  0.00  0.00    +0.013 A 
ENDBRANCH  23  24
ENDBRANCH  22  23
ENDBRANCH  19  22
ENDBRANCH  17  19
ENDBRANCH   4  17
TORSDOF 7
