REMARK  Name = 
REMARK  4 active torsions:
REMARK  status: ('A' for Active; 'I' for Inactive)
REMARK    1  A    between atoms: C_2  and  C_3
REMARK    2  A    between atoms: C_3  and  C_4
REMARK    3  A    between atoms: C_7  and  N_10
REMARK    4  A    between atoms: C_23  and  N_26
REMARK                            x       y       z     vdW  Elec       q    Type
REMARK                         _______ _______ _______ _____ _____    ______ ____
ROOT
ATOM      1  O   UNL     1       1.191  -0.173   0.502  0.00  0.00    -0.275 OA
ATOM      2  C   UNL     1       2.343  -0.012   0.103  0.00  0.00    +0.223 C 
ATOM      3  N   UNL     1       3.102   1.123   0.309  0.00  0.00    -0.268 N 
ATOM      4  H   UNL     1       3.712   1.422  -0.439  0.00  0.00    +0.156 HD
ATOM      5  C   UNL     1       2.670   2.149   1.119  0.00  0.00    +0.154 A 
ATOM      6  C   UNL     1       2.090   2.077   2.421  0.00  0.00    +0.043 A 
ATOM      7  C   UNL     1       1.824   1.067   3.367  0.00  0.00    +0.038 A 
ATOM      8  C   UNL     1       1.310   1.431   4.615  0.00  0.00    +0.052 A 
ATOM      9  C   UNL     1       1.001   2.760   4.909  0.00  0.00    +0.027 A 
ATOM     10  C   UNL     1       1.246   3.777   3.981  0.00  0.00    +0.029 A 
ATOM     11  C   UNL     1       1.823   3.399   2.762  0.00  0.00    +0.068 A 
ATOM     12  N   UNL     1       2.256   4.132   1.690  0.00  0.00    -0.275 N 
ATOM     13  H   UNL     1       2.210   5.140   1.578  0.00  0.00    +0.189 HD
ATOM     14  N   UNL     1       2.862   3.412   0.735  0.00  0.00    -0.157 NA
ENDROOT
BRANCH   8  15
ATOM     15  N   UNL     1       1.131   0.431   5.599  0.00  0.00    -0.207 N 
ATOM     16  S   UNL     1       2.311   0.109   6.754  0.00  0.00    +0.046 S 
ATOM     17  O   UNL     1       2.781   1.345   7.335  0.00  0.00    -0.155 OA
ATOM     18  O   UNL     1       3.208  -0.896   6.224  0.00  0.00    -0.155 OA
ATOM     19  C   UNL     1       1.174  -0.682   7.886  0.00  0.00    +0.190 C 
ATOM     20  C   UNL     1      -0.225  -0.419   7.326  0.00  0.00    +0.045 C 
ATOM     21  C   UNL     1      -0.106  -0.309   5.805  0.00  0.00    +0.133 C 
ENDBRANCH   8  15
BRANCH   2  22
ATOM     22  C   UNL     1       3.062  -1.097  -0.679  0.00  0.00    +0.131 C 
BRANCH  22  23
ATOM     23  C   UNL     1       3.166  -0.849  -2.162  0.00  0.00    -0.039 A 
ATOM     24  C   UNL     1       2.029  -0.657  -2.947  0.00  0.00    +0.006 A 
ATOM     25  C   UNL     1       2.146  -0.438  -4.328  0.00  0.00    +0.023 A 
ATOM     26  C   UNL     1       3.388  -0.400  -4.983  0.00  0.00    +0.030 A 
ATOM     27  C   UNL     1       4.511  -0.643  -4.181  0.00  0.00    +0.023 A 
ATOM     28  C   UNL     1       4.408  -0.868  -2.800  0.00  0.00    +0.006 A 
BRANCH  26  29
ATOM     29  N   UNL     1       3.477  -0.170  -6.345  0.00  0.00    -0.330 N 
ATOM     30  C   UNL     1       2.555   0.745  -7.027  0.00  0.00    +0.105 C 
ATOM     31  C   UNL     1       1.987   0.049  -8.262  0.00  0.00    +0.019 C 
ATOM     32  C   UNL     1       3.107  -0.455  -9.172  0.00  0.00    +0.003 C 
ATOM     33  C   UNL     1       4.096  -1.323  -8.395  0.00  0.00    +0.019 C 
ATOM     34  C   UNL     1       4.622  -0.601  -7.151  0.00  0.00    +0.105 C 
ENDBRANCH  26  29
ENDBRANCH  22  23
ENDBRANCH   2  22
TORSDOF 4
