REMARK  Name = 
REMARK  5 active torsions:
REMARK  status: ('A' for Active; 'I' for Inactive)
REMARK    1  A    between atoms: C_1  and  C_2
REMARK    2  A    between atoms: C_7  and  O_8
REMARK    3  A    between atoms: O_8  and  C_9
REMARK    4  A    between atoms: C_11  and  C_17
REMARK    5  A    between atoms: C_13  and  C_15
REMARK                            x       y       z     vdW  Elec       q    Type
REMARK                         _______ _______ _______ _____ _____    ______ ____
ROOT
ATOM      1  C   UNL     1       1.003  -0.054   0.022  0.00  0.00    +0.068 C 
ATOM      2  C   UNL     1       2.486  -0.037   0.004  0.00  0.00    +0.071 A 
ATOM      3  C   UNL     1       3.387  -1.142   0.083  0.00  0.00    +0.067 A 
ATOM      4  C   UNL     1       3.275  -2.552   0.172  0.00  0.00    +0.174 A 
ATOM      5  C   UNL     1       4.472  -3.285   0.231  0.00  0.00    +0.166 A 
ATOM      6  C   UNL     1       5.723  -2.666   0.201  0.00  0.00    +0.044 A 
ATOM      7  C   UNL     1       5.840  -1.280   0.087  0.00  0.00    +0.031 A 
ATOM      8  F   UNL     1       4.450  -4.625   0.299  0.00  0.00    -0.202 F 
ATOM      9  C   UNL     1       4.650  -0.552   0.044  0.00  0.00    +0.070 A 
ATOM     10  N   UNL     1       4.425   0.795  -0.052  0.00  0.00    -0.277 N 
ATOM     11  H   UNL     1       5.115   1.537  -0.099  0.00  0.00    +0.189 HD
ATOM     12  N   UNL     1       3.130   1.134  -0.077  0.00  0.00    -0.178 NA
ENDROOT
BRANCH   4  13
ATOM     13  O   UNL     1       2.023  -3.108   0.028  0.00  0.00    -0.452 OA
BRANCH  13  14
ATOM     14  C   UNL     1       1.644  -4.264   0.667  0.00  0.00    +0.131 A 
ATOM     15  C   UNL     1       0.648  -5.003   0.015  0.00  0.00    +0.065 A 
ATOM     16  C   UNL     1       0.083  -6.134   0.618  0.00  0.00    +0.056 A 
ATOM     17  C   UNL     1       0.508  -6.520   1.893  0.00  0.00    +0.038 A 
ATOM     18  C   UNL     1       1.499  -5.780   2.552  0.00  0.00    +0.056 A 
ATOM     19  C   UNL     1       2.069  -4.655   1.937  0.00  0.00    +0.065 A 
BRANCH  16  20
ATOM     20  C   UNL     1      -0.932  -6.892  -0.062  0.00  0.00    +0.099 C 
ATOM     21  N   UNL     1      -1.752  -7.507  -0.614  0.00  0.00    -0.191 NA
ENDBRANCH  16  20
BRANCH  18  22
ATOM     22  C   UNL     1       1.911  -6.151   3.874  0.00  0.00    +0.099 C 
ATOM     23  N   UNL     1       2.230  -6.441   4.951  0.00  0.00    -0.191 NA
ENDBRANCH  18  22
ENDBRANCH  13  14
ENDBRANCH   4  13
TORSDOF 4
