REMARK  Name = 
REMARK  4 active torsions:
REMARK  status: ('A' for Active; 'I' for Inactive)
REMARK    1  A    between atoms: C_2  and  C_3
REMARK    2  A    between atoms: C_3  and  N_4
REMARK    3  A    between atoms: C_13  and  O_14
REMARK    4  A    between atoms: O_14  and  C_15
REMARK                            x       y       z     vdW  Elec       q    Type
REMARK                         _______ _______ _______ _____ _____    ______ ____
ROOT
ATOM      1  C   UNL     1       2.279   0.025  -0.165  0.00  0.00    +0.104 C 
ATOM      2  N   UNL     1       2.712   1.259   0.500  0.00  0.00    -0.305 N 
ATOM      3  H   UNL     1       2.215   2.078   0.173  0.00  0.00    +0.149 HD
ATOM      4  C   UNL     1       4.013   1.649   0.716  0.00  0.00    +0.253 C 
ATOM      5  O   UNL     1       4.275   2.835   0.499  0.00  0.00    -0.270 OA
ATOM      6  C   UNL     1       4.907   0.706   1.335  0.00  0.00    +0.096 A 
ATOM      7  S   UNL     1       6.021   1.315   2.480  0.00  0.00    -0.082 S 
ATOM      8  C   UNL     1       6.465  -0.257   2.998  0.00  0.00    +0.022 A 
ATOM      9  C   UNL     1       7.285  -0.571   4.096  0.00  0.00    +0.019 A 
ATOM     10  C   UNL     1       7.519  -1.911   4.407  0.00  0.00    +0.047 A 
ATOM     11  C   UNL     1       6.986  -2.924   3.620  0.00  0.00    +0.121 A 
ATOM     12  C   UNL     1       6.197  -2.596   2.507  0.00  0.00    +0.056 A 
ATOM     13  C   UNL     1       5.899  -1.243   2.190  0.00  0.00    +0.014 A 
ATOM     14  C   UNL     1       5.020  -0.659   1.204  0.00  0.00    +0.055 A 
ATOM     15  N   UNL     1       4.325  -1.390   0.288  0.00  0.00    -0.341 N 
ATOM     16  H   UNL     1       4.619  -2.362   0.189  0.00  0.00    +0.146 HD
ATOM     17  C   UNL     1       2.867  -1.311   0.345  0.00  0.00    +0.125 C 
ENDROOT
BRANCH  11  18
ATOM     18  O   UNL     1       7.141  -4.266   3.838  0.00  0.00    -0.495 OA
ATOM     19  C   UNL     1       7.874  -4.643   4.998  0.00  0.00    +0.277 C 
ENDBRANCH  11  18
BRANCH   1  20
ATOM     20  C   UNL     1       0.730  -0.073  -0.072  0.00  0.00    +0.101 C 
BRANCH  20  21
ATOM     21  N   UNL     1       0.022   1.170  -0.388  0.00  0.00    -0.328 NA
ATOM     22  H   UNL     1       0.129   1.833   0.380  0.00  0.00    +0.118 HD
ATOM     23  H   UNL     1       0.420   1.608  -1.216  0.00  0.00    +0.118 HD
ENDBRANCH  20  21
ENDBRANCH   1  20
TORSDOF 3
