REMARK  Name = 
REMARK  9 active torsions:
REMARK  status: ('A' for Active; 'I' for Inactive)
REMARK    1  A    between atoms: O_1  and  C_2
REMARK    2  A    between atoms: C_2  and  C_3
REMARK    3  A    between atoms: C_2  and  C_24
REMARK    4  A    between atoms: C_2  and  C_28
REMARK    5  A    between atoms: C_6  and  N_9
REMARK    6  A    between atoms: N_9  and  C_10
REMARK    7  A    between atoms: N_9  and  S_15
REMARK    8  A    between atoms: C_10  and  C_11
REMARK    9  A    between atoms: S_15  and  C_18
REMARK                            x       y       z     vdW  Elec       q    Type
REMARK                         _______ _______ _______ _____ _____    ______ ____
ROOT
ATOM      1  C   UNL     1       2.919   1.163  -0.937  0.00  0.00    +0.002 A 
ATOM      2  C   UNL     1       1.796   1.841  -1.452  0.00  0.00    +0.009 A 
ATOM      3  C   UNL     1       1.932   3.040  -2.174  0.00  0.00    +0.025 A 
ATOM      4  C   UNL     1       3.193   3.584  -2.410  0.00  0.00    +0.052 A 
ATOM      5  C   UNL     1       4.317   2.895  -1.957  0.00  0.00    +0.025 A 
ATOM      6  C   UNL     1       4.185   1.713  -1.220  0.00  0.00    +0.009 A 
ENDROOT
BRANCH   1   7
ATOM      7  C   UNL     1       2.762  -0.121  -0.082  0.00  0.00    +0.282 C 
BRANCH   7   8
ATOM      8  C   UNL     1       1.940   0.143   1.215  0.00  0.00    +0.431 C 
ATOM      9  F   UNL     1       0.839  -0.619   1.370  0.00  0.00    -0.167 F 
ATOM     10  F   UNL     1       1.506   1.428   1.300  0.00  0.00    -0.167 F 
ATOM     11  F   UNL     1       2.691  -0.060   2.331  0.00  0.00    -0.167 F 
ENDBRANCH   7   8
BRANCH   7  12
ATOM     12  C   UNL     1       2.135  -1.294  -0.882  0.00  0.00    +0.431 C 
ATOM     13  F   UNL     1       1.903  -0.971  -2.179  0.00  0.00    -0.167 F 
ATOM     14  F   UNL     1       0.985  -1.809  -0.413  0.00  0.00    -0.167 F 
ATOM     15  F   UNL     1       3.024  -2.331  -0.931  0.00  0.00    -0.167 F 
ENDBRANCH   7  12
BRANCH   7  16
ATOM     16  O   UNL     1       4.134  -0.505   0.310  0.00  0.00    -0.369 OA
ATOM     17  H   UNL     1       4.492  -1.073  -0.399  0.00  0.00    +0.211 HD
ENDBRANCH   7  16
ENDBRANCH   1   7
BRANCH   4  18
ATOM     18  N   UNL     1       3.396   4.785  -3.177  0.00  0.00    -0.194 N 
BRANCH  18  19
ATOM     19  S   UNL     1       3.629   4.572  -4.867  0.00  0.00    +0.075 S 
ATOM     20  O   UNL     1       4.465   3.415  -5.091  0.00  0.00    -0.150 OA
ATOM     21  O   UNL     1       3.983   5.859  -5.427  0.00  0.00    -0.150 OA
BRANCH  19  22
ATOM     22  C   UNL     1       1.992   4.182  -5.465  0.00  0.00    +0.109 A 
ATOM     23  C   UNL     1       1.621   2.845  -5.637  0.00  0.00    +0.029 A 
ATOM     24  C   UNL     1       0.349   2.543  -6.118  0.00  0.00    +0.002 A 
ATOM     25  C   UNL     1      -0.540   3.570  -6.447  0.00  0.00    +0.000 A 
ATOM     26  C   UNL     1      -0.155   4.904  -6.302  0.00  0.00    +0.002 A 
ATOM     27  C   UNL     1       1.118   5.215  -5.825  0.00  0.00    +0.029 A 
ENDBRANCH  19  22
ENDBRANCH  18  19
BRANCH  18  28
ATOM     28  C   UNL     1       2.638   6.027  -2.802  0.00  0.00    +0.244 C 
BRANCH  28  29
ATOM     29  C   UNL     1       2.823   6.541  -1.373  0.00  0.00    +0.407 C 
ATOM     30  F   UNL     1       1.648   6.473  -0.698  0.00  0.00    -0.169 F 
ATOM     31  F   UNL     1       3.191   7.847  -1.383  0.00  0.00    -0.169 F 
ATOM     32  F   UNL     1       3.745   5.870  -0.657  0.00  0.00    -0.169 F 
ENDBRANCH  28  29
ENDBRANCH  18  28
ENDBRANCH   4  18
TORSDOF 9
