REMARK  Name = 
REMARK  5 active torsions:
REMARK  status: ('A' for Active; 'I' for Inactive)
REMARK    1  A    between atoms: C_2  and  C_5
REMARK    2  A    between atoms: C_9  and  N_10
REMARK    3  A    between atoms: N_14  and  C_15
REMARK    4  A    between atoms: C_17  and  N_18
REMARK    5  A    between atoms: C_19  and  C_21
REMARK                            x       y       z     vdW  Elec       q    Type
REMARK                         _______ _______ _______ _____ _____    ______ ____
ROOT
ATOM      1  N   UNL     1       2.495  -4.653   1.565  0.00  0.00    -0.299 N 
ATOM      2  H   UNL     1       2.385  -5.128   2.453  0.00  0.00    +0.154 HD
ATOM      3  C   UNL     1       1.514  -5.065   0.635  0.00  0.00    +0.128 A 
ATOM      4  C   UNL     1       1.415  -6.416   0.386  0.00  0.00    +0.063 A 
ATOM      5  C   UNL     1       0.507  -6.794  -0.566  0.00  0.00    +0.118 A 
ATOM      6  N   UNL     1      -0.292  -5.929  -1.201  0.00  0.00    -0.223 NA
ATOM      7  C   UNL     1      -0.164  -4.628  -0.893  0.00  0.00    +0.221 A 
ATOM      8  N   UNL     1      -0.974  -3.666  -1.497  0.00  0.00    -0.284 N 
ATOM      9  H   UNL     1      -0.699  -2.744  -1.185  0.00  0.00    +0.155 HD
ATOM     10  N   UNL     1       0.739  -4.172  -0.012  0.00  0.00    -0.199 NA
ENDROOT
BRANCH   1  13
ATOM     11  C   UNL     1       4.010  -1.351   0.655  0.00  0.00    +0.057 A 
ATOM     12  C   UNL     1       3.193  -2.493   0.619  0.00  0.00    +0.035 A 
ATOM     13  C   UNL     1       3.190  -3.433   1.654  0.00  0.00    +0.033 A 
ATOM     14  C   UNL     1       4.059  -3.220   2.734  0.00  0.00    +0.023 A 
ATOM     15  C   UNL     1       4.882  -2.090   2.788  0.00  0.00    +0.002 A 
ATOM     16  C   UNL     1       4.858  -1.159   1.752  0.00  0.00    +0.012 A 
BRANCH  11  18
ATOM     17  F   UNL     1       4.848   0.643  -0.385  0.00  0.00    -0.166 F 
ATOM     18  C   UNL     1       3.959  -0.384  -0.497  0.00  0.00    +0.417 C 
ATOM     19  F   UNL     1       4.230  -0.979  -1.692  0.00  0.00    -0.166 F 
ATOM     20  F   UNL     1       2.735   0.198  -0.638  0.00  0.00    -0.166 F 
ENDBRANCH  11  18
ENDBRANCH   1  13
BRANCH   8  21
ATOM     21  C   UNL     1      -2.239  -3.758  -2.101  0.00  0.00    +0.035 A 
ATOM     22  C   UNL     1      -2.953  -4.958  -2.201  0.00  0.00    +0.023 A 
ATOM     23  C   UNL     1      -4.176  -5.022  -2.869  0.00  0.00    +0.004 A 
ATOM     24  C   UNL     1      -4.713  -3.876  -3.446  0.00  0.00    +0.023 A 
ATOM     25  C   UNL     1      -4.044  -2.654  -3.339  0.00  0.00    +0.035 A 
ATOM     26  C   UNL     1      -2.798  -2.613  -2.699  0.00  0.00    +0.046 A 
BRANCH  25  27
ATOM     27  N   UNL     1      -4.695  -1.519  -3.868  0.00  0.00    -0.285 N 
ATOM     28  H   UNL     1      -5.550  -1.696  -4.374  0.00  0.00    +0.155 HD
ATOM     29  C   UNL     1      -4.399  -0.200  -3.595  0.00  0.00    +0.220 C 
ATOM     30  O   UNL     1      -3.493   0.210  -2.882  0.00  0.00    -0.275 OA
BRANCH  29  31
ATOM     31  C   UNL     1      -5.325   0.818  -4.185  0.00  0.00    +0.075 C 
ATOM     32  C   UNL     1      -6.817   0.716  -3.951  0.00  0.00    +0.013 C 
ATOM     33  C   UNL     1      -6.265   0.586  -5.341  0.00  0.00    +0.013 C 
ENDBRANCH  29  31
ENDBRANCH  25  27
ENDBRANCH   8  21
TORSDOF 5
