REMARK  Name = 
REMARK  6 active torsions:
REMARK  status: ('A' for Active; 'I' for Inactive)
REMARK    1  A    between atoms: C_2  and  C_5
REMARK    2  A    between atoms: C_8  and  S_10
REMARK    3  A    between atoms: S_10  and  C_11
REMARK    4  A    between atoms: C_11  and  C_13
REMARK    5  A    between atoms: C_16  and  C_18
REMARK    6  A    between atoms: C_19  and  C_20
REMARK                            x       y       z     vdW  Elec       q    Type
REMARK                         _______ _______ _______ _____ _____    ______ ____
ROOT
ATOM      1  C   UNL     1       2.408  -5.362   2.181  0.00  0.00    +0.262 C 
ATOM      2  O   UNL     1       2.591  -4.882   1.068  0.00  0.00    -0.276 OA
ENDROOT
BRANCH   1   3
ATOM      3  C   UNL     1       2.339  -6.786   2.452  0.00  0.00    +0.183 A 
ATOM      4  O   UNL     1       1.994  -7.281   3.692  0.00  0.00    -0.443 OA
ATOM      5  C   UNL     1       2.008  -8.638   3.592  0.00  0.00    +0.179 A 
ATOM      6  C   UNL     1       2.353  -9.036   2.325  0.00  0.00    +0.059 A 
ATOM      7  C   UNL     1       2.561  -7.848   1.588  0.00  0.00    +0.055 A 
BRANCH   5   8
ATOM      8  C   UNL     1       1.681  -9.416   4.731  0.00  0.00    -0.023 C 
ATOM      9  C   UNL     1       1.418 -10.179   5.622  0.00  0.00    -0.058 C 
BRANCH   9  10
ATOM     10  C   UNL     1       1.121 -11.166   6.620  0.00  0.00    +0.025 A 
ATOM     11  C   UNL     1       0.323 -10.846   7.721  0.00  0.00    +0.017 A 
ATOM     12  C   UNL     1       0.031 -11.819   8.682  0.00  0.00    +0.001 A 
ATOM     13  C   UNL     1       0.533 -13.113   8.544  0.00  0.00    +0.000 A 
ATOM     14  C   UNL     1       1.327 -13.437   7.445  0.00  0.00    +0.001 A 
ATOM     15  C   UNL     1       1.621 -12.465   6.484  0.00  0.00    +0.017 A 
ENDBRANCH   9  10
ENDBRANCH   5   8
ENDBRANCH   1   3
BRANCH   1  16
ATOM     16  S   UNL     1       2.116  -4.304   3.560  0.00  0.00    -0.004 S 
BRANCH  16  20
ATOM     17  C   UNL     1       5.395  -3.650   5.419  0.00  0.00    +0.236 A 
ATOM     18  N   UNL     1       4.056  -3.441   5.201  0.00  0.00    -0.313 N 
ATOM     19  H   UNL     1       3.415  -2.909   5.772  0.00  0.00    +0.169 HD
ATOM     20  C   UNL     1       3.743  -4.166   4.092  0.00  0.00    +0.197 A 
ATOM     21  N   UNL     1       4.822  -4.722   3.604  0.00  0.00    -0.122 NA
ATOM     22  N   UNL     1       5.869  -4.396   4.437  0.00  0.00    -0.124 NA
BRANCH  17  24
ATOM     23  F   UNL     1       7.397  -3.479   6.683  0.00  0.00    -0.163 F 
ATOM     24  C   UNL     1       6.093  -3.117   6.610  0.00  0.00    +0.452 C 
ATOM     25  F   UNL     1       6.051  -1.759   6.647  0.00  0.00    -0.163 F 
ATOM     26  F   UNL     1       5.497  -3.544   7.756  0.00  0.00    -0.163 F 
ENDBRANCH  17  24
ENDBRANCH  16  20
ENDBRANCH   1  16
TORSDOF 6
