REMARK  Name = 
REMARK  6 active torsions:
REMARK  status: ('A' for Active; 'I' for Inactive)
REMARK    1  A    between atoms: O_1  and  C_2
REMARK    2  A    between atoms: C_2  and  C_3
REMARK    3  A    between atoms: C_7  and  C_8
REMARK    4  A    between atoms: C_14  and  C_17
REMARK    5  A    between atoms: C_24  and  C_25
REMARK    6  A    between atoms: C_25  and  N_26
REMARK                            x       y       z     vdW  Elec       q    Type
REMARK                         _______ _______ _______ _____ _____    ______ ____
ROOT
ATOM      1  C   UNL     1       3.628   0.072  -2.782  0.00  0.00    +0.006 A 
ATOM      2  C   UNL     1       4.637   0.312  -3.722  0.00  0.00    +0.011 A 
ATOM      3  C   UNL     1       5.332  -0.737  -4.329  0.00  0.00    +0.013 A 
ATOM      4  C   UNL     1       5.016  -2.062  -3.987  0.00  0.00    +0.029 A 
ATOM      5  C   UNL     1       5.407  -3.365  -4.403  0.00  0.00    +0.116 A 
ATOM      6  N   UNL     1       4.832  -4.326  -3.665  0.00  0.00    -0.171 NA
ATOM      7  N   UNL     1       3.979  -3.645  -2.877  0.00  0.00    -0.276 N 
ATOM      8  H   UNL     1       3.378  -4.173  -2.253  0.00  0.00    +0.189 HD
ATOM      9  C   UNL     1       4.028  -2.285  -3.032  0.00  0.00    +0.067 A 
ATOM     10  C   UNL     1       3.292  -1.250  -2.439  0.00  0.00    +0.038 A 
ENDROOT
BRANCH   5  11
ATOM     11  C   UNL     1       6.245  -3.717  -5.576  0.00  0.00    +0.068 A 
ATOM     12  N   UNL     1       6.589  -5.001  -5.907  0.00  0.00    -0.353 N 
ATOM     13  H   UNL     1       6.354  -5.806  -5.345  0.00  0.00    +0.166 HD
ATOM     14  C   UNL     1       7.133  -5.032  -7.172  0.00  0.00    +0.047 A 
ATOM     15  C   UNL     1       7.550  -6.110  -7.954  0.00  0.00    +0.026 A 
ATOM     16  C   UNL     1       7.940  -5.833  -9.270  0.00  0.00    +0.007 A 
ATOM     17  C   UNL     1       7.916  -4.534  -9.801  0.00  0.00    -0.033 A 
ATOM     18  C   UNL     1       7.575  -3.460  -8.961  0.00  0.00    +0.015 A 
ATOM     19  C   UNL     1       7.172  -3.717  -7.634  0.00  0.00    +0.001 A 
ATOM     20  C   UNL     1       6.704  -2.891  -6.577  0.00  0.00    +0.037 A 
BRANCH  17  21
ATOM     21  C   UNL     1       8.208  -4.314 -11.280  0.00  0.00    +0.119 C 
BRANCH  21  22
ATOM     22  N   UNL     1       7.390  -5.192 -12.132  0.00  0.00    -0.298 NA
ATOM     23  C   UNL     1       7.951  -5.449 -13.456  0.00  0.00    +0.085 C 
ATOM     24  C   UNL     1       7.737  -4.350 -14.498  0.00  0.00    +0.015 C 
ATOM     25  C   UNL     1       6.336  -3.744 -14.500  0.00  0.00    +0.002 C 
ATOM     26  C   UNL     1       5.739  -3.579 -13.108  0.00  0.00    +0.015 C 
ATOM     27  C   UNL     1       5.981  -4.801 -12.223  0.00  0.00    +0.085 C 
ENDBRANCH  21  22
ENDBRANCH  17  21
ENDBRANCH   5  11
BRANCH   1  29
ATOM     28  C   UNL     1       2.479   1.373  -0.825  0.00  0.00    +0.116 A 
ATOM     29  C   UNL     1       2.975   1.217  -2.152  0.00  0.00    +0.118 A 
ATOM     30  N   UNL     1       2.833   2.391  -2.796  0.00  0.00    -0.154 NA
ATOM     31  N   UNL     1       2.259   3.158  -1.864  0.00  0.00    -0.196 N 
ATOM     32  H   UNL     1       2.019   4.126  -2.064  0.00  0.00    +0.213 HD
ATOM     33  N   UNL     1       2.038   2.631  -0.653  0.00  0.00    -0.157 NA
BRANCH  28  34
ATOM     34  C   UNL     1       2.463   0.396   0.296  0.00  0.00    +0.215 C 
BRANCH  34  35
ATOM     35  O   UNL     1       1.301  -0.432   0.266  0.00  0.00    -0.389 OA
ATOM     36  H   UNL     1       1.184  -0.775   1.167  0.00  0.00    +0.210 HD
ENDBRANCH  34  35
ENDBRANCH  28  34
ENDBRANCH   1  29
TORSDOF 6
