REMARK  Name = 
REMARK  7 active torsions:
REMARK  status: ('A' for Active; 'I' for Inactive)
REMARK    1  A    between atoms: O_1  and  C_2
REMARK    2  A    between atoms: C_2  and  C_4
REMARK    3  A    between atoms: C_4  and  O_5
REMARK    4  A    between atoms: O_5  and  C_6
REMARK    5  A    between atoms: C_7  and  C_18
REMARK    6  A    between atoms: C_9  and  C_12
REMARK    7  A    between atoms: C_18  and  O_19
REMARK                            x       y       z     vdW  Elec       q    Type
REMARK                         _______ _______ _______ _____ _____    ______ ____
ROOT
ATOM      1  C   UNL     1       5.612  -0.512  -2.139  0.00  0.00    +0.157 A 
ATOM      2  C   UNL     1       5.886  -1.884  -2.464  0.00  0.00    +0.075 A 
ATOM      3 BR   UNL     1       5.250  -3.349  -1.429  0.00  0.00    -0.045 Br
ATOM      4  C   UNL     1       6.704  -2.031  -3.575  0.00  0.00    +0.038 A 
ATOM      5  S   UNL     1       7.233  -0.491  -4.124  0.00  0.00    -0.077 S 
ATOM      6  C   UNL     1       6.344   0.352  -2.936  0.00  0.00    +0.139 A 
ENDROOT
BRANCH   4   7
ATOM      7  C   UNL     1       7.135  -3.227  -4.328  0.00  0.00    -0.010 A 
ATOM      8  C   UNL     1       6.220  -4.251  -4.619  0.00  0.00    +0.009 A 
ATOM      9  C   UNL     1       6.590  -5.351  -5.398  0.00  0.00    +0.001 A 
ATOM     10  C   UNL     1       7.875  -5.434  -5.922  0.00  0.00    +0.000 A 
ATOM     11  C   UNL     1       8.802  -4.435  -5.641  0.00  0.00    +0.001 A 
ATOM     12  C   UNL     1       8.440  -3.348  -4.839  0.00  0.00    +0.009 A 
ENDBRANCH   4   7
BRANCH   6  13
ATOM     13  C   UNL     1       6.386   1.805  -2.862  0.00  0.00    +0.347 C 
ATOM     14  O   UNL     1       5.707   2.485  -2.107  0.00  0.00    -0.244 OA
BRANCH  13  15
ATOM     15  O   UNL     1       7.272   2.366  -3.725  0.00  0.00    -0.477 OA
ATOM     16  H   UNL     1       7.739   1.699  -4.266  0.00  0.00    +0.295 HD
ENDBRANCH  13  15
ENDBRANCH   6  13
BRANCH   1  17
ATOM     17  O   UNL     1       4.850   0.013  -1.138  0.00  0.00    -0.478 OA
BRANCH  17  18
ATOM     18  C   UNL     1       3.569  -0.587  -0.963  0.00  0.00    +0.349 C 
BRANCH  18  19
ATOM     19  C   UNL     1       2.554   0.414  -0.432  0.00  0.00    +0.343 C 
ATOM     20  O   UNL     1       1.409   0.117  -0.130  0.00  0.00    -0.247 OA
BRANCH  19  21
ATOM     21  O   UNL     1       3.028   1.678  -0.322  0.00  0.00    -0.478 OA
ATOM     22  H   UNL     1       3.962   1.757  -0.630  0.00  0.00    +0.295 HD
ENDBRANCH  19  21
ENDBRANCH  18  19
ENDBRANCH  17  18
ENDBRANCH   1  17
TORSDOF 7
