REMARK  Name = 
REMARK  11 active torsions:
REMARK  status: ('A' for Active; 'I' for Inactive)
REMARK    1  A    between atoms: O_1  and  C_2
REMARK    2  A    between atoms: C_2  and  C_3
REMARK    3  A    between atoms: C_2  and  P_22
REMARK    4  A    between atoms: C_2  and  P_26
REMARK    5  A    between atoms: C_3  and  C_4
REMARK    6  A    between atoms: C_8  and  C_10
REMARK    7  A    between atoms: C_13  and  C_16
REMARK    8  A    between atoms: P_22  and  O_23
REMARK    9  A    between atoms: P_22  and  O_24
REMARK   10  A    between atoms: P_26  and  O_27
REMARK   11  A    between atoms: P_26  and  O_28
REMARK                            x       y       z     vdW  Elec       q    Type
REMARK                         _______ _______ _______ _____ _____    ______ ____
ROOT
ATOM      1  C   UNL     1       2.201  -1.217   2.230  0.00  0.00    -0.043 A 
ATOM      2  C   UNL     1       2.034  -0.025   2.956  0.00  0.00    +0.012 A 
ATOM      3  C   UNL     1       1.403   0.006   4.220  0.00  0.00    -0.018 A 
ATOM      4  C   UNL     1       1.051  -1.230   4.782  0.00  0.00    +0.008 A 
ATOM      5  C   UNL     1       1.279  -2.429   4.090  0.00  0.00    +0.001 A 
ATOM      6  C   UNL     1       1.833  -2.421   2.829  0.00  0.00    +0.004 A 
ENDROOT
BRANCH   3   7
ATOM      7  C   UNL     1       1.021   1.296   4.850  0.00  0.00    -0.018 A 
ATOM      8  C   UNL     1       0.727   2.412   4.052  0.00  0.00    +0.009 A 
ATOM      9  C   UNL     1       0.210   3.594   4.590  0.00  0.00    +0.009 A 
ATOM     10  C   UNL     1      -0.072   3.717   5.956  0.00  0.00    -0.018 A 
ATOM     11  C   UNL     1       0.284   2.631   6.772  0.00  0.00    +0.009 A 
ATOM     12  C   UNL     1       0.829   1.449   6.233  0.00  0.00    +0.009 A 
BRANCH  10  13
ATOM     13  C   UNL     1      -0.770   4.914   6.480  0.00  0.00    -0.018 A 
ATOM     14  C   UNL     1      -1.746   5.576   5.706  0.00  0.00    +0.008 A 
ATOM     15  C   UNL     1      -2.438   6.693   6.185  0.00  0.00    +0.001 A 
ATOM     16  C   UNL     1      -2.176   7.168   7.464  0.00  0.00    +0.000 A 
ATOM     17  C   UNL     1      -1.220   6.534   8.254  0.00  0.00    +0.001 A 
ATOM     18  C   UNL     1      -0.521   5.424   7.765  0.00  0.00    +0.008 A 
ENDBRANCH  10  13
ENDBRANCH   3   7
BRANCH   1  19
ATOM     19  C   UNL     1       2.783  -1.184   0.840  0.00  0.00    +0.095 C 
BRANCH  19  20
ATOM     20  C   UNL     1       1.816  -0.908  -0.319  0.00  0.00    +0.271 C 
BRANCH  20  21
ATOM     21  O   UNL     1       2.633  -0.929  -1.543  0.00  0.00    -0.367 OA
ATOM     22  H   UNL     1       2.902   0.011  -1.647  0.00  0.00    +0.212 HD
ENDBRANCH  20  21
BRANCH  20  23
ATOM     23  P   UNL     1       0.549  -2.261  -0.542  0.00  0.00    +0.371 P 
ATOM     24  O   UNL     1       0.761  -3.574   0.143  0.00  0.00    -0.255 OA
BRANCH  23  25
ATOM     25  O   UNL     1       0.432  -2.401  -2.142  0.00  0.00    -0.322 OA
ATOM     26  H   UNL     1       1.097  -1.823  -2.584  0.00  0.00    +0.220 HD
ENDBRANCH  23  25
BRANCH  23  27
ATOM     27  O   UNL     1      -0.859  -1.574  -0.200  0.00  0.00    -0.322 OA
ATOM     28  H   UNL     1      -1.602  -2.203  -0.295  0.00  0.00    +0.220 HD
ENDBRANCH  23  27
ENDBRANCH  20  23
BRANCH  20  29
ATOM     29  P   UNL     1       0.834   0.634  -0.253  0.00  0.00    +0.371 P 
ATOM     30  O   UNL     1       0.003   1.940  -0.196  0.00  0.00    -0.255 OA
BRANCH  29  31
ATOM     31  O   UNL     1       0.582   0.499  -1.880  0.00  0.00    -0.322 OA
ATOM     32  H   UNL     1      -0.169   1.080  -2.123  0.00  0.00    +0.220 HD
ENDBRANCH  29  31
BRANCH  29  33
ATOM     33  O   UNL     1       2.239   1.493  -0.386  0.00  0.00    -0.322 OA
ATOM     34  H   UNL     1       1.978   2.438  -0.451  0.00  0.00    +0.220 HD
ENDBRANCH  29  33
ENDBRANCH  20  29
ENDBRANCH  19  20
ENDBRANCH   1  19
TORSDOF 11
