REMARK  Name = 
REMARK  5 active torsions:
REMARK  status: ('A' for Active; 'I' for Inactive)
REMARK    1  A    between atoms: C_1  and  C_2
REMARK    2  A    between atoms: C_2  and  C_3
REMARK    3  A    between atoms: C_6  and  O_7
REMARK    4  A    between atoms: N_12  and  C_13
REMARK    5  A    between atoms: C_16  and  O_17
REMARK                            x       y       z     vdW  Elec       q    Type
REMARK                         _______ _______ _______ _____ _____    ______ ____
ROOT
ATOM      1  C   UNL     1       2.812   0.857   0.975  0.00  0.00    +0.053 A 
ATOM      2  N   UNL     1       3.457   0.436   2.146  0.00  0.00    -0.236 N 
ATOM      3  N   UNL     1       3.825   1.487   2.934  0.00  0.00    -0.166 NA
ATOM      4  C   UNL     1       3.307   2.581   2.368  0.00  0.00    +0.094 A 
ATOM      5  C   UNL     1       3.291   3.913   2.821  0.00  0.00    +0.034 A 
ATOM      6  C   UNL     1       2.682   4.815   1.921  0.00  0.00    +0.047 A 
ATOM      7  C   UNL     1       2.158   4.419   0.658  0.00  0.00    +0.118 A 
ATOM      8  C   UNL     1       2.161   3.098   0.177  0.00  0.00    +0.057 A 
ATOM      9  C   UNL     1       2.729   2.228   1.105  0.00  0.00    +0.027 A 
ENDROOT
BRANCH   2  10
ATOM     10  C   UNL     1       3.751  -0.880   2.605  0.00  0.00    +0.066 A 
ATOM     11  C   UNL     1       4.871  -1.075   3.437  0.00  0.00    +0.031 A 
ATOM     12  C   UNL     1       5.182  -2.348   3.921  0.00  0.00    +0.047 A 
ATOM     13  C   UNL     1       4.361  -3.423   3.602  0.00  0.00    +0.117 A 
ATOM     14  C   UNL     1       3.238  -3.247   2.800  0.00  0.00    +0.047 A 
ATOM     15  C   UNL     1       2.932  -1.974   2.304  0.00  0.00    +0.031 A 
BRANCH  13  16
ATOM     16  O   UNL     1       4.679  -4.643   4.119  0.00  0.00    -0.507 OA
ATOM     17  H   UNL     1       3.953  -5.259   3.932  0.00  0.00    +0.292 HD
ENDBRANCH  13  16
ENDBRANCH   2  10
BRANCH   1  19
ATOM     18  C   UNL     1       0.881  -0.050  -0.333  0.00  0.00    +0.010 C 
ATOM     19  C   UNL     1       2.399  -0.004  -0.176  0.00  0.00    +0.053 C 
ENDBRANCH   1  19
BRANCH   7  20
ATOM     20  O   UNL     1       1.613   5.417  -0.116  0.00  0.00    -0.507 OA
ATOM     21  H   UNL     1       1.302   5.027  -0.949  0.00  0.00    +0.292 HD
ENDBRANCH   7  20
TORSDOF 4
