REMARK  Name = 
REMARK  5 active torsions:
REMARK  status: ('A' for Active; 'I' for Inactive)
REMARK    1  A    between atoms: O_1  and  C_2
REMARK    2  A    between atoms: C_2  and  C_3
REMARK    3  A    between atoms: C_3  and  N_4
REMARK    4  A    between atoms: C_11  and  C_20
REMARK    5  A    between atoms: C_12  and  C_14
REMARK                            x       y       z     vdW  Elec       q    Type
REMARK                         _______ _______ _______ _____ _____    ______ ____
ROOT
ATOM      1  N   UNL     1       4.390  -1.017   1.444  0.00  0.00    -0.326 N 
ATOM      2  H   UNL     1       4.055  -0.120   1.137  0.00  0.00    +0.148 HD
ATOM      3  C   UNL     1       5.079  -0.974   2.657  0.00  0.00    +0.132 A 
ATOM      4  C   UNL     1       5.576   0.189   3.313  0.00  0.00    +0.067 A 
ATOM      5  C   UNL     1       5.710   1.639   3.099  0.00  0.00    +0.020 A 
ATOM      6  C   UNL     1       6.292   2.178   4.268  0.00  0.00    +0.057 A 
ATOM      7  N   UNL     1       6.517   1.119   5.114  0.00  0.00    -0.338 N 
ATOM      8  H   UNL     1       6.930   1.183   6.030  0.00  0.00    +0.167 HD
ATOM      9  C   UNL     1       6.148  -0.060   4.558  0.00  0.00    +0.144 A 
ATOM     10  N   UNL     1       6.307  -1.224   5.200  0.00  0.00    -0.218 NA
ATOM     11  C   UNL     1       5.857  -2.241   4.473  0.00  0.00    +0.225 A 
ATOM     12  N   UNL     1       5.267  -2.175   3.274  0.00  0.00    -0.220 NA
ENDROOT
BRANCH   5  13
ATOM     13  C   UNL     1       5.399   2.472   1.916  0.00  0.00    -0.015 A 
ATOM     14  C   UNL     1       6.270   3.496   1.490  0.00  0.00    +0.008 A 
ATOM     15  C   UNL     1       5.928   4.371   0.449  0.00  0.00    +0.001 A 
ATOM     16  C   UNL     1       4.754   4.170  -0.265  0.00  0.00    +0.000 A 
ATOM     17  C   UNL     1       3.901   3.134   0.103  0.00  0.00    +0.001 A 
ATOM     18  C   UNL     1       4.196   2.332   1.216  0.00  0.00    +0.008 A 
ENDBRANCH   5  13
BRANCH   6  19
ATOM     19  C   UNL     1       6.704   3.534   4.688  0.00  0.00    -0.001 A 
ATOM     20  C   UNL     1       7.907   3.724   5.392  0.00  0.00    +0.010 A 
ATOM     21  C   UNL     1       8.379   5.007   5.681  0.00  0.00    +0.001 A 
ATOM     22  C   UNL     1       7.659   6.122   5.259  0.00  0.00    +0.000 A 
ATOM     23  C   UNL     1       6.440   5.951   4.608  0.00  0.00    +0.001 A 
ATOM     24  C   UNL     1       5.951   4.666   4.356  0.00  0.00    +0.010 A 
ENDBRANCH   6  19
BRANCH   1  25
ATOM     25  C   UNL     1       3.372  -2.075   1.330  0.00  0.00    +0.130 C 
BRANCH  25  26
ATOM     26  C   UNL     1       2.248  -1.960   2.376  0.00  0.00    +0.174 C 
BRANCH  26  27
ATOM     27  O   UNL     1       1.513  -0.747   2.201  0.00  0.00    -0.393 OA
ATOM     28  H   UNL     1       0.872  -0.710   2.934  0.00  0.00    +0.209 HD
ENDBRANCH  26  27
ENDBRANCH  25  26
ENDBRANCH   1  25
TORSDOF 5
