REMARK  Name = 
REMARK  4 active torsions:
REMARK  status: ('A' for Active; 'I' for Inactive)
REMARK    1  A    between atoms: C_2  and  C_3
REMARK    2  A    between atoms: C_3  and  C_4
REMARK    3  A    between atoms: C_7  and  N_8
REMARK    4  A    between atoms: C_22  and  C_24
REMARK                            x       y       z     vdW  Elec       q    Type
REMARK                         _______ _______ _______ _____ _____    ______ ____
ROOT
ATOM      1  N   UNL     1       5.507  -4.865   2.521  0.00  0.00    -0.284 N 
ATOM      2  H   UNL     1       6.409  -5.150   2.881  0.00  0.00    +0.155 HD
ATOM      3  C   UNL     1       4.833  -6.056   2.193  0.00  0.00    +0.222 A 
ATOM      4  N   UNL     1       3.662  -6.026   1.555  0.00  0.00    -0.198 NA
ATOM      5  C   UNL     1       3.128  -7.190   1.130  0.00  0.00    +0.137 A 
ATOM      6  N   UNL     1       1.898  -7.162   0.429  0.00  0.00    -0.282 N 
ATOM      7  H   UNL     1       2.009  -7.593  -0.482  0.00  0.00    +0.155 HD
ATOM      8  C   UNL     1       0.969  -6.186   0.444  0.00  0.00    +0.146 A 
ATOM      9  C   UNL     1       0.719  -5.319   1.533  0.00  0.00    +0.068 A 
ATOM     10  C   UNL     1      -0.145  -4.379   1.034  0.00  0.00    +0.041 A 
ATOM     11  N   UNL     1      -0.520  -4.833  -0.195  0.00  0.00    -0.280 N 
ATOM     12  H   UNL     1      -1.162  -4.404  -0.852  0.00  0.00    +0.189 HD
ATOM     13  N   UNL     1       0.156  -5.930  -0.585  0.00  0.00    -0.158 NA
ATOM     14  C   UNL     1       3.751  -8.417   1.360  0.00  0.00    +0.041 A 
ATOM     15  C   UNL     1       4.940  -8.351   2.091  0.00  0.00    +0.078 A 
ATOM     16  C   UNL     1       5.590  -9.548   2.379  0.00  0.00    +0.028 A 
ATOM     17  C   UNL     1       5.097 -10.787   1.949  0.00  0.00    +0.002 A 
ATOM     18  C   UNL     1       3.923 -10.844   1.214  0.00  0.00    +0.001 A 
ATOM     19  C   UNL     1       3.245  -9.670   0.928  0.00  0.00    +0.013 A 
ATOM     20  N   UNL     1       5.472  -7.190   2.508  0.00  0.00    -0.214 NA
ENDROOT
BRANCH   1  24
ATOM     21  C   UNL     1       5.747  -1.330   0.144  0.00  0.00    -0.034 A 
ATOM     22  C   UNL     1       6.828  -1.784   0.921  0.00  0.00    +0.006 A 
ATOM     23  C   UNL     1       6.717  -2.919   1.736  0.00  0.00    +0.023 A 
ATOM     24  C   UNL     1       5.531  -3.660   1.785  0.00  0.00    +0.034 A 
ATOM     25  C   UNL     1       4.427  -3.144   1.095  0.00  0.00    +0.023 A 
ATOM     26  C   UNL     1       4.530  -2.003   0.276  0.00  0.00    +0.006 A 
BRANCH  21  27
ATOM     27  C   UNL     1       6.005  -0.175  -0.803  0.00  0.00    +0.153 C 
BRANCH  27  29
ATOM     28  N   UNL     1       3.912   0.824  -2.338  0.00  0.00    -0.196 NA
ATOM     29  C   UNL     1       4.861   0.371  -1.642  0.00  0.00    +0.067 C 
ENDBRANCH  27  29
ENDBRANCH  21  27
ENDBRANCH   1  24
BRANCH  10  30
ATOM     30  C   UNL     1      -0.464  -3.063   1.699  0.00  0.00    +0.037 C 
ATOM     31  C   UNL     1      -1.780  -2.348   1.538  0.00  0.00    +0.010 C 
ATOM     32  C   UNL     1      -0.605  -1.886   0.749  0.00  0.00    +0.010 C 
ENDBRANCH  10  30
TORSDOF 4
