REMARK  Name = 
REMARK  8 active torsions:
REMARK  status: ('A' for Active; 'I' for Inactive)
REMARK    1  A    between atoms: C_5  and  C_6
REMARK    2  A    between atoms: C_7  and  C_8
REMARK    3  A    between atoms: C_8  and  N_9
REMARK    4  A    between atoms: N_9  and  C_10
REMARK    5  A    between atoms: C_10  and  C_11
REMARK    6  A    between atoms: C_11  and  N_12
REMARK    7  A    between atoms: N_12  and  S_13
REMARK    8  A    between atoms: S_13  and  C_16
REMARK                            x       y       z     vdW  Elec       q    Type
REMARK                         _______ _______ _______ _____ _____    ______ ____
ROOT
ATOM      1  N   UNL     1      13.304  -4.015  -1.507  0.00  0.00    -0.189 NA
ATOM      2  H   UNL     1      13.890  -3.413  -0.926  0.00  0.00    +0.148 HD
ENDROOT
BRANCH   1   3
ATOM      3  S   UNL     1      13.930  -5.591  -1.505  0.00  0.00    +0.059 S 
ATOM      4  O   UNL     1      13.296  -6.292  -0.408  0.00  0.00    -0.153 OA
ATOM      5  O   UNL     1      15.368  -5.470  -1.577  0.00  0.00    -0.153 OA
BRANCH   3   6
ATOM      6  C   UNL     1      13.334  -6.256  -3.044  0.00  0.00    +0.113 A 
ATOM      7  C   UNL     1      13.712  -5.692  -4.293  0.00  0.00    +0.011 A 
ATOM      8  C   UNL     1      14.596  -4.604  -4.477  0.00  0.00    +0.030 A 
ATOM      9  C   UNL     1      14.883  -4.153  -5.757  0.00  0.00    +0.111 A 
ATOM     10  N   UNL     1      14.354  -4.687  -6.872  0.00  0.00    -0.263 NA
ATOM     11  C   UNL     1      13.507  -5.724  -6.695  0.00  0.00    +0.119 A 
ATOM     12  C   UNL     1      13.152  -6.267  -5.456  0.00  0.00    +0.002 A 
ATOM     13  C   UNL     1      12.262  -7.351  -5.367  0.00  0.00    +0.010 A 
ATOM     14  C   UNL     1      11.912  -7.890  -4.132  0.00  0.00    +0.003 A 
ATOM     15  C   UNL     1      12.448  -7.344  -2.970  0.00  0.00    +0.029 A 
ENDBRANCH   3   6
ENDBRANCH   1   3
BRANCH   1  16
ATOM     16  C   UNL     1      11.850  -3.929  -1.297  0.00  0.00    +0.121 C 
BRANCH  16  17
ATOM     17  C   UNL     1      11.360  -2.474  -1.279  0.00  0.00    +0.098 C 
BRANCH  17  18
ATOM     18  N   UNL     1       9.907  -2.370  -1.093  0.00  0.00    -0.311 NA
ATOM     19  H   UNL     1       9.639  -1.385  -1.120  0.00  0.00    +0.122 HD
BRANCH  18  20
ATOM     20  C   UNL     1       9.466  -2.936   0.180  0.00  0.00    +0.108 C 
BRANCH  20  22
ATOM     21  C   UNL     1       7.358  -2.208   1.292  0.00  0.00    +0.005 C 
ATOM     22  C   UNL     1       7.983  -2.827   0.279  0.00  0.00    -0.011 C 
BRANCH  21  27
ATOM     23 BR   UNL     1       1.308  -1.314   1.940  0.00  0.00    -0.050 Br
ATOM     24  C   UNL     1       3.155  -1.647   1.727  0.00  0.00    +0.018 A 
ATOM     25  C   UNL     1       3.698  -1.741   0.448  0.00  0.00    +0.016 A 
ATOM     26  C   UNL     1       5.070  -1.953   0.292  0.00  0.00    +0.009 A 
ATOM     27  C   UNL     1       5.903  -2.079   1.412  0.00  0.00    -0.025 A 
ATOM     28  C   UNL     1       5.340  -1.991   2.691  0.00  0.00    +0.009 A 
ATOM     29  C   UNL     1       3.968  -1.778   2.850  0.00  0.00    +0.016 A 
ENDBRANCH  21  27
ENDBRANCH  20  22
ENDBRANCH  18  20
ENDBRANCH  17  18
ENDBRANCH  16  17
ENDBRANCH   1  16
TORSDOF 8
