REMARK  Name = 
REMARK  11 active torsions:
REMARK  status: ('A' for Active; 'I' for Inactive)
REMARK    1  A    between atoms: N_4  and  O_5
REMARK    2  A    between atoms: O_5  and  C_6
REMARK    3  A    between atoms: C_6  and  C_7
REMARK    4  A    between atoms: C_7  and  N_8
REMARK    5  A    between atoms: C_9  and  C_11
REMARK    6  A    between atoms: C_11  and  C_12
REMARK    7  A    between atoms: C_13  and  C_30
REMARK    8  A    between atoms: C_16  and  N_17
REMARK    9  A    between atoms: N_17  and  C_18
REMARK   10  A    between atoms: C_18  and  C_19
REMARK   11  A    between atoms: C_19  and  C_22
REMARK                            x       y       z     vdW  Elec       q    Type
REMARK                         _______ _______ _______ _____ _____    ______ ____
ROOT
ATOM      1  C   UNL     1      10.533  -5.550   1.284  0.00  0.00    +0.016 A 
ATOM      2  C   UNL     1      11.223  -6.685   0.824  0.00  0.00    +0.149 A 
ATOM      3  F   UNL     1      10.519  -7.683   0.264  0.00  0.00    -0.203 F 
ATOM      4  C   UNL     1      12.618  -6.842   0.954  0.00  0.00    +0.063 A 
ATOM      5  C   UNL     1      13.332  -5.762   1.482  0.00  0.00    +0.027 A 
ATOM      6  C   UNL     1      12.672  -4.628   1.961  0.00  0.00    +0.021 A 
ATOM      7  C   UNL     1      11.278  -4.522   1.880  0.00  0.00    +0.058 A 
ENDROOT
BRANCH   4   8
ATOM      8  N   UNL     1      13.243  -7.997   0.454  0.00  0.00    -0.336 N 
ATOM      9  H   UNL     1      12.657  -8.826   0.566  0.00  0.00    +0.146 HD
BRANCH   8  10
ATOM     10  C   UNL     1      14.674  -8.225   0.777  0.00  0.00    +0.183 C 
BRANCH  10  11
ATOM     11  C   UNL     1      15.226  -9.608   0.354  0.00  0.00    +0.305 C 
ATOM     12  F   UNL     1      14.898  -9.833  -0.956  0.00  0.00    -0.197 F 
ATOM     13  F   UNL     1      14.544 -10.568   1.057  0.00  0.00    -0.197 F 
BRANCH  11  14
ATOM     14  C   UNL     1      16.735  -9.700   0.577  0.00  0.00    +0.111 A 
ATOM     15  C   UNL     1      17.409 -10.851   0.168  0.00  0.00    +0.029 A 
ATOM     16  C   UNL     1      18.794 -10.913   0.310  0.00  0.00    +0.003 A 
ATOM     17  C   UNL     1      19.475  -9.834   0.859  0.00  0.00    +0.020 A 
ATOM     18  C   UNL     1      18.739  -8.734   1.260  0.00  0.00    +0.111 A 
ATOM     19  N   UNL     1      17.395  -8.645   1.137  0.00  0.00    -0.254 NA
ENDBRANCH  11  14
ENDBRANCH  10  11
ENDBRANCH   8  10
ENDBRANCH   4   8
BRANCH   7  20
ATOM     20  C   UNL     1      10.665  -3.365   2.468  0.00  0.00    +0.100 C 
ATOM     21  N   UNL     1      10.196  -2.448   3.002  0.00  0.00    -0.191 NA
ENDBRANCH   7  20
BRANCH   1  22
ATOM     22  C   UNL     1       9.033  -5.475   1.114  0.00  0.00    +0.135 C 
BRANCH  22  25
ATOM     23  N   UNL     1       8.257  -5.508  -1.197  0.00  0.00    -0.313 N 
ATOM     24  H   UNL     1       8.527  -6.490  -1.209  0.00  0.00    +0.149 HD
ATOM     25  C   UNL     1       8.612  -4.716  -0.134  0.00  0.00    +0.218 C 
ATOM     26  O   UNL     1       8.591  -3.489  -0.180  0.00  0.00    -0.275 OA
BRANCH  23  27
ATOM     27  C   UNL     1       7.806  -4.954  -2.464  0.00  0.00    +0.136 C 
BRANCH  27  28
ATOM     28  C   UNL     1       8.952  -4.556  -3.411  0.00  0.00    +0.228 C 
BRANCH  28  29
ATOM     29  O   UNL     1       9.844  -5.632  -3.761  0.00  0.00    -0.217 OA
BRANCH  29  34
ATOM     30  N   UNL     1       9.682  -7.830  -2.454  0.00  0.00    -0.287 N 
ATOM     31  H   UNL     1      10.427  -7.133  -2.449  0.00  0.00    +0.255 HD
ATOM     32  H   UNL     1      10.037  -8.726  -2.146  0.00  0.00    +0.255 HD
ATOM     33  C   UNL     1       9.067  -7.838  -3.659  0.00  0.00    +0.404 C 
ATOM     34  N   UNL     1       9.076  -6.651  -4.326  0.00  0.00    -0.139 N 
ATOM     35  H   UNL     1       9.047  -6.713  -5.340  0.00  0.00    +0.299 HD
ATOM     36  N   UNL     1       8.488  -8.885  -4.129  0.00  0.00    -0.128 NA
ATOM     37  H   UNL     1       8.541  -9.630  -3.431  0.00  0.00    +0.306 HD
ENDBRANCH  29  34
ENDBRANCH  28  29
ENDBRANCH  27  28
ENDBRANCH  23  27
ENDBRANCH  22  25
ENDBRANCH   1  22
TORSDOF 11
