REMARK  Name = 
REMARK  9 active torsions:
REMARK  status: ('A' for Active; 'I' for Inactive)
REMARK    1  A    between atoms: C_2  and  N_3
REMARK    2  A    between atoms: C_2  and  C_4
REMARK    3  A    between atoms: C_2  and  C_17
REMARK    4  A    between atoms: C_4  and  C_5
REMARK    5  A    between atoms: C_4  and  C_11
REMARK    6  A    between atoms: C_23  and  C_25
REMARK    7  A    between atoms: N_27  and  C_28
REMARK    8  A    between atoms: C_28  and  C_29
REMARK    9  A    between atoms: C_29  and  C_30
REMARK                            x       y       z     vdW  Elec       q    Type
REMARK                         _______ _______ _______ _____ _____    ______ ____
ROOT
ATOM      1  C   UNL     1       2.336   0.107   0.218  0.00  0.00    +0.150 C 
ENDROOT
BRANCH   1   2
ATOM      2  C   UNL     1       2.932  -1.289  -0.157  0.00  0.00    +0.234 C 
ATOM      3  N   UNL     1       4.262  -1.625   0.021  0.00  0.00    -0.289 N 
ATOM      4  C   UNL     1       5.308  -0.902   0.755  0.00  0.00    +0.162 C 
ATOM      5  C   UNL     1       6.495  -1.860   0.839  0.00  0.00    +0.033 C 
ATOM      6  C   UNL     1       5.885  -3.237   0.667  0.00  0.00    +0.021 C 
ATOM      7  C   UNL     1       4.658  -3.009  -0.199  0.00  0.00    +0.108 C 
ATOM      8  O   UNL     1       2.177  -2.086  -0.738  0.00  0.00    -0.274 OA
BRANCH   4   9
ATOM      9  C   UNL     1       5.761   0.428   0.131  0.00  0.00    +0.234 C 
ATOM     10  N   UNL     1       5.674   0.496  -1.246  0.00  0.00    -0.314 N 
ATOM     11  H   UNL     1       5.027  -0.171  -1.655  0.00  0.00    +0.149 HD
ATOM     12  O   UNL     1       6.257   1.319   0.820  0.00  0.00    -0.274 OA
BRANCH  10  13
ATOM     13  C   UNL     1       5.787   1.797  -1.874  0.00  0.00    +0.104 C 
BRANCH  13  14
ATOM     14  C   UNL     1       5.627   1.758  -3.390  0.00  0.00    +0.015 C 
ATOM     15  C   UNL     1       4.203   1.453  -3.836  0.00  0.00    +0.005 C 
ENDBRANCH  13  14
ENDBRANCH  10  13
ENDBRANCH   4   9
ENDBRANCH   1   2
BRANCH   1  16
ATOM     16  N   UNL     1       2.586   1.018  -0.927  0.00  0.00    -0.319 NA
ATOM     17  H   UNL     1       2.105   0.623  -1.738  0.00  0.00    +0.119 HD
ATOM     18  H   UNL     1       2.117   1.908  -0.740  0.00  0.00    +0.119 HD
ENDBRANCH   1  16
BRANCH   1  19
ATOM     19  C   UNL     1       2.696   0.694   1.618  0.00  0.00    +0.075 C 
BRANCH  19  20
ATOM     20  C   UNL     1       2.564  -0.308   2.765  0.00  0.00    -0.038 A 
ATOM     21  C   UNL     1       1.680  -1.398   2.718  0.00  0.00    +0.004 A 
ATOM     22  C   UNL     1       1.739  -2.404   3.683  0.00  0.00    +0.000 A 
ATOM     23  C   UNL     1       2.659  -2.323   4.724  0.00  0.00    +0.000 A 
ATOM     24  C   UNL     1       3.511  -1.226   4.813  0.00  0.00    +0.000 A 
ATOM     25  C   UNL     1       3.456  -0.219   3.850  0.00  0.00    +0.004 A 
ENDBRANCH  19  20
BRANCH  19  26
ATOM     26  C   UNL     1       2.025   2.042   1.890  0.00  0.00    -0.038 A 
ATOM     27  C   UNL     1       2.814   3.207   1.915  0.00  0.00    +0.004 A 
ATOM     28  C   UNL     1       2.229   4.469   2.017  0.00  0.00    +0.000 A 
ATOM     29  C   UNL     1       0.843   4.584   2.099  0.00  0.00    +0.000 A 
ATOM     30  C   UNL     1       0.054   3.434   2.115  0.00  0.00    +0.000 A 
ATOM     31  C   UNL     1       0.632   2.171   2.010  0.00  0.00    +0.004 A 
ENDBRANCH  19  26
ENDBRANCH   1  19
TORSDOF 8
