REMARK  Name = 
REMARK  5 active torsions:
REMARK  status: ('A' for Active; 'I' for Inactive)
REMARK    1  A    between atoms: N_1  and  S_2
REMARK    2  A    between atoms: S_2  and  C_5
REMARK    3  A    between atoms: C_7  and  N_8
REMARK    4  A    between atoms: C_11  and  N_12
REMARK    5  A    between atoms: N_12  and  C_13
REMARK                            x       y       z     vdW  Elec       q    Type
REMARK                         _______ _______ _______ _____ _____    ______ ____
ROOT
ATOM      1  N   UNL     1       2.767   4.893   0.883  0.00  0.00    -0.284 N 
ATOM      2  H   UNL     1       2.849   3.896   1.029  0.00  0.00    +0.155 HD
ATOM      3  C   UNL     1       1.840   5.114  -0.140  0.00  0.00    +0.221 A 
ATOM      4  N   UNL     1       1.585   6.354  -0.583  0.00  0.00    -0.223 NA
ATOM      5  C   UNL     1       0.643   6.487  -1.529  0.00  0.00    +0.118 A 
ATOM      6  C   UNL     1      -0.054   5.429  -2.050  0.00  0.00    +0.063 A 
ATOM      7  C   UNL     1       0.251   4.191  -1.527  0.00  0.00    +0.128 A 
ATOM      8  N   UNL     1       1.236   4.023  -0.624  0.00  0.00    -0.199 NA
ENDROOT
BRANCH   1  13
ATOM      9  C   UNL     1       2.812   7.708   3.338  0.00  0.00    +0.107 A 
ATOM     10  C   UNL     1       3.828   7.307   4.202  0.00  0.00    +0.028 A 
ATOM     11  C   UNL     1       4.477   6.097   3.961  0.00  0.00    +0.004 A 
ATOM     12  C   UNL     1       4.103   5.300   2.869  0.00  0.00    +0.023 A 
ATOM     13  C   UNL     1       3.069   5.689   2.002  0.00  0.00    +0.035 A 
ATOM     14  C   UNL     1       2.437   6.909   2.254  0.00  0.00    +0.051 A 
BRANCH   9  15
ATOM     15  S   UNL     1       1.928   9.211   3.610  0.00  0.00    +0.056 S 
ATOM     16  O   UNL     1       0.596   9.092   3.060  0.00  0.00    -0.153 OA
ATOM     17  O   UNL     1       2.164   9.666   4.958  0.00  0.00    -0.153 OA
BRANCH  15  18
ATOM     18  N   UNL     1       2.744  10.282   2.609  0.00  0.00    -0.204 NA
ATOM     19  H   UNL     1       2.189  10.487   1.778  0.00  0.00    +0.144 HD
ATOM     20  H   UNL     1       3.023  11.106   3.142  0.00  0.00    +0.144 HD
ENDBRANCH  15  18
ENDBRANCH   9  15
ENDBRANCH   1  13
BRANCH   7  21
ATOM     21  N   UNL     1      -0.551   3.098  -1.914  0.00  0.00    -0.295 N 
ATOM     22  H   UNL     1      -0.474   2.902  -2.907  0.00  0.00    +0.154 HD
BRANCH  21  23
ATOM     23  C   UNL     1      -0.830   1.958  -1.131  0.00  0.00    +0.097 A 
ATOM     24  C   UNL     1      -0.954   2.009   0.256  0.00  0.00    +0.189 A 
ATOM     25  O   UNL     1      -0.870   3.127   1.038  0.00  0.00    -0.451 OA
ATOM     26  C   UNL     1      -0.861   2.550   2.351  0.00  0.00    +0.466 C 
ATOM     27  O   UNL     1      -1.263   1.165   2.352  0.00  0.00    -0.453 OA
ATOM     28  C   UNL     1      -1.223   0.892   1.018  0.00  0.00    +0.168 A 
ATOM     29  C   UNL     1      -1.434  -0.343   0.451  0.00  0.00    +0.051 A 
ATOM     30  C   UNL     1      -1.358  -0.438  -0.940  0.00  0.00    +0.025 A 
ATOM     31  C   UNL     1      -1.061   0.698  -1.719  0.00  0.00    +0.066 A 
ATOM     32 CL   UNL     1      -0.970   0.504  -3.437  0.00  0.00    -0.081 Cl
ENDBRANCH  21  23
ENDBRANCH   7  21
TORSDOF 5
