REMARK  Name = 
REMARK  8 active torsions:
REMARK  status: ('A' for Active; 'I' for Inactive)
REMARK    1  A    between atoms: N_1  and  C_2
REMARK    2  A    between atoms: C_2  and  C_3
REMARK    3  A    between atoms: C_3  and  C_4
REMARK    4  A    between atoms: C_4  and  C_5
REMARK    5  A    between atoms: N_7  and  C_8
REMARK    6  A    between atoms: C_11  and  O_12
REMARK    7  A    between atoms: O_12  and  C_13
REMARK    8  A    between atoms: C_13  and  C_14
REMARK                            x       y       z     vdW  Elec       q    Type
REMARK                         _______ _______ _______ _____ _____    ______ ____
ROOT
ATOM      1  C   UNL     1       6.626   4.125  -1.986  0.00  0.00    +0.034 A 
ATOM      2  C   UNL     1       7.388   4.148  -3.153  0.00  0.00    +0.027 A 
ATOM      3  C   UNL     1       7.720   5.375  -3.734  0.00  0.00    +0.047 A 
ATOM      4  C   UNL     1       7.357   6.576  -3.118  0.00  0.00    +0.121 A 
ATOM      5  C   UNL     1       6.650   6.546  -1.917  0.00  0.00    +0.047 A 
ATOM      6  C   UNL     1       6.294   5.325  -1.352  0.00  0.00    +0.027 A 
ENDROOT
BRANCH   1   8
ATOM      7  C   UNL     1       4.852   2.763  -1.030  0.00  0.00    +0.217 C 
ATOM      8  N   UNL     1       6.151   2.895  -1.497  0.00  0.00    -0.285 N 
ATOM      9  H   UNL     1       6.585   2.044  -1.845  0.00  0.00    +0.155 HD
ATOM     10  O   UNL     1       3.997   3.647  -1.031  0.00  0.00    -0.275 OA
BRANCH   7  11
ATOM     11  C   UNL     1       4.504   1.368  -0.576  0.00  0.00    +0.097 C 
BRANCH  11  12
ATOM     12  C   UNL     1       3.676   0.638  -1.632  0.00  0.00    +0.024 C 
BRANCH  12  13
ATOM     13  C   UNL     1       4.413   0.380  -2.947  0.00  0.00    +0.078 C 
BRANCH  13  14
ATOM     14  N   UNL     1       5.650  -0.365  -2.727  0.00  0.00    -0.330 NA
ATOM     15  H   UNL     1       5.421  -1.256  -2.282  0.00  0.00    +0.118 HD
ATOM     16  H   UNL     1       6.045  -0.619  -3.634  0.00  0.00    +0.118 HD
ENDBRANCH  13  14
ENDBRANCH  12  13
ENDBRANCH  11  12
ENDBRANCH   7  11
ENDBRANCH   1   8
BRANCH   4  17
ATOM     17  O   UNL     1       7.733   7.713  -3.778  0.00  0.00    -0.487 OA
BRANCH  17  18
ATOM     18  C   UNL     1       7.712   8.907  -2.994  0.00  0.00    +0.264 C 
BRANCH  18  19
ATOM     19  C   UNL     1       8.507   9.965  -3.713  0.00  0.00    -0.010 A 
ATOM     20  C   UNL     1       9.730  10.405  -3.191  0.00  0.00    +0.007 A 
ATOM     21  C   UNL     1      10.461  11.387  -3.847  0.00  0.00    +0.000 A 
ATOM     22  C   UNL     1       9.982  11.938  -5.034  0.00  0.00    +0.000 A 
ATOM     23  C   UNL     1       8.765  11.508  -5.560  0.00  0.00    +0.000 A 
ATOM     24  C   UNL     1       8.027  10.525  -4.905  0.00  0.00    +0.007 A 
ENDBRANCH  18  19
ENDBRANCH  17  18
ENDBRANCH   4  17
TORSDOF 8
