REMARK  Name = 
REMARK  8 active torsions:
REMARK  status: ('A' for Active; 'I' for Inactive)
REMARK    1  A    between atoms: C_2  and  C_3
REMARK    2  A    between atoms: C_3  and  C_4
REMARK    3  A    between atoms: N_7  and  C_8
REMARK    4  A    between atoms: C_8  and  C_9
REMARK    5  A    between atoms: C_20  and  O_21
REMARK    6  A    between atoms: O_21  and  C_22
REMARK    7  A    between atoms: C_23  and  O_24
REMARK    8  A    between atoms: O_24  and  C_25
REMARK                            x       y       z     vdW  Elec       q    Type
REMARK                         _______ _______ _______ _____ _____    ______ ____
ROOT
ATOM      1  C   UNL     1       1.610   0.673   0.257  0.00  0.00    +0.065 C 
ATOM      2  C   UNL     1       2.136   1.630   1.313  0.00  0.00    +0.167 C 
ATOM      3  O   UNL     1       3.014   1.418   2.126  0.00  0.00    -0.292 OA
ATOM      4  C   UNL     1       1.451   2.906   1.127  0.00  0.00    +0.025 A 
ATOM      5  C   UNL     1       0.286   2.638   0.418  0.00  0.00    -0.033 A 
ATOM      6  C   UNL     1      -0.568   3.668   0.076  0.00  0.00    +0.053 A 
ATOM      7  C   UNL     1      -0.170   4.982   0.357  0.00  0.00    +0.162 A 
ATOM      8  C   UNL     1       1.096   5.244   0.957  0.00  0.00    +0.162 A 
ATOM      9  C   UNL     1       1.899   4.185   1.393  0.00  0.00    +0.061 A 
ATOM     10  C   UNL     1       0.154   1.179   0.105  0.00  0.00    +0.047 C 
ENDROOT
BRANCH   8  11
ATOM     11  O   UNL     1       1.445   6.569   1.052  0.00  0.00    -0.491 OA
ATOM     12  C   UNL     1       2.795   6.875   1.376  0.00  0.00    +0.277 C 
ENDBRANCH   8  11
BRANCH   7  13
ATOM     13  O   UNL     1      -0.928   6.087   0.041  0.00  0.00    -0.491 OA
ATOM     14  C   UNL     1      -2.271   5.849  -0.356  0.00  0.00    +0.277 C 
ENDBRANCH   7  13
BRANCH   1  15
ATOM     15  C   UNL     1       2.513   0.878  -0.984  0.00  0.00    +0.015 C 
BRANCH  15  16
ATOM     16  C   UNL     1       2.027   0.288  -2.322  0.00  0.00    -0.008 C 
ATOM     17  C   UNL     1       1.834  -1.231  -2.280  0.00  0.00    +0.019 C 
ATOM     18  C   UNL     1       3.167  -1.986  -2.269  0.00  0.00    +0.085 C 
ATOM     19  N   UNL     1       4.065  -1.630  -3.376  0.00  0.00    -0.298 NA
ATOM     20  C   UNL     1       4.291  -0.179  -3.420  0.00  0.00    +0.085 C 
ATOM     21  C   UNL     1       3.004   0.652  -3.458  0.00  0.00    +0.019 C 
BRANCH  19  22
ATOM     22  C   UNL     1       3.606  -2.194  -4.657  0.00  0.00    +0.119 C 
BRANCH  22  23
ATOM     23  C   UNL     1       4.609  -2.051  -5.782  0.00  0.00    -0.033 A 
ATOM     24  C   UNL     1       4.249  -1.427  -6.984  0.00  0.00    +0.005 A 
ATOM     25  C   UNL     1       5.177  -1.290  -8.020  0.00  0.00    +0.000 A 
ATOM     26  C   UNL     1       6.472  -1.780  -7.864  0.00  0.00    +0.000 A 
ATOM     27  C   UNL     1       6.840  -2.412  -6.679  0.00  0.00    +0.000 A 
ATOM     28  C   UNL     1       5.913  -2.551  -5.643  0.00  0.00    +0.005 A 
ENDBRANCH  22  23
ENDBRANCH  19  22
ENDBRANCH  15  16
ENDBRANCH   1  15
TORSDOF 6
