REMARK  Name = 
REMARK  4 active torsions:
REMARK  status: ('A' for Active; 'I' for Inactive)
REMARK    1  A    between atoms: C_12  and  O_14
REMARK    2  A    between atoms: C_15  and  C_17
REMARK    3  A    between atoms: C_17  and  O_18
REMARK    4  A    between atoms: C_29  and  O_31
REMARK                            x       y       z     vdW  Elec       q    Type
REMARK                         _______ _______ _______ _____ _____    ______ ____
ROOT
ATOM      1  C   UNL     1      -0.000  -0.000  -0.000  0.00  0.00    +0.153 C 
ATOM      2  O   UNL     1      -0.000  -0.000   0.000  0.00  0.00    -0.368 OA
ATOM      3  C   UNL     1      -0.000  -0.000   0.000  0.00  0.00    +0.154 C 
ATOM      4  C   UNL     1      -0.000  -0.000   0.000  0.00  0.00    +0.179 C 
ATOM      5  O   UNL     1      -0.000  -0.000  -0.000  0.00  0.00    -0.367 OA
ATOM      6  C   UNL     1       0.000   0.000   0.000  0.00  0.00    +0.187 C 
ATOM      7  C   UNL     1      -0.000  -0.000   0.000  0.00  0.00    -0.003 C 
ATOM      8  C   UNL     1      -0.000  -0.000   0.000  0.00  0.00    -0.026 C 
ATOM      9  C   UNL     1      -0.000  -0.000   0.000  0.00  0.00    +0.177 C 
ATOM     10  C   UNL     1      -0.000  -0.000   0.000  0.00  0.00    +0.061 C 
ATOM     11  C   UNL     1      -0.000  -0.000   0.000  0.00  0.00    +0.179 C 
ATOM     12  O   UNL     1      -0.000  -0.000   0.000  0.00  0.00    -0.362 OA
ATOM     13  C   UNL     1      -0.000  -0.000   0.000  0.00  0.00    +0.170 C 
ATOM     14  C   UNL     1      -0.000  -0.000  -0.000  0.00  0.00    +0.154 C 
ATOM     15  O   UNL     1      -0.000  -0.000  -0.000  0.00  0.00    -0.367 OA
ATOM     16  C   UNL     1      -0.000  -0.000  -0.000  0.00  0.00    +0.155 C 
ATOM     17  C   UNL     1      -0.000  -0.000   0.000  0.00  0.00    +0.170 C 
ATOM     18  C   UNL     1      -0.000  -0.000  -0.000  0.00  0.00    +0.005 C 
ATOM     19  O   UNL     1      -0.000  -0.000   0.000  0.00  0.00    -0.362 OA
ATOM     20  C   UNL     1      -0.000  -0.000   0.000  0.00  0.00    +0.177 C 
ATOM     21  C   UNL     1      -0.000  -0.000  -0.000  0.00  0.00    +0.168 C 
ATOM     22  C   UNL     1      -0.000  -0.000  -0.000  0.00  0.00    +0.002 C 
ATOM     23  C   UNL     1      -0.000  -0.000  -0.000  0.00  0.00    -0.026 C 
ATOM     24  C   UNL     1      -0.000  -0.000  -0.000  0.00  0.00    +0.061 C 
ATOM     25  C   UNL     1       0.000  -0.000   0.000  0.00  0.00    +0.005 C 
ATOM     26  C   UNL     1      -0.000  -0.000   0.000  0.00  0.00    +0.068 C 
ENDROOT
BRANCH   9  27
ATOM     27  O   UNL     1      -0.000  -0.000   0.000  0.00  0.00    -0.386 OA
ATOM     28  H   UNL     1       0.000   0.000   0.000  0.00  0.00    +0.210 HD
ENDBRANCH   9  27
BRANCH  21  29
ATOM     29  O   UNL     1      -0.000  -0.000   0.000  0.00  0.00    -0.385 OA
ATOM     30  H   UNL     1       0.000   0.000   0.000  0.00  0.00    +0.210 HD
ENDBRANCH  21  29
BRANCH  20  31
ATOM     31  C   UNL     1      -0.000  -0.000  -0.000  0.00  0.00    +0.190 C 
BRANCH  31  32
ATOM     32  O   UNL     1      -0.000  -0.000   0.000  0.00  0.00    -0.392 OA
ATOM     33  H   UNL     1      -0.000  -0.000   0.000  0.00  0.00    +0.210 HD
ENDBRANCH  31  32
ENDBRANCH  20  31
TORSDOF 4
