REMARK  Name = 
REMARK  8 active torsions:
REMARK  status: ('A' for Active; 'I' for Inactive)
REMARK    1  A    between atoms: O_1  and  C_2
REMARK    2  A    between atoms: C_8  and  S_9
REMARK    3  A    between atoms: S_9  and  C_10
REMARK    4  A    between atoms: C_10  and  C_11
REMARK    5  A    between atoms: C_11  and  C_12
REMARK    6  A    between atoms: C_13  and  P_14
REMARK    7  A    between atoms: P_14  and  O_15
REMARK    8  A    between atoms: P_14  and  O_16
REMARK                            x       y       z     vdW  Elec       q    Type
REMARK                         _______ _______ _______ _____ _____    ______ ____
ROOT
ATOM      1  S   UNL     1       2.317  -2.679  -0.011  0.00  0.00    -0.121 S 
ENDROOT
BRANCH   1   3
ATOM      2  C   UNL     1       2.433   0.202   0.126  0.00  0.00    +0.130 A 
ATOM      3  C   UNL     1       3.067  -1.051   0.104  0.00  0.00    +0.052 A 
ATOM      4  C   UNL     1       4.470  -1.074   0.175  0.00  0.00    +0.056 A 
ATOM      5  C   UNL     1       5.200   0.107   0.268  0.00  0.00    +0.125 A 
ATOM      6  F   UNL     1       6.536   0.054   0.337  0.00  0.00    -0.205 F 
ATOM      7  C   UNL     1       4.565   1.337   0.292  0.00  0.00    +0.042 A 
ATOM      8  C   UNL     1       3.175   1.388   0.221  0.00  0.00    +0.049 A 
BRANCH   2   9
ATOM      9  O   UNL     1       1.070   0.312   0.063  0.00  0.00    -0.506 OA
ATOM     10  H   UNL     1       0.820   1.250   0.100  0.00  0.00    +0.292 HD
ENDBRANCH   2   9
ENDBRANCH   1   3
BRANCH   1  11
ATOM     11  C   UNL     1       0.523  -2.369  -0.123  0.00  0.00    +0.078 C 
BRANCH  11  12
ATOM     12  C   UNL     1      -0.214  -3.704  -0.250  0.00  0.00    +0.038 C 
BRANCH  12  13
ATOM     13  C   UNL     1      -1.705  -3.516  -0.361  0.00  0.00    -0.018 C 
ATOM     14  C   UNL     1      -2.425  -3.873  -1.438  0.00  0.00    +0.093 C 
BRANCH  14  15
ATOM     15  P   UNL     1      -4.166  -3.763  -1.586  0.00  0.00    +0.351 P 
ATOM     16  O   UNL     1      -4.869  -4.131  -2.853  0.00  0.00    -0.254 OA
BRANCH  15  17
ATOM     17  O   UNL     1      -4.521  -2.279  -1.085  0.00  0.00    -0.321 OA
ATOM     18  H   UNL     1      -3.756  -1.691  -0.974  0.00  0.00    +0.220 HD
ENDBRANCH  15  17
BRANCH  15  19
ATOM     19  O   UNL     1      -4.678  -4.614  -0.321  0.00  0.00    -0.321 OA
ATOM     20  H   UNL     1      -4.247  -5.484  -0.243  0.00  0.00    +0.220 HD
ENDBRANCH  15  19
ENDBRANCH  14  15
ENDBRANCH  12  13
ENDBRANCH  11  12
ENDBRANCH   1  11
TORSDOF 8
