REMARK  Name = 
REMARK  3 active torsions:
REMARK  status: ('A' for Active; 'I' for Inactive)
REMARK    1  A    between atoms: CA_2  and  C_3
REMARK    2  A    between atoms: C_3  and  O_4
REMARK    3  A    between atoms: C_9  and  N_14
REMARK                            x       y       z     vdW  Elec       q    Type
REMARK                         _______ _______ _______ _____ _____    ______ ____
ROOT
ATOM      1  CA  UNL     1       2.025   0.068  -0.004  0.00  0.00    +0.084 C 
ATOM      2  N   UNL     1       2.515  -1.073   0.807  0.00  0.00    -0.307 NA
ATOM      3  H   UNL     1       2.305  -0.891   1.790  0.00  0.00    +0.123 HD
ATOM      4  C   UNL     1       3.977  -1.177   0.672  0.00  0.00    +0.117 C 
ATOM      5  C   UNL     1       4.711   0.131   0.878  0.00  0.00    -0.024 A 
ATOM      6  C   UNL     1       4.037   1.366   0.790  0.00  0.00    -0.041 A 
ATOM      7  C   UNL     1       4.741   2.568   0.956  0.00  0.00    +0.010 A 
ATOM      8  C   UNL     1       6.120   2.556   1.170  0.00  0.00    +0.084 A 
ATOM      9  C   UNL     1       6.796   1.333   1.227  0.00  0.00    +0.273 A 
ATOM     10  C   UNL     1       6.100   0.123   1.084  0.00  0.00    +0.089 A 
ATOM     11  C   UNL     1       2.545   1.399   0.560  0.00  0.00    +0.056 C 
ENDROOT
BRANCH   9  12
ATOM     12  N   UNL     1       8.251   1.318   1.428  0.00  0.00    +0.080 N 
ATOM     13  O   UNL     1       8.815   0.216   1.471  0.00  0.00    +0.041 OA
ATOM     14  O   UNL     1       8.829   2.408   1.542  0.00  0.00    -0.576 OA
ENDBRANCH   9  12
BRANCH   1  15
ATOM     15  C   UNL     1       0.487   0.061  -0.036  0.00  0.00    +0.174 C 
BRANCH  15  16
ATOM     16  O   UNL     1       0.018  -1.189  -0.537  0.00  0.00    -0.393 OA
ATOM     17  H   UNL     1       0.615  -1.858  -0.145  0.00  0.00    +0.209 HD
ENDBRANCH  15  16
ENDBRANCH   1  15
TORSDOF 3
