REMARK  Name = 
REMARK  6 active torsions:
REMARK  status: ('A' for Active; 'I' for Inactive)
REMARK    1  A    between atoms: C_1  and  C_2
REMARK    2  A    between atoms: C_2  and  C_3
REMARK    3  A    between atoms: C_2  and  C_4
REMARK    4  A    between atoms: C_5  and  O_6
REMARK    5  A    between atoms: O_6  and  C_7
REMARK    6  A    between atoms: C_8  and  C_9
REMARK                            x       y       z     vdW  Elec       q    Type
REMARK                         _______ _______ _______ _____ _____    ______ ____
ROOT
ATOM      1  C   UNL     1       2.882  -1.219   0.435  0.00  0.00    +0.063 A 
ATOM      2  C   UNL     1       2.181  -2.477   0.002  0.00  0.00    +0.256 A 
ATOM      3  O   UNL     1       1.181  -2.458  -0.713  0.00  0.00    -0.267 OA
ATOM      4  N   UNL     1       2.663  -3.669   0.440  0.00  0.00    -0.322 N 
ATOM      5  H   UNL     1       2.130  -4.479   0.154  0.00  0.00    +0.169 HD
ATOM      6  C   UNL     1       3.828  -3.811   1.182  0.00  0.00    +0.053 A 
ATOM      7  C   UNL     1       4.573  -2.669   1.516  0.00  0.00    +0.045 A 
ATOM      8  C   UNL     1       5.757  -2.867   2.244  0.00  0.00    +0.052 A 
ATOM      9  C   UNL     1       6.155  -4.154   2.606  0.00  0.00    +0.124 A 
ATOM     10  C   UNL     1       5.402  -5.272   2.275  0.00  0.00    +0.040 A 
ATOM     11  F   UNL     1       7.294  -4.324   3.295  0.00  0.00    -0.205 F 
ATOM     12  C   UNL     1       4.222  -5.099   1.555  0.00  0.00    +0.029 A 
ATOM     13  C   UNL     1       4.061  -1.334   1.105  0.00  0.00    +0.159 A 
ENDROOT
BRANCH   1  15
ATOM     14  C   UNL     1       2.166   1.236   1.000  0.00  0.00    +0.012 C 
ATOM     15  C   UNL     1       2.097   0.036   0.052  0.00  0.00    +0.022 C 
ATOM     16  C   UNL     1       2.400   0.456  -1.390  0.00  0.00    +0.012 C 
ENDBRANCH   1  15
BRANCH  13  17
ATOM     17  O   UNL     1       4.796  -0.251   1.575  0.00  0.00    -0.405 OA
BRANCH  17  18
ATOM     18  C   UNL     1       5.590   0.273   0.628  0.00  0.00    +0.117 C 
ATOM     19  C   UNL     1       6.265   0.796  -0.218  0.00  0.00    -0.056 C 
BRANCH  19  20
ATOM     20  C   UNL     1       6.898   1.410  -1.346  0.00  0.00    +0.067 C 
ATOM     21  C   UNL     1       8.086   2.335  -1.286  0.00  0.00    +0.017 C 
ATOM     22  C   UNL     1       6.713   2.905  -1.471  0.00  0.00    +0.017 C 
ENDBRANCH  19  20
ENDBRANCH  17  18
ENDBRANCH  13  17
TORSDOF 4
