REMARK  Name = 
REMARK  9 active torsions:
REMARK  status: ('A' for Active; 'I' for Inactive)
REMARK    1  A    between atoms: C_1  and  C_2
REMARK    2  A    between atoms: C_2  and  C_3
REMARK    3  A    between atoms: C_2  and  C_4
REMARK    4  A    between atoms: C_2  and  C_21
REMARK    5  A    between atoms: C_4  and  N_5
REMARK    6  A    between atoms: C_6  and  C_8
REMARK    7  A    between atoms: C_11  and  O_12
REMARK    8  A    between atoms: O_12  and  C_13
REMARK    9  A    between atoms: C_28  and  N_29
REMARK                            x       y       z     vdW  Elec       q    Type
REMARK                         _______ _______ _______ _____ _____    ______ ____
ROOT
ATOM      1  C   UNL     1       2.933   1.360  -0.319  0.00  0.00    +0.019 C 
ATOM      2  C   UNL     1       2.406  -0.039   0.077  0.00  0.00    +0.023 C 
ATOM      3  C   UNL     1       3.045  -1.054  -0.898  0.00  0.00    +0.019 C 
ENDROOT
BRANCH   2   4
ATOM      4  C   UNL     1       0.871  -0.016   0.015  0.00  0.00    +0.051 A 
ATOM      5  C   UNL     1       0.139  -0.893  -0.775  0.00  0.00    +0.025 A 
ATOM      6  C   UNL     1      -1.244  -0.808  -0.756  0.00  0.00    +0.017 A 
ATOM      7  C   UNL     1      -1.876   0.164   0.040  0.00  0.00    +0.059 A 
ATOM      8  C   UNL     1      -1.093   1.021   0.804  0.00  0.00    +0.167 A 
ATOM      9  N   UNL     1      -1.632   1.967   1.562  0.00  0.00    -0.195 NA
ATOM     10  C   UNL     1      -2.956   2.084   1.562  0.00  0.00    +0.216 A 
ATOM     11  N   UNL     1      -3.800   1.294   0.899  0.00  0.00    -0.199 NA
ATOM     12  N   UNL     1      -3.516   3.097   2.313  0.00  0.00    -0.327 N 
ATOM     13  H   UNL     1      -4.475   2.877   2.542  0.00  0.00    +0.145 HD
ATOM     14  H   UNL     1      -2.902   3.354   3.073  0.00  0.00    +0.145 HD
ATOM     15  C   UNL     1      -3.252   0.347   0.135  0.00  0.00    +0.131 A 
ATOM     16  N   UNL     1       0.244   0.919   0.791  0.00  0.00    -0.231 NA
BRANCH  15  17
ATOM     17  N   UNL     1      -4.160  -0.479  -0.536  0.00  0.00    -0.342 N 
ATOM     18  H   UNL     1      -3.977  -0.512  -1.532  0.00  0.00    +0.144 HD
ATOM     19  H   UNL     1      -5.094  -0.125  -0.342  0.00  0.00    +0.144 HD
ENDBRANCH  15  17
ENDBRANCH   2   4
BRANCH   2  20
ATOM     20  C   UNL     1       2.872  -0.417   1.516  0.00  0.00    +0.117 C 
BRANCH  20  21
ATOM     21  N   UNL     1       2.460   0.543   2.523  0.00  0.00    -0.310 N 
ATOM     22  H   UNL     1       1.636   1.095   2.287  0.00  0.00    +0.149 HD
ATOM     23  C   UNL     1       2.783   0.431   3.854  0.00  0.00    +0.244 C 
ATOM     24  O   UNL     1       3.437  -0.489   4.329  0.00  0.00    -0.270 OA
BRANCH  23  25
ATOM     25  C   UNL     1       2.269   1.537   4.714  0.00  0.00    +0.037 A 
ATOM     26  C   UNL     1       2.086   2.822   4.184  0.00  0.00    +0.016 A 
ATOM     27  C   UNL     1       1.636   3.864   4.994  0.00  0.00    +0.047 A 
ATOM     28  C   UNL     1       1.424   3.649   6.358  0.00  0.00    +0.128 A 
ATOM     29  C   UNL     1       1.572   2.361   6.882  0.00  0.00    +0.047 A 
ATOM     30  C   UNL     1       2.000   1.306   6.067  0.00  0.00    +0.016 A 
BRANCH  28  31
ATOM     31  O   UNL     1       1.015   4.619   7.246  0.00  0.00    -0.456 OA
BRANCH  31  32
ATOM     32  C   UNL     1       1.366   5.937   7.052  0.00  0.00    +0.128 A 
ATOM     33  C   UNL     1       2.588   6.363   6.521  0.00  0.00    +0.046 A 
ATOM     34  C   UNL     1       2.836   7.726   6.340  0.00  0.00    +0.004 A 
ATOM     35  C   UNL     1       1.891   8.669   6.742  0.00  0.00    +0.000 A 
ATOM     36  C   UNL     1       0.702   8.250   7.338  0.00  0.00    +0.004 A 
ATOM     37  C   UNL     1       0.441   6.887   7.493  0.00  0.00    +0.046 A 
ENDBRANCH  31  32
ENDBRANCH  28  31
ENDBRANCH  23  25
ENDBRANCH  20  21
ENDBRANCH   2  20
TORSDOF 7
