REMARK  Name = 
REMARK  9 active torsions:
REMARK  status: ('A' for Active; 'I' for Inactive)
REMARK    1  A    between atoms: C_2  and  C_3
REMARK    2  A    between atoms: C_2  and  N_7
REMARK    3  A    between atoms: C_2  and  C_19
REMARK    4  A    between atoms: C_3  and  C_4
REMARK    5  A    between atoms: C_4  and  S_5
REMARK    6  A    between atoms: S_5  and  C_6
REMARK    7  A    between atoms: C_8  and  C_10
REMARK    8  A    between atoms: C_14  and  C_16
REMARK    9  A    between atoms: N_21  and  C_22
REMARK                            x       y       z     vdW  Elec       q    Type
REMARK                         _______ _______ _______ _____ _____    ______ ____
ROOT
ATOM      1  C   UNL     1       6.492  -1.526  -2.822  0.00  0.00    +0.160 C 
ENDROOT
BRANCH   1   2
ATOM      2  C   UNL     1       6.940  -2.702  -1.932  0.00  0.00    +0.238 C 
ATOM      3  N   UNL     1       6.997  -3.917  -2.601  0.00  0.00    -0.284 N 
ATOM      4  H   UNL     1       6.614  -3.928  -3.548  0.00  0.00    +0.155 HD
ATOM      5  O   UNL     1       7.150  -2.534  -0.731  0.00  0.00    -0.273 OA
BRANCH   3   6
ATOM      6  C   UNL     1       7.423  -5.153  -2.062  0.00  0.00    +0.036 A 
ATOM      7  C   UNL     1       7.393  -6.280  -2.883  0.00  0.00    +0.043 A 
ATOM      8  C   UNL     1       7.806  -7.496  -2.355  0.00  0.00    +0.112 A 
ATOM      9  N   UNL     1       8.238  -7.661  -1.087  0.00  0.00    -0.263 NA
ATOM     10  C   UNL     1       8.264  -6.557  -0.316  0.00  0.00    +0.112 A 
ATOM     11  C   UNL     1       7.880  -5.301  -0.755  0.00  0.00    +0.043 A 
ENDBRANCH   3   6
ENDBRANCH   1   2
BRANCH   1  12
ATOM     12  N   UNL     1       5.029  -1.531  -2.842  0.00  0.00    -0.304 N 
ATOM     13  H   UNL     1       4.557  -1.249  -1.990  0.00  0.00    +0.149 HD
ATOM     14  C   UNL     1       4.333  -2.322  -3.726  0.00  0.00    +0.217 C 
ATOM     15  O   UNL     1       4.919  -3.065  -4.511  0.00  0.00    -0.275 OA
BRANCH  14  16
ATOM     16  C   UNL     1       2.808  -2.237  -3.597  0.00  0.00    +0.075 C 
ATOM     17  C   UNL     1       2.322  -0.779  -3.659  0.00  0.00    +0.013 C 
ATOM     18  C   UNL     1       0.798  -0.663  -3.720  0.00  0.00    +0.004 C 
ATOM     19  C   UNL     1       0.177  -1.498  -4.845  0.00  0.00    -0.014 C 
ATOM     20  C   UNL     1       0.497  -0.916  -6.225  0.00  0.00    +0.007 C 
ATOM     21  C   UNL     1       0.632  -2.956  -4.719  0.00  0.00    +0.004 C 
ATOM     22  C   UNL     1       2.149  -3.100  -4.684  0.00  0.00    +0.013 C 
ENDBRANCH  14  16
ENDBRANCH   1  12
BRANCH   1  23
ATOM     23  C   UNL     1       6.988  -0.182  -2.272  0.00  0.00    +0.042 C 
BRANCH  23  24
ATOM     24  C   UNL     1       8.513  -0.080  -2.254  0.00  0.00    +0.071 C 
BRANCH  24  25
ATOM     25  S   UNL     1       8.998   1.568  -1.644  0.00  0.00    -0.164 S 
ATOM     26  C   UNL     1      10.794   1.359  -1.672  0.00  0.00    +0.084 C 
ENDBRANCH  24  25
ENDBRANCH  23  24
ENDBRANCH   1  23
TORSDOF 7
