REMARK  Name = 
REMARK  11 active torsions:
REMARK  status: ('A' for Active; 'I' for Inactive)
REMARK    1  A    between atoms: C_2  and  C_3
REMARK    2  A    between atoms: C_2  and  C_4
REMARK    3  A    between atoms: C_2  and  C_15
REMARK    4  A    between atoms: C_5  and  C_6
REMARK    5  A    between atoms: C_7  and  N_8
REMARK    6  A    between atoms: C_13  and  C_14
REMARK    7  A    between atoms: C_17  and  O_18
REMARK    8  A    between atoms: O_18  and  C_19
REMARK    9  A    between atoms: C_21  and  C_23
REMARK   10  A    between atoms: C_24  and  C_25
REMARK   11  A    between atoms: C_29  and  C_30
REMARK                            x       y       z     vdW  Elec       q    Type
REMARK                         _______ _______ _______ _____ _____    ______ ____
ROOT
ATOM      1  C   UNL     1       2.207  -0.087   0.090  0.00  0.00    +0.091 C 
ATOM      2  C   UNL     1       1.553  -0.924  -1.023  0.00  0.00    +0.026 C 
ENDROOT
BRANCH   1   3
ATOM      3  C   UNL     1       2.588   1.287  -0.454  0.00  0.00    -0.029 A 
ATOM      4  C   UNL     1       3.554   1.450  -1.473  0.00  0.00    +0.013 A 
ATOM      5  C   UNL     1       3.699   2.641  -2.226  0.00  0.00    -0.014 A 
ATOM      6  C   UNL     1       2.850   3.693  -1.838  0.00  0.00    +0.054 A 
ATOM      7  C   UNL     1       2.046   3.629  -0.694  0.00  0.00    +0.121 A 
ATOM      8  C   UNL     1       1.881   2.417  -0.033  0.00  0.00    +0.050 A 
BRANCH   5   9
ATOM      9  C   UNL     1       4.706   2.786  -3.355  0.00  0.00    -0.012 A 
ATOM     10  C   UNL     1       5.078   1.679  -4.188  0.00  0.00    -0.042 A 
ATOM     11  C   UNL     1       4.419   0.320  -4.163  0.00  0.00    +0.044 C 
ATOM     12  C   UNL     1       6.129   1.792  -5.127  0.00  0.00    +0.004 A 
ATOM     13  C   UNL     1       6.759   2.998  -5.367  0.00  0.00    +0.001 A 
ATOM     14  C   UNL     1       6.355   4.112  -4.657  0.00  0.00    +0.004 A 
ATOM     15  C   UNL     1       5.375   4.028  -3.639  0.00  0.00    -0.042 A 
ATOM     16  C   UNL     1       5.106   5.351  -2.958  0.00  0.00    +0.044 C 
ENDBRANCH   5   9
BRANCH   7  17
ATOM     17  O   UNL     1       1.344   4.695  -0.195  0.00  0.00    -0.495 OA
ATOM     18  C   UNL     1       2.023   5.948  -0.308  0.00  0.00    +0.277 C 
ENDBRANCH   7  17
ENDBRANCH   1   3
BRANCH   1  19
ATOM     19  C   UNL     1       3.309  -0.851   0.710  0.00  0.00    -0.089 C 
ATOM     20  C   UNL     1       4.134  -1.563   1.231  0.00  0.00    -0.060 C 
BRANCH  20  21
ATOM     21  C   UNL     1       5.118  -2.436   1.807  0.00  0.00    +0.085 A 
ATOM     22  C   UNL     1       4.846  -3.750   2.177  0.00  0.00    +0.060 A 
ATOM     23  C   UNL     1       3.463  -4.331   2.113  0.00  0.00    +0.067 C 
ATOM     24  N   UNL     1       5.801  -4.586   2.661  0.00  0.00    -0.219 NA
ATOM     25  C   UNL     1       7.030  -4.091   2.803  0.00  0.00    +0.215 A 
ATOM     26  N   UNL     1       8.009  -4.939   3.274  0.00  0.00    -0.327 N 
ATOM     27  H   UNL     1       7.757  -5.900   3.098  0.00  0.00    +0.145 HD
ATOM     28  H   UNL     1       8.916  -4.625   2.965  0.00  0.00    +0.145 HD
ATOM     29  N   UNL     1       7.389  -2.844   2.491  0.00  0.00    -0.199 NA
ATOM     30  C   UNL     1       6.431  -2.034   2.006  0.00  0.00    +0.137 A 
BRANCH  30  31
ATOM     31  N   UNL     1       6.838  -0.714   1.791  0.00  0.00    -0.342 N 
ATOM     32  H   UNL     1       7.842  -0.664   1.928  0.00  0.00    +0.144 HD
ATOM     33  H   UNL     1       6.529  -0.345   0.900  0.00  0.00    +0.144 HD
ENDBRANCH  30  31
ENDBRANCH  20  21
ENDBRANCH   1  19
TORSDOF 6
