REMARK  Name = 
REMARK  5 active torsions:
REMARK  status: ('A' for Active; 'I' for Inactive)
REMARK    1  A    between atoms: C_1  and  O_2
REMARK    2  A    between atoms: O_2  and  C_3
REMARK    3  A    between atoms: C_5  and  C_24
REMARK    4  A    between atoms: C_8  and  C_10
REMARK    5  A    between atoms: C_14  and  C_19
REMARK                            x       y       z     vdW  Elec       q    Type
REMARK                         _______ _______ _______ _____ _____    ______ ____
ROOT
ATOM      1  C   UNL     1       6.097   1.882   2.760  0.00  0.00    +0.047 A 
ATOM      2  N   UNL     1       6.879   2.925   3.209  0.00  0.00    -0.354 N 
ATOM      3  H   UNL     1       6.583   3.887   3.039  0.00  0.00    +0.166 HD
ATOM      4  C   UNL     1       8.081   2.478   3.692  0.00  0.00    +0.047 A 
ATOM      5  C   UNL     1       8.024   1.090   3.677  0.00  0.00    +0.001 A 
ATOM      6  C   UNL     1       9.156   0.366   4.098  0.00  0.00    +0.025 A 
ATOM      7  C   UNL     1      10.342   1.049   4.443  0.00  0.00    +0.061 A 
ATOM      8  C   UNL     1      10.341   2.455   4.453  0.00  0.00    +0.018 A 
ATOM      9  C   UNL     1       9.205   3.193   4.103  0.00  0.00    +0.027 A 
ATOM     10  C   UNL     1       6.749   0.726   3.153  0.00  0.00    +0.036 A 
ENDROOT
BRANCH   1  13
ATOM     11  C   UNL     1       3.026   1.172   0.705  0.00  0.00    +0.121 A 
ATOM     12  C   UNL     1       4.168   1.033   1.474  0.00  0.00    +0.055 A 
ATOM     13  C   UNL     1       4.855   2.154   1.978  0.00  0.00    -0.005 A 
ATOM     14  C   UNL     1       4.412   3.511   1.690  0.00  0.00    -0.091 A 
ATOM     15  O   UNL     1       5.067   4.537   2.113  0.00  0.00    -0.873 OA
ATOM     16  C   UNL     1       3.214   3.628   0.883  0.00  0.00    -0.022 A 
ATOM     17  C   UNL     1       2.555   2.447   0.430  0.00  0.00    +0.053 A 
BRANCH  16  18
ATOM     18  C   UNL     1       2.603   4.950   0.459  0.00  0.00    -0.018 A 
ATOM     19  C   UNL     1       1.996   5.109  -0.808  0.00  0.00    +0.008 A 
ATOM     20  C   UNL     1       1.370   6.302  -1.194  0.00  0.00    +0.001 A 
ATOM     21  C   UNL     1       1.364   7.394  -0.335  0.00  0.00    +0.000 A 
ATOM     22  C   UNL     1       1.977   7.285   0.908  0.00  0.00    +0.001 A 
ATOM     23  C   UNL     1       2.569   6.076   1.300  0.00  0.00    +0.008 A 
ENDBRANCH  16  18
BRANCH  11  25
ATOM     24  C   UNL     1       1.112   0.054  -0.130  0.00  0.00    +0.277 C 
ATOM     25  O   UNL     1       2.484  -0.000   0.246  0.00  0.00    -0.495 OA
ENDBRANCH  11  25
ENDBRANCH   1  13
BRANCH   7  26
ATOM     26  C   UNL     1      11.574   0.295   4.732  0.00  0.00    +0.266 C 
ATOM     27  N   UNL     1      12.449   0.759   5.599  0.00  0.00    -0.288 N 
ATOM     28  H   UNL     1      13.312   0.281   5.808  0.00  0.00    +0.301 HD
ATOM     29  H   UNL     1      12.260   1.624   6.093  0.00  0.00    +0.301 HD
ATOM     30  N   UNL     1      11.805  -0.842   4.108  0.00  0.00    -0.250 N 
ATOM     31  H   UNL     1      12.630  -1.400   4.272  0.00  0.00    +0.288 HD
ATOM     32  H   UNL     1      11.153  -1.170   3.402  0.00  0.00    +0.288 HD
ENDBRANCH   7  26
TORSDOF 4
