REMARK  Name = 
REMARK  6 active torsions:
REMARK  status: ('A' for Active; 'I' for Inactive)
REMARK    1  A    between atoms: C_8  and  C_9
REMARK    2  A    between atoms: C_9  and  C_10
REMARK    3  A    between atoms: N_12  and  C_13
REMARK    4  A    between atoms: C_13  and  N_15
REMARK    5  A    between atoms: N_15  and  C_16
REMARK    6  A    between atoms: C_19  and  C_22
REMARK                            x       y       z     vdW  Elec       q    Type
REMARK                         _______ _______ _______ _____ _____    ______ ____
ROOT
ATOM      1  C   UNL     1       1.013  -2.161   0.741  0.00  0.00    +0.289 C 
ATOM      2  N   UNL     1       0.054  -3.125   0.507  0.00  0.00    -0.186 N 
ATOM      3  H   UNL     1       0.383  -4.081   0.448  0.00  0.00    +0.300 HD
ATOM      4  N   UNL     1       0.686  -1.044   1.288  0.00  0.00    -0.103 NA
ATOM      5  H   UNL     1       1.496  -0.427   1.400  0.00  0.00    +0.363 HD
ENDROOT
BRANCH   2   6
ATOM      6  C   UNL     1      -1.295  -2.989   0.204  0.00  0.00    +0.229 C 
ATOM      7  S   UNL     1      -1.970  -1.745  -0.684  0.00  0.00    +0.010 S 
BRANCH   6   8
ATOM      8  N   UNL     1      -2.080  -4.078   0.519  0.00  0.00    -0.277 N 
ATOM      9  H   UNL     1      -2.948  -4.146  -0.003  0.00  0.00    +0.156 HD
BRANCH   8  10
ATOM     10  C   UNL     1      -1.907  -4.975   1.590  0.00  0.00    +0.034 A 
ATOM     11  C   UNL     1      -2.487  -6.242   1.503  0.00  0.00    +0.024 A 
ATOM     12  C   UNL     1      -2.263  -7.186   2.514  0.00  0.00    +0.020 A 
ATOM     13  C   UNL     1      -1.502  -6.847   3.638  0.00  0.00    +0.052 A 
ATOM     14  C   UNL     1      -1.004  -5.549   3.767  0.00  0.00    +0.020 A 
ATOM     15  C   UNL     1      -1.207  -4.618   2.746  0.00  0.00    +0.024 A 
BRANCH  13  16
ATOM     16  C   UNL     1      -1.219  -7.826   4.644  0.00  0.00    +0.099 C 
ATOM     17  N   UNL     1      -0.959  -8.619   5.452  0.00  0.00    -0.191 NA
ENDBRANCH  13  16
ENDBRANCH   8  10
ENDBRANCH   6   8
ENDBRANCH   2   6
BRANCH   1  18
ATOM     18  C   UNL     1       2.443  -2.495   0.337  0.00  0.00    +0.166 C 
BRANCH  18  21
ATOM     19 CL   UNL     1       4.843  -0.818   1.506  0.00  0.00    -0.083 Cl
ATOM     20  C   UNL     1       4.357  -2.391   2.038  0.00  0.00    +0.046 A 
ATOM     21  C   UNL     1       3.297  -3.101   1.436  0.00  0.00    +0.001 A 
ATOM     22  C   UNL     1       3.090  -4.425   1.877  0.00  0.00    +0.046 A 
ATOM     23 CL   UNL     1       1.975  -5.495   1.097  0.00  0.00    -0.083 Cl
ATOM     24  C   UNL     1       3.835  -4.973   2.929  0.00  0.00    +0.020 A 
ATOM     25  C   UNL     1       4.837  -4.233   3.542  0.00  0.00    +0.003 A 
ATOM     26  C   UNL     1       5.115  -2.952   3.078  0.00  0.00    +0.020 A 
ENDBRANCH  18  21
ENDBRANCH   1  18
TORSDOF 6
