REMARK  Name = 
REMARK  5 active torsions:
REMARK  status: ('A' for Active; 'I' for Inactive)
REMARK    1  A    between atoms: C_2  and  C_3
REMARK    2  A    between atoms: C_2  and  C_5
REMARK    3  A    between atoms: C_2  and  C_12
REMARK    4  A    between atoms: C_3  and  N_4
REMARK    5  A    between atoms: C_15  and  C_18
REMARK                            x       y       z     vdW  Elec       q    Type
REMARK                         _______ _______ _______ _____ _____    ______ ____
ROOT
ATOM      1  C   UNL     1       2.206  -0.057   0.062  0.00  0.00    +0.062 C 
ENDROOT
BRANCH   1   2
ATOM      2  C   UNL     1       2.571   1.383  -0.315  0.00  0.00    -0.039 A 
ATOM      3  C   UNL     1       3.699   1.702  -1.090  0.00  0.00    +0.006 A 
ATOM      4  C   UNL     1       3.980   3.025  -1.443  0.00  0.00    +0.020 A 
ATOM      5  C   UNL     1       3.143   4.050  -1.015  0.00  0.00    +0.041 A 
ATOM      6 CL   UNL     1       3.486   5.675  -1.461  0.00  0.00    -0.084 Cl
ATOM      7  C   UNL     1       2.032   3.762  -0.228  0.00  0.00    +0.020 A 
ATOM      8  C   UNL     1       1.750   2.438   0.123  0.00  0.00    +0.006 A 
ENDBRANCH   1   2
BRANCH   1   9
ATOM      9  C   UNL     1       2.665  -0.427   1.471  0.00  0.00    -0.039 A 
ATOM     10  C   UNL     1       1.713  -0.677   2.473  0.00  0.00    +0.005 A 
ATOM     11  C   UNL     1       2.102  -1.104   3.750  0.00  0.00    +0.009 A 
ATOM     12  C   UNL     1       3.454  -1.291   4.060  0.00  0.00    -0.015 A 
ATOM     13  C   UNL     1       4.405  -1.002   3.073  0.00  0.00    +0.009 A 
ATOM     14  C   UNL     1       4.018  -0.570   1.799  0.00  0.00    +0.005 A 
BRANCH  12  15
ATOM     15  C   UNL     1       3.870  -1.816   5.350  0.00  0.00    +0.019 A 
ATOM     16  C   UNL     1       5.008  -2.579   5.707  0.00  0.00    +0.142 A 
ATOM     17  N   UNL     1       5.036  -2.899   7.004  0.00  0.00    -0.182 NA
ATOM     18  N   UNL     1       3.913  -2.344   7.485  0.00  0.00    -0.284 N 
ATOM     19  H   UNL     1       3.707  -2.458   8.473  0.00  0.00    +0.188 HD
ATOM     20  C   UNL     1       3.181  -1.686   6.538  0.00  0.00    +0.113 A 
ENDBRANCH  12  15
ENDBRANCH   1   9
BRANCH   1  21
ATOM     21  C   UNL     1       2.648  -1.100  -1.011  0.00  0.00    +0.090 C 
BRANCH  21  22
ATOM     22  N   UNL     1       2.236  -2.481  -0.735  0.00  0.00    -0.329 NA
ATOM     23  H   UNL     1       2.519  -3.075  -1.514  0.00  0.00    +0.118 HD
ATOM     24  H   UNL     1       2.756  -2.821   0.076  0.00  0.00    +0.118 HD
ENDBRANCH  21  22
ENDBRANCH   1  21
TORSDOF 5
