REMARK  Name = 
REMARK  3 active torsions:
REMARK  status: ('A' for Active; 'I' for Inactive)
REMARK    1  A    between atoms: C_1  and  C_2
REMARK    2  A    between atoms: C_5  and  C_7
REMARK    3  A    between atoms: C_8  and  C_9
REMARK                            x       y       z     vdW  Elec       q    Type
REMARK                         _______ _______ _______ _____ _____    ______ ____
ROOT
ATOM      1  C   UNL     1       5.726  -1.379   0.015  0.00  0.00    +0.092 A 
ATOM      2  C   UNL     1       5.620  -2.873   0.051  0.00  0.00    +0.261 A 
ATOM      3  O   UNL     1       4.542  -3.461   0.104  0.00  0.00    -0.267 OA
ATOM      4  N   UNL     1       6.784  -3.585  -0.003  0.00  0.00    -0.321 N 
ATOM      5  H   UNL     1       6.680  -4.591   0.015  0.00  0.00    +0.169 HD
ATOM      6  C   UNL     1       8.046  -3.001  -0.093  0.00  0.00    +0.050 A 
ATOM      7  C   UNL     1       9.171  -3.823  -0.192  0.00  0.00    +0.028 A 
ATOM      8  C   UNL     1      10.437  -3.249  -0.299  0.00  0.00    +0.022 A 
ATOM      9  C   UNL     1      10.569  -1.864  -0.287  0.00  0.00    +0.042 A 
ATOM     10  C   UNL     1       9.444  -1.043  -0.179  0.00  0.00    +0.030 A 
ATOM     11 CL   UNL     1      12.131  -1.155  -0.425  0.00  0.00    -0.084 Cl
ATOM     12  C   UNL     1       8.160  -1.604  -0.091  0.00  0.00    +0.008 A 
ATOM     13  C   UNL     1       6.933  -0.761  -0.030  0.00  0.00    +0.007 A 
ENDROOT
BRANCH   1  17
ATOM     14  C   UNL     1       1.472   1.034  -1.232  0.00  0.00    +0.069 C 
ATOM     15  C   UNL     1       2.614   0.419  -0.520  0.00  0.00    +0.081 A 
ATOM     16  C   UNL     1       3.719  -0.260  -1.074  0.00  0.00    +0.076 A 
ATOM     17  C   UNL     1       4.499  -0.649   0.002  0.00  0.00    +0.173 A 
ATOM     18  O   UNL     1       3.861  -0.209   1.137  0.00  0.00    -0.354 OA
ATOM     19  N   UNL     1       2.695   0.459   0.811  0.00  0.00    -0.083 NA
ENDBRANCH   1  17
BRANCH  13  20
ATOM     20  C   UNL     1       6.992   0.723  -0.058  0.00  0.00    -0.016 A 
ATOM     21  C   UNL     1       7.030   1.401  -1.283  0.00  0.00    +0.008 A 
ATOM     22  C   UNL     1       7.110   2.794  -1.311  0.00  0.00    +0.001 A 
ATOM     23  C   UNL     1       7.158   3.513  -0.117  0.00  0.00    +0.000 A 
ATOM     24  C   UNL     1       7.127   2.843   1.106  0.00  0.00    +0.001 A 
ATOM     25  C   UNL     1       7.045   1.451   1.138  0.00  0.00    +0.008 A 
ENDBRANCH  13  20
TORSDOF 2
