REMARK  Name = 
REMARK  8 active torsions:
REMARK  status: ('A' for Active; 'I' for Inactive)
REMARK    1  A    between atoms: C_1  and  O_2
REMARK    2  A    between atoms: O_2  and  C_3
REMARK    3  A    between atoms: C_5  and  N_6
REMARK    4  A    between atoms: N_13  and  C_16
REMARK    5  A    between atoms: C_23  and  O_24
REMARK    6  A    between atoms: O_24  and  C_25
REMARK    7  A    between atoms: C_26  and  O_27
REMARK    8  A    between atoms: O_27  and  C_28
REMARK                            x       y       z     vdW  Elec       q    Type
REMARK                         _______ _______ _______ _____ _____    ______ ____
ROOT
ATOM      1  N   UNL     1       2.705   4.916   0.068  0.00  0.00    -0.283 N 
ATOM      2  H   UNL     1       1.727   4.980   0.319  0.00  0.00    +0.155 HD
ATOM      3  C   UNL     1       3.255   6.201   0.093  0.00  0.00    +0.221 A 
ATOM      4  N   UNL     1       4.521   6.409  -0.295  0.00  0.00    -0.196 NA
ATOM      5  C   UNL     1       4.939   7.686  -0.217  0.00  0.00    +0.151 A 
ATOM      6  C   UNL     1       4.162   8.742   0.244  0.00  0.00    +0.037 A 
ATOM      7  C   UNL     1       4.951   9.913   0.206  0.00  0.00    +0.031 A 
ATOM      8  C   UNL     1       6.183   9.550  -0.287  0.00  0.00    +0.095 A 
ATOM      9  C   UNL     1       2.862   8.433   0.622  0.00  0.00    +0.126 A 
ATOM     10  N   UNL     1       6.199   8.183  -0.544  0.00  0.00    -0.285 N 
ATOM     11  N   UNL     1       2.416   7.161   0.519  0.00  0.00    -0.222 NA
ENDROOT
BRANCH   1  16
ATOM     12  C   UNL     1       5.240   2.185   0.512  0.00  0.00    +0.167 A 
ATOM     13  C   UNL     1       4.428   1.035   0.420  0.00  0.00    +0.204 A 
ATOM     14  C   UNL     1       3.039   1.213   0.235  0.00  0.00    +0.167 A 
ATOM     15  C   UNL     1       2.501   2.510   0.129  0.00  0.00    +0.073 A 
ATOM     16  C   UNL     1       3.294   3.653   0.231  0.00  0.00    +0.041 A 
ATOM     17  C   UNL     1       4.663   3.462   0.408  0.00  0.00    +0.073 A 
BRANCH  12  19
ATOM     18  C   UNL     1       7.288   3.019   1.399  0.00  0.00    +0.277 C 
ATOM     19  O   UNL     1       6.605   2.051   0.605  0.00  0.00    -0.491 OA
ENDBRANCH  12  19
BRANCH  13  20
ATOM     20  O   UNL     1       4.865  -0.260   0.494  0.00  0.00    -0.488 OA
ATOM     21  C   UNL     1       6.234  -0.554   0.714  0.00  0.00    +0.277 C 
ENDBRANCH  13  20
BRANCH  14  22
ATOM     22  O   UNL     1       2.055   0.259   0.124  0.00  0.00    -0.491 OA
ATOM     23  C   UNL     1       2.391  -1.114   0.244  0.00  0.00    +0.277 C 
ENDBRANCH  14  22
ENDBRANCH   1  16
BRANCH  10  24
ATOM     24  C   UNL     1       7.360   7.490  -1.025  0.00  0.00    +0.139 A 
ATOM     25  N   UNL     1       8.493   8.229  -1.182  0.00  0.00    -0.238 NA
ATOM     26  C   UNL     1       9.615   7.595  -1.587  0.00  0.00    +0.113 A 
ATOM     27  C   UNL     1       9.681   6.239  -1.843  0.00  0.00    +0.020 A 
ATOM     28  C   UNL     1       8.519   5.494  -1.698  0.00  0.00    +0.005 A 
ATOM     29  C   UNL     1       7.339   6.125  -1.297  0.00  0.00    +0.047 A 
ENDBRANCH  10  24
TORSDOF 5
