REMARK  Name = 
REMARK  2 active torsions:
REMARK  status: ('A' for Active; 'I' for Inactive)
REMARK    1  A    between atoms: C_7  and  N_8
REMARK    2  A    between atoms: N_8  and  C_9
REMARK                            x       y       z     vdW  Elec       q    Type
REMARK                         _______ _______ _______ _____ _____    ______ ____
ROOT
ATOM      1  N   UNL     1       3.608  -3.563   0.013  0.00  0.00    -0.320 N 
ATOM      2  H   UNL     1       4.520  -3.460  -0.418  0.00  0.00    +0.152 HD
ENDROOT
BRANCH   1   6
ATOM      3  O   UNL     1       1.231  -0.056   0.571  0.00  0.00    -0.245 OA
ATOM      4  C   UNL     1       2.271  -0.045  -0.060  0.00  0.00    +0.336 C 
ATOM      5  C   UNL     1       3.166  -1.193  -0.303  0.00  0.00    +0.053 C 
ATOM      6  C   UNL     1       2.861  -2.420   0.134  0.00  0.00    +0.082 C 
ATOM      7  C   UNL     1       4.358  -0.729  -1.041  0.00  0.00    +0.084 C 
ATOM      8  C   UNL     1       3.960   0.676  -1.434  0.00  0.00    +0.237 C 
ATOM      9  O   UNL     1       2.827   1.048  -0.647  0.00  0.00    -0.461 OA
ENDBRANCH   1   6
BRANCH   1  10
ATOM     10  C   UNL     1       3.331  -4.854   0.504  0.00  0.00    +0.031 A 
ATOM     11  C   UNL     1       4.248  -5.885   0.240  0.00  0.00    +0.023 A 
ATOM     12  C   UNL     1       4.020  -7.193   0.681  0.00  0.00    +0.002 A 
ATOM     13  C   UNL     1       2.862  -7.495   1.391  0.00  0.00    +0.000 A 
ATOM     14  C   UNL     1       1.938  -6.491   1.657  0.00  0.00    +0.002 A 
ATOM     15  C   UNL     1       2.170  -5.183   1.215  0.00  0.00    +0.023 A 
ENDBRANCH   1  10
TORSDOF 2
