REMARK  Name = 
REMARK  9 active torsions:
REMARK  status: ('A' for Active; 'I' for Inactive)
REMARK    1  A    between atoms: N_1  and  C_2
REMARK    2  A    between atoms: C_2  and  C_3
REMARK    3  A    between atoms: C_2  and  C_20
REMARK    4  A    between atoms: C_2  and  C_24
REMARK    5  A    between atoms: C_3  and  S_4
REMARK    6  A    between atoms: S_4  and  C_7
REMARK    7  A    between atoms: C_10  and  O_11
REMARK    8  A    between atoms: O_11  and  C_12
REMARK    9  A    between atoms: N_22  and  O_23
REMARK                            x       y       z     vdW  Elec       q    Type
REMARK                         _______ _______ _______ _____ _____    ______ ____
ROOT
ATOM      1  S   UNL     1       0.257  -0.313  -1.503  0.00  0.00    -0.001 S 
ATOM      2  O   UNL     1       0.633   1.055  -1.217  0.00  0.00    -0.169 OA
ATOM      3  O   UNL     1       0.695  -1.397  -0.642  0.00  0.00    -0.169 OA
ENDROOT
BRANCH   1   4
ATOM      4  C   UNL     1      -1.525  -0.342  -1.522  0.00  0.00    +0.088 A 
ATOM      5  C   UNL     1      -2.223   0.441  -2.448  0.00  0.00    +0.030 A 
ATOM      6  C   UNL     1      -3.608   0.288  -2.585  0.00  0.00    +0.048 A 
ATOM      7  C   UNL     1      -4.290  -0.616  -1.765  0.00  0.00    +0.129 A 
ATOM      8  C   UNL     1      -3.586  -1.344  -0.800  0.00  0.00    +0.048 A 
ATOM      9  C   UNL     1      -2.204  -1.215  -0.672  0.00  0.00    +0.030 A 
BRANCH   7  10
ATOM     10  O   UNL     1      -5.611  -0.971  -1.883  0.00  0.00    -0.456 OA
BRANCH  10  11
ATOM     11  C   UNL     1      -6.552  -0.135  -2.426  0.00  0.00    +0.128 A 
ATOM     12  C   UNL     1      -6.651   1.227  -2.142  0.00  0.00    +0.046 A 
ATOM     13  C   UNL     1      -7.740   1.957  -2.627  0.00  0.00    +0.004 A 
ATOM     14  C   UNL     1      -8.739   1.324  -3.370  0.00  0.00    +0.000 A 
ATOM     15  C   UNL     1      -8.643  -0.038  -3.646  0.00  0.00    +0.004 A 
ATOM     16  C   UNL     1      -7.551  -0.765  -3.173  0.00  0.00    +0.046 A 
ENDBRANCH  10  11
ENDBRANCH   7  10
ENDBRANCH   1   4
BRANCH   1  17
ATOM     17  C   UNL     1       0.663  -0.739  -3.193  0.00  0.00    +0.212 C 
BRANCH  17  18
ATOM     18  C   UNL     1       2.143  -1.024  -3.486  0.00  0.00    +0.211 C 
BRANCH  18  19
ATOM     19  C   UNL     1       2.700  -2.170  -2.613  0.00  0.00    +0.418 C 
ATOM     20  F   UNL     1       1.783  -3.123  -2.367  0.00  0.00    -0.168 F 
ATOM     21  F   UNL     1       3.216  -1.739  -1.446  0.00  0.00    -0.168 F 
ATOM     22  F   UNL     1       3.728  -2.774  -3.272  0.00  0.00    -0.168 F 
ENDBRANCH  18  19
BRANCH  18  23
ATOM     23  C   UNL     1       2.994   0.238  -3.265  0.00  0.00    +0.266 C 
ATOM     24  N   UNL     1       4.362   0.095  -3.286  0.00  0.00    -0.196 N 
ATOM     25  H   UNL     1       4.870  -0.772  -3.126  0.00  0.00    +0.182 HD
ATOM     26  O   UNL     1       2.498   1.368  -3.250  0.00  0.00    -0.271 OA
BRANCH  24  27
ATOM     27  O   UNL     1       5.090   1.284  -3.032  0.00  0.00    -0.295 OA
ATOM     28  H   UNL     1       4.381   1.934  -2.813  0.00  0.00    +0.241 HD
ENDBRANCH  24  27
ENDBRANCH  18  23
BRANCH  18  29
ATOM     29  N   UNL     1       2.214  -1.320  -4.982  0.00  0.00    -0.309 NA
ATOM     30  H   UNL     1       2.063  -0.450  -5.501  0.00  0.00    +0.119 HD
ATOM     31  H   UNL     1       3.167  -1.616  -5.214  0.00  0.00    +0.119 HD
ENDBRANCH  18  29
ENDBRANCH  17  18
ENDBRANCH   1  17
TORSDOF 9
