REMARK  Name = 
REMARK  6 active torsions:
REMARK  status: ('A' for Active; 'I' for Inactive)
REMARK    1  A    between atoms: C_1  and  C_2
REMARK    2  A    between atoms: C_2  and  C_4
REMARK    3  A    between atoms: C_4  and  N_5
REMARK    4  A    between atoms: C_6  and  O_8
REMARK    5  A    between atoms: O_8  and  C_9
REMARK    6  A    between atoms: C_9  and  C_10
REMARK                            x       y       z     vdW  Elec       q    Type
REMARK                         _______ _______ _______ _____ _____    ______ ____
ROOT
ATOM      1  N   UNL     1       4.748   1.401   0.590  0.00  0.00    -0.274 N 
ATOM      2  H   UNL     1       3.819   1.793   0.710  0.00  0.00    +0.152 HD
ATOM      3  C   UNL     1       5.594   1.785   1.585  0.00  0.00    +0.401 C 
ATOM      4  O   UNL     1       5.214   2.543   2.472  0.00  0.00    -0.226 OA
ENDROOT
BRANCH   1   5
ATOM      5  C   UNL     1       4.791   0.115  -0.069  0.00  0.00    +0.181 C 
BRANCH   5   7
ATOM      6  C   UNL     1       3.978  -2.046   1.089  0.00  0.00    +0.087 C 
ATOM      7  C   UNL     1       3.647  -0.694   0.525  0.00  0.00    +0.147 C 
ATOM      8  O   UNL     1       2.503  -0.235   0.587  0.00  0.00    -0.296 OA
ENDBRANCH   5   7
ENDBRANCH   1   5
BRANCH   3   9
ATOM      9  O   UNL     1       6.855   1.322   1.434  0.00  0.00    -0.446 OA
BRANCH   9  10
ATOM     10  C   UNL     1       7.839   2.020   2.211  0.00  0.00    +0.269 C 
BRANCH  10  11
ATOM     11  C   UNL     1       8.704   1.050   2.970  0.00  0.00    -0.010 A 
ATOM     12  C   UNL     1       8.344   0.646   4.264  0.00  0.00    +0.007 A 
ATOM     13  C   UNL     1       9.163  -0.221   4.987  0.00  0.00    +0.000 A 
ATOM     14  C   UNL     1      10.345  -0.698   4.423  0.00  0.00    +0.000 A 
ATOM     15  C   UNL     1      10.707  -0.312   3.133  0.00  0.00    +0.000 A 
ATOM     16  C   UNL     1       9.889   0.555   2.408  0.00  0.00    +0.007 A 
ENDBRANCH  10  11
ENDBRANCH   9  10
ENDBRANCH   3   9
TORSDOF 5
