REMARK  Name = 
REMARK  5 active torsions:
REMARK  status: ('A' for Active; 'I' for Inactive)
REMARK    1  A    between atoms: C_4  and  C_8
REMARK    2  A    between atoms: C_12  and  C_13
REMARK    3  A    between atoms: C_16  and  C_18
REMARK    4  A    between atoms: N_20  and  C_21
REMARK    5  A    between atoms: C_21  and  C_22
REMARK                            x       y       z     vdW  Elec       q    Type
REMARK                         _______ _______ _______ _____ _____    ______ ____
ROOT
ATOM      1  C   UNL     1       7.829   1.550  -1.321  0.00  0.00    +0.021 A 
ATOM      2  C   UNL     1       7.460   0.225  -1.675  0.00  0.00    +0.042 A 
ATOM      3  C   UNL     1       8.609  -0.553  -1.665  0.00  0.00    +0.102 A 
ATOM      4  N   UNL     1       9.666   0.332  -1.596  0.00  0.00    -0.356 N 
ATOM      5  H   UNL     1      10.639   0.049  -1.623  0.00  0.00    +0.165 HD
ATOM      6  C   UNL     1       9.206   1.601  -1.370  0.00  0.00    +0.093 A 
ENDROOT
BRANCH   1   8
ATOM      7  C   UNL     1       5.686   2.516  -0.210  0.00  0.00    +0.027 A 
ATOM      8  C   UNL     1       6.918   2.637  -0.942  0.00  0.00    +0.102 A 
ATOM      9  N   UNL     1       7.213   3.916  -1.211  0.00  0.00    -0.173 NA
ATOM     10  N   UNL     1       6.178   4.600  -0.710  0.00  0.00    -0.284 N 
ATOM     11  H   UNL     1       6.179   5.611  -0.816  0.00  0.00    +0.188 HD
ATOM     12  C   UNL     1       5.247   3.819  -0.100  0.00  0.00    +0.114 A 
BRANCH   7  18
ATOM     13 CL   UNL     1       1.142   0.198   0.731  0.00  0.00    -0.084 Cl
ATOM     14  C   UNL     1       2.863   0.199   0.727  0.00  0.00    +0.042 A 
ATOM     15  C   UNL     1       3.552  -0.953   1.098  0.00  0.00    +0.020 A 
ATOM     16  C   UNL     1       4.941  -0.931   1.155  0.00  0.00    +0.002 A 
ATOM     17  C   UNL     1       5.632   0.236   0.816  0.00  0.00    +0.009 A 
ATOM     18  C   UNL     1       4.956   1.368   0.332  0.00  0.00    -0.013 A 
ATOM     19  C   UNL     1       3.554   1.349   0.338  0.00  0.00    +0.028 A 
ENDBRANCH   7  18
ENDBRANCH   1   8
BRANCH   3  20
ATOM     20  C   UNL     1       8.806  -1.987  -1.703  0.00  0.00    +0.261 C 
ATOM     21  N   UNL     1       7.659  -2.729  -1.547  0.00  0.00    -0.306 N 
ATOM     22  H   UNL     1       6.794  -2.260  -1.333  0.00  0.00    +0.149 HD
ATOM     23  O   UNL     1       9.918  -2.491  -1.821  0.00  0.00    -0.269 OA
BRANCH  21  24
ATOM     24  C   UNL     1       7.664  -4.172  -1.530  0.00  0.00    +0.140 C 
BRANCH  24  25
ATOM     25  C   UNL     1       7.570  -4.730  -0.130  0.00  0.00    -0.030 A 
ATOM     26  C   UNL     1       8.736  -5.041   0.585  0.00  0.00    +0.005 A 
ATOM     27  C   UNL     1       8.659  -5.612   1.858  0.00  0.00    +0.000 A 
ATOM     28  C   UNL     1       7.417  -5.862   2.437  0.00  0.00    +0.000 A 
ATOM     29  C   UNL     1       6.250  -5.532   1.748  0.00  0.00    +0.000 A 
ATOM     30  C   UNL     1       6.325  -4.965   0.473  0.00  0.00    +0.005 A 
ENDBRANCH  24  25
ENDBRANCH  21  24
ENDBRANCH   3  20
TORSDOF 5
