REMARK  Name = 
REMARK  5 active torsions:
REMARK  status: ('A' for Active; 'I' for Inactive)
REMARK    1  A    between atoms: C_1  and  C_2
REMARK    2  A    between atoms: C_2  and  C_3
REMARK    3  A    between atoms: C_3  and  C_4
REMARK    4  A    between atoms: C_5  and  O_6
REMARK    5  A    between atoms: O_6  and  C_7
REMARK                            x       y       z     vdW  Elec       q    Type
REMARK                         _______ _______ _______ _____ _____    ______ ____
ROOT
ATOM      1  C   UNL     1       4.520  -1.313  -0.625  0.00  0.00    +0.059 A 
ATOM      2  C   UNL     1       5.254  -2.623  -0.712  0.00  0.00    +0.256 A 
ATOM      3  O   UNL     1       4.681  -3.710  -0.723  0.00  0.00    -0.267 OA
ATOM      4  N   UNL     1       6.607  -2.589  -0.816  0.00  0.00    -0.322 N 
ATOM      5  H   UNL     1       7.057  -3.493  -0.860  0.00  0.00    +0.169 HD
ATOM      6  C   UNL     1       7.353  -1.420  -0.836  0.00  0.00    +0.053 A 
ATOM      7  C   UNL     1       6.706  -0.182  -0.727  0.00  0.00    +0.042 A 
ATOM      8  C   UNL     1       7.561   0.920  -0.611  0.00  0.00    +0.033 A 
ATOM      9  C   UNL     1       8.941   0.837  -0.787  0.00  0.00    +0.042 A 
ATOM     10  C   UNL     1       9.542  -0.397  -0.965  0.00  0.00    +0.022 A 
ATOM     11 CL   UNL     1       9.878   2.276  -0.834  0.00  0.00    -0.084 Cl
ATOM     12  C   UNL     1       8.748  -1.537  -0.948  0.00  0.00    +0.028 A 
ATOM     13  C   UNL     1       5.202  -0.141  -0.733  0.00  0.00    +0.138 A 
ENDROOT
BRANCH   1  14
ATOM     14  C   UNL     1       3.013  -1.484  -0.500  0.00  0.00    +0.044 C 
BRANCH  14  16
ATOM     15  C   UNL     1       2.803  -1.405   2.066  0.00  0.00    +0.004 C 
ATOM     16  C   UNL     1       2.542  -2.193   0.792  0.00  0.00    +0.002 C 
ENDBRANCH  14  16
ENDBRANCH   1  14
BRANCH  13  17
ATOM     17  O   UNL     1       4.499   1.077  -0.817  0.00  0.00    -0.488 OA
BRANCH  17  18
ATOM     18  C   UNL     1       5.012   2.148  -1.648  0.00  0.00    +0.174 C 
ATOM     19  C   UNL     1       5.373   3.356  -0.752  0.00  0.00    +0.044 C 
ATOM     20  C   UNL     1       4.226   4.288  -0.402  0.00  0.00    +0.004 C 
ATOM     21  C   UNL     1       3.481   4.728  -1.645  0.00  0.00    +0.000 C 
ATOM     22  C   UNL     1       2.945   3.509  -2.385  0.00  0.00    +0.004 C 
ATOM     23  C   UNL     1       4.064   2.554  -2.788  0.00  0.00    +0.044 C 
ENDBRANCH  17  18
ENDBRANCH  13  17
TORSDOF 4
