REMARK  Name = 
REMARK  8 active torsions:
REMARK  status: ('A' for Active; 'I' for Inactive)
REMARK    1  A    between atoms: C_1  and  O_2
REMARK    2  A    between atoms: O_2  and  N_3
REMARK    3  A    between atoms: C_4  and  C_5
REMARK    4  A    between atoms: C_4  and  C_12
REMARK    5  A    between atoms: N_7  and  C_8
REMARK    6  A    between atoms: C_8  and  B_9
REMARK    7  A    between atoms: B_9  and  O_10
REMARK    8  A    between atoms: B_9  and  O_11
REMARK                            x       y       z     vdW  Elec       q    Type
REMARK                         _______ _______ _______ _____ _____    ______ ____
ROOT
ATOM      1  N   UNL     1       3.060   1.042  -0.614  0.00  0.00    +0.000 NA
ATOM      2  C   UNL     1       4.353   0.980  -0.674  0.00  0.00    +0.000 C 
ENDROOT
BRANCH   2   3
ATOM      3  C   UNL     1       5.025   2.086  -1.418  0.00  0.00    +0.000 A 
ATOM      4  N   UNL     1       6.347   2.087  -1.741  0.00  0.00    +0.000 NA
ATOM      5  C   UNL     1       6.694   3.178  -2.456  0.00  0.00    +0.000 A 
ATOM      6  N   UNL     1       8.003   3.415  -2.925  0.00  0.00    +0.000 N 
ATOM      7  H   UNL     1       8.758   2.743  -2.724  0.00  0.00    +0.000 HD
ATOM      8  H   UNL     1       8.210   4.257  -3.481  0.00  0.00    +0.000 HD
ATOM      9  S   UNL     1       5.391   4.196  -2.737  0.00  0.00    +0.000 S 
ATOM     10  C   UNL     1       4.324   3.196  -1.907  0.00  0.00    +0.000 A 
ENDBRANCH   2   3
BRANCH   2  11
ATOM     11  C   UNL     1       5.102  -0.187  -0.069  0.00  0.00    +0.000 C 
ATOM     12  N   UNL     1       6.434  -0.119   0.221  0.00  0.00    +0.000 N 
ATOM     13  H   UNL     1       6.949   0.760   0.094  0.00  0.00    +0.000 HD
ATOM     14  O   UNL     1       4.486  -1.213   0.184  0.00  0.00    +0.000 OA
BRANCH  12  15
ATOM     15  C   UNL     1       7.201  -1.239   0.742  0.00  0.00    +0.000 C 
BRANCH  15  16
ATOM     16  B   UNL     1       7.759  -0.909   2.201  0.00  0.00    +0.000 B 
BRANCH  16  17
ATOM     17  O   UNL     1       8.570   0.287   2.429  0.00  0.00    +0.000 OA
ATOM     18  H   UNL     1       9.265   0.272   1.723  0.00  0.00    +0.000 HD
ENDBRANCH  16  17
BRANCH  16  19
ATOM     19  O   UNL     1       7.476  -1.820   3.309  0.00  0.00    +0.000 OA
ATOM     20  H   UNL     1       6.527  -1.657   3.541  0.00  0.00    +0.000 HD
ENDBRANCH  16  19
ENDBRANCH  15  16
ENDBRANCH  12  15
ENDBRANCH   2  11
BRANCH   1  22
ATOM     21  C   UNL     1       0.951   0.332   0.075  0.00  0.00    +0.000 C 
ATOM     22  O   UNL     1       2.311   0.145  -0.008  0.00  0.00    +0.000 OA
ENDBRANCH   1  22
TORSDOF 7
