REMARK  Name = 
REMARK  3 active torsions:
REMARK  status: ('A' for Active; 'I' for Inactive)
REMARK    1  A    between atoms: C_1  and  C_2
REMARK    2  A    between atoms: C_5  and  C_7
REMARK    3  A    between atoms: C_12  and  N_13
REMARK                            x       y       z     vdW  Elec       q    Type
REMARK                         _______ _______ _______ _____ _____    ______ ____
ROOT
ATOM      1  C   UNL     1       5.877  -1.171   0.159  0.00  0.00    +0.040 A 
ATOM      2  C   UNL     1       5.752  -2.571   0.032  0.00  0.00    +0.043 A 
ATOM      3  C   UNL     1       6.939  -3.338   0.001  0.00  0.00    +0.024 A 
ATOM      4  C   UNL     1       8.199  -2.750  -0.103  0.00  0.00    +0.002 A 
ATOM      5  C   UNL     1       8.308  -1.371  -0.105  0.00  0.00    +0.001 A 
ATOM      6  C   UNL     1       7.164  -0.597   0.060  0.00  0.00    +0.013 A 
ENDROOT
BRANCH   2   7
ATOM      7  N   UNL     1       4.483  -3.229   0.005  0.00  0.00    -0.298 N 
ATOM      8  H   UNL     1       4.099  -3.281   0.951  0.00  0.00    +0.154 HD
ATOM      9  C   UNL     1       4.289  -4.524  -0.546  0.00  0.00    +0.135 A 
ATOM     10  C   UNL     1       4.897  -4.990  -1.733  0.00  0.00    +0.059 A 
ATOM     11  C   UNL     1       5.690  -4.437  -2.782  0.00  0.00    +0.032 A 
ATOM     12  C   UNL     1       6.108  -5.473  -3.590  0.00  0.00    +0.085 A 
ATOM     13  N   UNL     1       5.581  -6.632  -3.083  0.00  0.00    -0.346 N 
ATOM     14  H   UNL     1       5.742  -7.566  -3.433  0.00  0.00    +0.167 HD
ATOM     15  C   UNL     1       4.798  -6.347  -1.996  0.00  0.00    +0.143 A 
ATOM     16  N   UNL     1       4.099  -7.252  -1.299  0.00  0.00    -0.218 NA
ATOM     17  C   UNL     1       3.464  -6.682  -0.261  0.00  0.00    +0.225 A 
ATOM     18  N   UNL     1       3.528  -5.403   0.159  0.00  0.00    -0.220 NA
ENDBRANCH   2   7
BRANCH   1  23
ATOM     19  C   UNL     1       1.608   1.317  -0.424  0.00  0.00    +0.088 C 
ATOM     20  C   UNL     1       2.915   0.899   0.117  0.00  0.00    +0.128 A 
ATOM     21  N   UNL     1       3.502  -0.320  -0.112  0.00  0.00    -0.325 N 
ATOM     22  H   UNL     1       3.124  -1.104  -0.626  0.00  0.00    +0.169 HD
ATOM     23  C   UNL     1       4.783  -0.224   0.366  0.00  0.00    +0.163 A 
ATOM     24  N   UNL     1       4.895   0.936   0.989  0.00  0.00    -0.129 NA
ATOM     25  N   UNL     1       3.734   1.637   0.831  0.00  0.00    -0.135 NA
ENDBRANCH   1  23
TORSDOF 2
