REMARK  Name = 
REMARK  13 active torsions:
REMARK  status: ('A' for Active; 'I' for Inactive)
REMARK    1  A    between atoms: CA_2  and  C_3
REMARK    2  A    between atoms: CA_2  and  N_7
REMARK    3  A    between atoms: CA_2  and  C_23
REMARK    4  A    between atoms: C_3  and  C_4
REMARK    5  A    between atoms: C_4  and  C_5
REMARK    6  A    between atoms: C_5  and  C_6
REMARK    7  A    between atoms: C_8  and  O_10
REMARK    8  A    between atoms: O_10  and  C_11
REMARK    9  A    between atoms: C_11  and  C_13
REMARK   10  A    between atoms: C_11  and  C_20
REMARK   11  A    between atoms: C_13  and  C_14
REMARK   12  A    between atoms: C_20  and  C_21
REMARK   13  A    between atoms: C_20  and  C_22
REMARK                            x       y       z     vdW  Elec       q    Type
REMARK                         _______ _______ _______ _____ _____    ______ ____
ROOT
ATOM      1  O   UNL     1       3.094   0.310   5.115  0.00  0.00    -0.447 OA
ENDROOT
BRANCH   1   4
ATOM      2  N   UNL     1       3.326   2.541   4.799  0.00  0.00    -0.272 N 
ATOM      3  H   UNL     1       2.826   3.393   4.591  0.00  0.00    +0.153 HD
ATOM      4  C   UNL     1       2.636   1.414   4.486  0.00  0.00    +0.401 C 
ATOM      5  O   UNL     1       1.665   1.472   3.750  0.00  0.00    -0.226 OA
BRANCH   2   6
ATOM      6  CA  UNL     1       4.778   2.637   4.905  0.00  0.00    +0.139 C 
BRANCH   6   7
ATOM      7  C   UNL     1       5.183   2.950   6.341  0.00  0.00    +0.245 C 
ATOM      8  O   UNL     1       4.550   3.679   7.098  0.00  0.00    -0.299 OA
ENDBRANCH   6   7
BRANCH   6   9
ATOM      9  C   UNL     1       5.255   3.750   3.954  0.00  0.00    +0.030 C 
BRANCH   9  10
ATOM     10  C   UNL     1       6.773   3.912   3.875  0.00  0.00    +0.002 C 
BRANCH  10  11
ATOM     11  C   UNL     1       7.155   5.037   2.906  0.00  0.00    -0.003 C 
ATOM     12  C   UNL     1       8.663   5.223   2.832  0.00  0.00    +0.004 C 
ENDBRANCH  10  11
ENDBRANCH   9  10
ENDBRANCH   6   9
ENDBRANCH   2   6
ENDBRANCH   1   4
BRANCH   1  13
ATOM     13  C   UNL     1       2.374  -0.955   4.976  0.00  0.00    +0.185 C 
BRANCH  13  14
ATOM     14  C   UNL     1       3.052  -1.977   5.945  0.00  0.00    +0.024 C 
ATOM     15  C   UNL     1       4.580  -1.992   5.816  0.00  0.00    +0.011 C 
ATOM     16  C   UNL     1       2.529  -3.408   5.770  0.00  0.00    +0.011 C 
ENDBRANCH  13  14
BRANCH  13  17
ATOM     17  C   UNL     1       0.831  -0.860   5.208  0.00  0.00    +0.080 C 
BRANCH  17  18
ATOM     18  C   UNL     1       0.434  -0.380   6.584  0.00  0.00    -0.044 A 
ATOM     19  C   UNL     1       0.286  -1.281   7.648  0.00  0.00    +0.004 A 
ATOM     20  C   UNL     1       0.087  -0.823   8.949  0.00  0.00    +0.000 A 
ATOM     21  C   UNL     1      -0.011   0.543   9.196  0.00  0.00    +0.000 A 
ATOM     22  C   UNL     1       0.056   1.446   8.138  0.00  0.00    +0.000 A 
ATOM     23  C   UNL     1       0.267   0.987   6.838  0.00  0.00    +0.004 A 
ENDBRANCH  17  18
ENDBRANCH  13  17
ENDBRANCH   1  13
TORSDOF 10
