REMARK  Name = 
REMARK  3 active torsions:
REMARK  status: ('A' for Active; 'I' for Inactive)
REMARK    1  A    between atoms: N_1  and  C_2
REMARK    2  A    between atoms: C_7  and  S_12
REMARK    3  A    between atoms: S_12  and  O_13
REMARK                            x       y       z     vdW  Elec       q    Type
REMARK                         _______ _______ _______ _____ _____    ______ ____
ROOT
ATOM      1  C   UNL     1       2.329   0.093  -0.077  0.00  0.00    +0.032 A 
ATOM      2  C   UNL     1       2.993   1.324  -0.068  0.00  0.00    +0.023 A 
ATOM      3  C   UNL     1       4.359   1.387   0.157  0.00  0.00    +0.002 A 
ATOM      4  C   UNL     1       5.087   0.212   0.328  0.00  0.00    +0.010 A 
ATOM      5  C   UNL     1       4.484  -1.067   0.230  0.00  0.00    +0.011 A 
ATOM      6  C   UNL     1       5.190  -2.300   0.330  0.00  0.00    +0.125 A 
ATOM      7  C   UNL     1       4.547  -3.537   0.179  0.00  0.00    +0.030 A 
ATOM      8  C   UNL     1       3.187  -3.576  -0.073  0.00  0.00    +0.003 A 
ATOM      9  C   UNL     1       2.469  -2.384  -0.160  0.00  0.00    +0.010 A 
ATOM     10  C   UNL     1       3.079  -1.116  -0.004  0.00  0.00    +0.005 A 
ENDROOT
BRANCH   1  11
ATOM     11  N   UNL     1       0.944   0.102  -0.363  0.00  0.00    -0.357 N 
ATOM     12  H   UNL     1       0.498   0.986  -0.134  0.00  0.00    +0.142 HD
ATOM     13  H   UNL     1       0.446  -0.674   0.060  0.00  0.00    +0.142 HD
ENDBRANCH   1  11
BRANCH   6  14
ATOM     14  S   UNL     1       6.940  -2.348   0.667  0.00  0.00    +0.110 S 
ATOM     15  O   UNL     1       7.624  -1.559  -0.331  0.00  0.00    -0.142 OA
ATOM     16  O   UNL     1       7.319  -3.720   0.933  0.00  0.00    -0.142 OA
BRANCH  14  17
ATOM     17  O   UNL     1       7.087  -1.611   2.095  0.00  0.00    -0.250 OA
ATOM     18  H   UNL     1       7.280  -2.302   2.762  0.00  0.00    +0.245 HD
ENDBRANCH  14  17
ENDBRANCH   6  14
TORSDOF 3
