REMARK  Name = 
REMARK  8 active torsions:
REMARK  status: ('A' for Active; 'I' for Inactive)
REMARK    1  A    between atoms: C_1  and  O_2
REMARK    2  A    between atoms: O_2  and  C_3
REMARK    3  A    between atoms: C_8  and  C_9
REMARK    4  A    between atoms: C_17  and  O_18
REMARK    5  A    between atoms: N_20  and  C_21
REMARK    6  A    between atoms: C_21  and  C_22
REMARK    7  A    between atoms: C_22  and  C_23
REMARK    8  A    between atoms: C_23  and  O_24
REMARK                            x       y       z     vdW  Elec       q    Type
REMARK                         _______ _______ _______ _____ _____    ______ ____
ROOT
ATOM      1  C   UNL     1       2.124  -2.675   1.098  0.00  0.00    +0.001 A 
ATOM      2  C   UNL     1       1.179  -2.017   1.911  0.00  0.00    +0.060 A 
ATOM      3  C   UNL     1       1.401  -1.154   3.055  0.00  0.00    +0.260 A 
ATOM      4  N   UNL     1       0.130  -0.750   3.408  0.00  0.00    -0.289 N 
ATOM      5  H   UNL     1      -0.062  -0.289   4.282  0.00  0.00    +0.172 HD
ATOM      6  C   UNL     1      -0.863  -1.462   2.815  0.00  0.00    +0.260 A 
ATOM      7  O   UNL     1      -2.070  -1.190   2.911  0.00  0.00    -0.267 OA
ATOM      8  O   UNL     1       2.377  -0.975   3.772  0.00  0.00    -0.267 OA
ATOM      9  C   UNL     1      -0.144  -2.459   2.120  0.00  0.00    +0.062 A 
ATOM     10  C   UNL     1      -0.225  -3.871   2.160  0.00  0.00    +0.021 A 
ATOM     11  C   UNL     1      -0.943  -4.501   3.172  0.00  0.00    +0.012 A 
ATOM     12  C   UNL     1      -1.879  -4.139   4.170  0.00  0.00    +0.056 A 
ATOM     13  C   UNL     1      -2.158  -5.035   5.206  0.00  0.00    +0.118 A 
ATOM     14  C   UNL     1      -1.611  -6.309   5.218  0.00  0.00    +0.047 A 
ATOM     15  C   UNL     1      -0.753  -6.727   4.194  0.00  0.00    +0.030 A 
ATOM     16  C   UNL     1      -0.401  -5.800   3.197  0.00  0.00    +0.050 A 
ATOM     17  N   UNL     1       0.549  -5.881   2.177  0.00  0.00    -0.340 N 
ATOM     18  C   UNL     1       0.839  -4.617   1.726  0.00  0.00    +0.051 A 
ATOM     19  C   UNL     1       1.943  -4.073   1.060  0.00  0.00    +0.035 A 
ENDROOT
BRANCH   1  21
ATOM     20  C   UNL     1       3.946  -2.532  -0.725  0.00  0.00    +0.128 A 
ATOM     21  C   UNL     1       2.893  -1.947   0.035  0.00  0.00    +0.025 A 
ATOM     22  C   UNL     1       2.425  -0.692  -0.427  0.00  0.00    +0.012 A 
ATOM     23  C   UNL     1       2.889  -0.103  -1.612  0.00  0.00    +0.001 A 
ATOM     24  C   UNL     1       3.825  -0.759  -2.395  0.00  0.00    +0.004 A 
ATOM     25  C   UNL     1       4.353  -1.967  -1.951  0.00  0.00    +0.046 A 
BRANCH  20  27
ATOM     26  C   UNL     1       5.901  -3.868  -0.594  0.00  0.00    +0.277 C 
ATOM     27  O   UNL     1       4.518  -3.702  -0.278  0.00  0.00    -0.495 OA
ENDBRANCH  20  27
ENDBRANCH   1  21
BRANCH  13  28
ATOM     28  O   UNL     1      -2.950  -4.581   6.218  0.00  0.00    -0.507 OA
ATOM     29  H   UNL     1      -2.966  -5.252   6.919  0.00  0.00    +0.292 HD
ENDBRANCH  13  28
BRANCH  17  30
ATOM     30  C   UNL     1       1.333  -7.059   1.858  0.00  0.00    +0.124 C 
BRANCH  30  31
ATOM     31  C   UNL     1       0.648  -7.976   0.858  0.00  0.00    +0.049 C 
BRANCH  31  32
ATOM     32  C   UNL     1       0.419  -7.329  -0.504  0.00  0.00    +0.157 C 
BRANCH  32  33
ATOM     33  O   UNL     1      -0.145  -8.289  -1.389  0.00  0.00    -0.395 OA
ATOM     34  H   UNL     1       0.484  -9.026  -1.474  0.00  0.00    +0.209 HD
ENDBRANCH  32  33
ENDBRANCH  31  32
ENDBRANCH  30  31
ENDBRANCH  17  30
TORSDOF 7
