REMARK  Name = 
REMARK  5 active torsions:
REMARK  status: ('A' for Active; 'I' for Inactive)
REMARK    1  A    between atoms: O_1  and  C_2
REMARK    2  A    between atoms: C_2  and  C_3
REMARK    3  A    between atoms: C_8  and  C_11
REMARK    4  A    between atoms: C_14  and  C_22
REMARK    5  A    between atoms: C_15  and  C_16
REMARK                            x       y       z     vdW  Elec       q    Type
REMARK                         _______ _______ _______ _____ _____    ______ ____
ROOT
ATOM      1  C   UNL     1       7.849  -1.895  -1.559  0.00  0.00    +0.076 A 
ATOM      2  C   UNL     1       8.463  -3.100  -1.060  0.00  0.00    +0.049 A 
ATOM      3  C   UNL     1       9.365  -2.659  -0.084  0.00  0.00    +0.075 A 
ATOM      4  N   UNL     1       9.233  -1.293  -0.087  0.00  0.00    -0.276 N 
ATOM      5  H   UNL     1       9.715  -0.628   0.506  0.00  0.00    +0.189 HD
ATOM      6  N   UNL     1       8.348  -0.812  -0.958  0.00  0.00    -0.177 NA
ENDROOT
BRANCH   1  11
ATOM      7  C   UNL     1       4.138   1.580  -2.059  0.00  0.00    +0.241 C 
ATOM      8  N   UNL     1       5.184   0.670  -2.031  0.00  0.00    -0.300 N 
ATOM      9  C   UNL     1       6.462   0.828  -2.731  0.00  0.00    +0.108 C 
ATOM     10  C   UNL     1       6.873  -0.457  -3.457  0.00  0.00    +0.029 C 
ATOM     11  C   UNL     1       6.751  -1.727  -2.591  0.00  0.00    +0.043 C 
ATOM     12  C   UNL     1       5.354  -1.759  -1.946  0.00  0.00    +0.029 C 
ATOM     13  C   UNL     1       5.075  -0.489  -1.162  0.00  0.00    +0.108 C 
ATOM     14  O   UNL     1       3.046   1.350  -1.533  0.00  0.00    -0.273 OA
BRANCH   7  15
ATOM     15  C   UNL     1       4.389   2.927  -2.740  0.00  0.00    +0.251 C 
BRANCH  15  16
ATOM     16  O   UNL     1       4.291   2.887  -4.152  0.00  0.00    -0.386 OA
ATOM     17  H   UNL     1       3.857   3.714  -4.424  0.00  0.00    +0.210 HD
ENDBRANCH  15  16
ENDBRANCH   7  15
ENDBRANCH   1  11
BRANCH   3  18
ATOM     18  C   UNL     1      10.285  -3.308   0.866  0.00  0.00    +0.001 A 
ATOM     19  C   UNL     1      11.476  -2.665   1.262  0.00  0.00    +0.011 A 
ATOM     20  C   UNL     1      12.334  -3.245   2.206  0.00  0.00    +0.020 A 
ATOM     21  C   UNL     1      12.019  -4.484   2.751  0.00  0.00    +0.041 A 
ATOM     22 CL   UNL     1      13.078  -5.203   3.896  0.00  0.00    -0.084 Cl
ATOM     23  C   UNL     1      10.848  -5.138   2.370  0.00  0.00    +0.020 A 
ATOM     24  C   UNL     1       9.980  -4.542   1.449  0.00  0.00    +0.011 A 
ENDBRANCH   3  18
BRANCH   2  25
ATOM     25  C   UNL     1       8.242  -4.482  -1.471  0.00  0.00    +0.078 A 
ATOM     26  C   UNL     1       6.991  -4.950  -1.820  0.00  0.00    +0.048 A 
ATOM     27  C   UNL     1       6.909  -6.254  -2.254  0.00  0.00    +0.114 A 
ATOM     28  N   UNL     1       7.964  -7.073  -2.310  0.00  0.00    -0.244 NA
ATOM     29  C   UNL     1       9.133  -6.536  -1.935  0.00  0.00    +0.221 A 
ATOM     30  N   UNL     1       9.333  -5.272  -1.531  0.00  0.00    -0.235 NA
ENDBRANCH   2  25
TORSDOF 5
