REMARK  Name = 
REMARK  7 active torsions:
REMARK  status: ('A' for Active; 'I' for Inactive)
REMARK    1  A    between atoms: C_1  and  C_2
REMARK    2  A    between atoms: C_2  and  S_3
REMARK    3  A    between atoms: S_3  and  N_6
REMARK    4  A    between atoms: N_6  and  C_7
REMARK    5  A    between atoms: C_12  and  C_13
REMARK    6  A    between atoms: C_13  and  C_15
REMARK    7  A    between atoms: C_21  and  C_24
REMARK                            x       y       z     vdW  Elec       q    Type
REMARK                         _______ _______ _______ _____ _____    ______ ____
ROOT
ATOM      1  C   UNL     1       8.993   4.122   0.055  0.00  0.00    +0.201 C 
ATOM      2  O   UNL     1       9.624   5.176   0.061  0.00  0.00    -0.286 OA
ENDROOT
BRANCH   1   3
ATOM      3  C   UNL     1       9.702   2.843   0.000  0.00  0.00    +0.049 A 
ATOM      4  C   UNL     1       9.324   1.590  -0.573  0.00  0.00    +0.030 A 
ATOM      5  C   UNL     1      10.276   0.655  -0.190  0.00  0.00    +0.139 A 
ATOM      6  N   UNL     1      10.247  -0.672  -0.397  0.00  0.00    -0.237 NA
ATOM      7  C   UNL     1       9.124  -1.078  -1.046  0.00  0.00    +0.121 A 
ATOM      8  C   UNL     1       8.102  -0.266  -1.558  0.00  0.00    +0.002 A 
ATOM      9  N   UNL     1      11.283   1.319   0.449  0.00  0.00    -0.345 N 
ATOM     10  H   UNL     1      12.117   0.872   0.802  0.00  0.00    +0.167 HD
ATOM     11  C   UNL     1       8.250   1.115  -1.344  0.00  0.00    +0.022 A 
ATOM     12  C   UNL     1      10.959   2.647   0.557  0.00  0.00    +0.096 A 
BRANCH   8  13
ATOM     13  C   UNL     1       6.913  -0.805  -2.251  0.00  0.00    +0.002 A 
ATOM     14  C   UNL     1       6.924  -2.011  -2.964  0.00  0.00    +0.011 A 
ATOM     15  C   UNL     1       5.774  -2.463  -3.615  0.00  0.00    +0.020 A 
ATOM     16  C   UNL     1       4.628  -1.693  -3.546  0.00  0.00    +0.111 A 
ATOM     17  N   UNL     1       4.555  -0.534  -2.866  0.00  0.00    -0.263 NA
ATOM     18  C   UNL     1       5.685  -0.131  -2.237  0.00  0.00    +0.119 A 
ENDBRANCH   8  13
ENDBRANCH   1   3
BRANCH   1  22
ATOM     19  C   UNL     1       5.523   5.609   0.246  0.00  0.00    +0.084 A 
ATOM     20  C   UNL     1       6.859   5.389  -0.115  0.00  0.00    +0.159 A 
ATOM     21  F   UNL     1       7.498   6.374  -0.767  0.00  0.00    -0.203 F 
ATOM     22  C   UNL     1       7.517   4.200   0.230  0.00  0.00    +0.094 A 
ATOM     23  C   UNL     1       6.775   3.217   0.892  0.00  0.00    +0.137 A 
ATOM     24  F   UNL     1       7.344   2.091   1.343  0.00  0.00    -0.205 F 
ATOM     25  C   UNL     1       5.418   3.391   1.172  0.00  0.00    +0.041 A 
ATOM     26  C   UNL     1       4.790   4.595   0.859  0.00  0.00    +0.030 A 
BRANCH  19  27
ATOM     27  N   UNL     1       4.930   6.898   0.091  0.00  0.00    -0.218 N 
ATOM     28  H   UNL     1       5.532   7.695   0.303  0.00  0.00    +0.173 HD
BRANCH  27  29
ATOM     29  S   UNL     1       3.847   7.188  -1.162  0.00  0.00    +0.043 S 
ATOM     30  O   UNL     1       3.267   5.936  -1.592  0.00  0.00    -0.155 OA
ATOM     31  O   UNL     1       3.028   8.297  -0.727  0.00  0.00    -0.155 OA
BRANCH  29  33
ATOM     32  C   UNL     1       4.146   8.293  -3.651  0.00  0.00    +0.030 C 
ATOM     33  C   UNL     1       4.934   7.802  -2.449  0.00  0.00    +0.185 C 
ENDBRANCH  29  33
ENDBRANCH  27  29
ENDBRANCH  19  27
ENDBRANCH   1  22
TORSDOF 6
