REMARK  Name = 
REMARK  19 active torsions:
REMARK  status: ('A' for Active; 'I' for Inactive)
REMARK    1  A    between atoms: CA_2  and  C_3
REMARK    2  A    between atoms: CA_2  and  N_7
REMARK    3  A    between atoms: CA_2  and  C_29
REMARK    4  A    between atoms: C_3  and  C_4
REMARK    5  A    between atoms: C_4  and  C_5
REMARK    6  A    between atoms: C_5  and  C_6
REMARK    7  A    between atoms: C_8  and  CA_10
REMARK    8  A    between atoms: CA_10  and  CB_12
REMARK    9  A    between atoms: CA_10  and  N_16
REMARK   10  A    between atoms: CB_12  and  CG_13
REMARK   11  A    between atoms: CG_13  and  CD1_14
REMARK   12  A    between atoms: CG_13  and  CD2_15
REMARK   13  A    between atoms: C_17  and  CA_19
REMARK   14  A    between atoms: CA_19  and  CB_21
REMARK   15  A    between atoms: CA_19  and  N_25
REMARK   16  A    between atoms: CB_21  and  CG_22
REMARK   17  A    between atoms: CG_22  and  CD1_23
REMARK   18  A    between atoms: CG_22  and  CD2_24
REMARK   19  A    between atoms: C_26  and  C_27
REMARK                            x       y       z     vdW  Elec       q    Type
REMARK                         _______ _______ _______ _____ _____    ______ ____
ROOT
ATOM      1  CA  LEU A   1       4.638   3.160   6.135  0.00  0.00    +0.159 C 
ENDROOT
BRANCH   1   4
ATOM      2  N   LEU A   1       6.837   3.550   7.118  0.00  0.00    -0.304 N 
ATOM      3  H   LEU A   1       7.121   3.777   6.175  0.00  0.00    +0.149 HD
ATOM      4  C   LEU A   1       5.578   3.075   7.366  0.00  0.00    +0.234 C 
ATOM      5  O   LEU A   1       5.254   2.611   8.455  0.00  0.00    -0.274 OA
BRANCH   2   6
ATOM      6  CA  LEU A   1       7.806   3.860   8.138  0.00  0.00    +0.136 C 
BRANCH   6   7
ATOM      7  C   LEU A   1       8.357   5.225   7.733  0.00  0.00    +0.245 C 
ATOM      8  O   LEU A   1       8.709   5.494   6.582  0.00  0.00    -0.299 OA
ENDBRANCH   6   7
BRANCH   6   9
ATOM      9  C   LEU A   1       8.896   2.800   8.128  0.00  0.00    +0.030 C 
BRANCH   9  10
ATOM     10  C   LEU A   1       9.963   3.069   9.180  0.00  0.00    +0.002 C 
BRANCH  10  11
ATOM     11  C   LEU A   1      11.050   2.002   9.130  0.00  0.00    -0.003 C 
ATOM     12  C   LEU A   1      12.115   2.282  10.172  0.00  0.00    +0.004 C 
ENDBRANCH  10  11
ENDBRANCH   9  10
ENDBRANCH   6   9
ENDBRANCH   2   6
ENDBRANCH   1   4
BRANCH   1  13
ATOM     13  N   LEU A   1       3.558   2.187   6.286  0.00  0.00    -0.302 N 
ATOM     14  H   LEU A   1       3.824   1.239   6.068  0.00  0.00    +0.150 HD
ATOM     15  C   LEU A   1       2.474   2.326   7.126  0.00  0.00    +0.234 C 
ATOM     16  O   LEU A   1       2.229   3.349   7.763  0.00  0.00    -0.274 OA
BRANCH  15  17
ATOM     17  CA  LEU A   1       1.560   1.071   7.216  0.00  0.00    +0.159 C 
BRANCH  17  18
ATOM     18  N   LEU A   1       0.628   1.324   8.323  0.00  0.00    -0.304 N 
ATOM     19  H   LEU A   1       0.732   2.224   8.787  0.00  0.00    +0.149 HD
ATOM     20  C   UNK A   0      -0.150   0.350   8.892  0.00  0.00    +0.211 C 
ATOM     21  O   UNK A   0      -0.191  -0.808   8.487  0.00  0.00    -0.276 OA
ATOM     22  C   UNK A   0      -0.971   0.810  10.069  0.00  0.00    +0.109 C 
ENDBRANCH  17  18
BRANCH  17  23
ATOM     23  CB  LEU A   1       0.794   0.782   5.907  0.00  0.00    +0.034 C 
BRANCH  23  24
ATOM     24  CG  LEU A   1       1.635   0.489   4.645  0.00  0.00    -0.015 C 
ATOM     25  CD2 LEU A   1       0.719   0.249   3.442  0.00  0.00    +0.007 C 
ATOM     26  CD1 LEU A   1       2.572  -0.712   4.808  0.00  0.00    +0.007 C 
ENDBRANCH  23  24
ENDBRANCH  17  23
ENDBRANCH  15  17
ENDBRANCH   1  13
BRANCH   1  27
ATOM     27  CB  LEU A   1       4.160   4.582   5.770  0.00  0.00    +0.034 C 
BRANCH  27  28
ATOM     28  CG  LEU A   1       5.251   5.653   5.546  0.00  0.00    -0.015 C 
ATOM     29  CD2 LEU A   1       4.615   7.030   5.345  0.00  0.00    +0.007 C 
ATOM     30  CD1 LEU A   1       6.172   5.356   4.359  0.00  0.00    +0.007 C 
ENDBRANCH  27  28
ENDBRANCH   1  27
TORSDOF 13
