REMARK  Name = 
REMARK  4 active torsions:
REMARK  status: ('A' for Active; 'I' for Inactive)
REMARK    1  A    between atoms: C_2  and  C_3
REMARK    2  A    between atoms: C_2  and  N_4
REMARK    3  A    between atoms: C_2  and  C_20
REMARK    4  A    between atoms: C_20  and  O_21
REMARK                            x       y       z     vdW  Elec       q    Type
REMARK                         _______ _______ _______ _____ _____    ______ ____
ROOT
ATOM      1  N   UNL     1       2.539  -0.827  -0.957  0.00  0.00    -0.228 N 
ATOM      2  C   UNL     1       1.749  -1.896  -1.290  0.00  0.00    +0.227 C 
ATOM      3  O   UNL     1       0.582  -2.073  -0.967  0.00  0.00    -0.275 OA
ATOM      4  C   UNL     1       2.577  -2.904  -2.040  0.00  0.00    +0.091 C 
ATOM      5  C   UNL     1       3.987  -2.301  -2.059  0.00  0.00    +0.091 C 
ATOM      6  C   UNL     1       4.841  -3.379  -1.365  0.00  0.00    +0.002 C 
ATOM      7  C   UNL     1       4.167  -4.657  -1.876  0.00  0.00    +0.008 C 
ATOM      8  C   UNL     1       4.528  -3.470   0.142  0.00  0.00    +0.004 C 
ATOM      9  C   UNL     1       3.117  -4.075   0.166  0.00  0.00    +0.004 C 
ATOM     10  C   UNL     1       2.791  -4.257  -1.330  0.00  0.00    +0.002 C 
ATOM     11  C   UNL     1       3.846  -1.019  -1.295  0.00  0.00    +0.227 C 
ATOM     12  O   UNL     1       4.773  -0.290  -0.970  0.00  0.00    -0.275 OA
ENDROOT
BRANCH   1  13
ATOM     13  C   UNL     1       2.094   0.186   0.000  0.00  0.00    +0.189 C 
ATOM     14  C   UNL     1       2.662  -0.061   1.398  0.00  0.00    +0.040 C 
BRANCH  13  15
ATOM     15  C   UNL     1       2.355   1.621  -0.463  0.00  0.00    +0.326 C 
ATOM     16  O   UNL     1       1.459   2.436  -0.641  0.00  0.00    -0.249 OA
BRANCH  15  17
ATOM     17  O   UNL     1       3.653   1.965  -0.615  0.00  0.00    -0.479 OA
ATOM     18  H   UNL     1       4.298   1.221  -0.526  0.00  0.00    +0.295 HD
ENDBRANCH  15  17
ENDBRANCH  13  15
ENDBRANCH   1  13
TORSDOF 3
