REMARK  Name = 
REMARK  6 active torsions:
REMARK  status: ('A' for Active; 'I' for Inactive)
REMARK    1  A    between atoms: C_2  and  N_3
REMARK    2  A    between atoms: C_2  and  C_4
REMARK    3  A    between atoms: C_2  and  C_13
REMARK    4  A    between atoms: C_4  and  C_5
REMARK    5  A    between atoms: C_16  and  C_19
REMARK    6  A    between atoms: C_23  and  C_25
REMARK                            x       y       z     vdW  Elec       q    Type
REMARK                         _______ _______ _______ _____ _____    ______ ____
ROOT
ATOM      1  C   UNL     1       2.437   1.371   0.531  0.00  0.00    -0.030 A 
ATOM      2  C   UNL     1       3.588   1.521   1.314  0.00  0.00    +0.006 A 
ATOM      3  C   UNL     1       4.031   2.795   1.699  0.00  0.00    +0.009 A 
ATOM      4  C   UNL     1       3.353   3.964   1.307  0.00  0.00    -0.018 A 
ATOM      5  C   UNL     1       2.185   3.793   0.544  0.00  0.00    +0.009 A 
ATOM      6  C   UNL     1       1.734   2.525   0.165  0.00  0.00    +0.006 A 
ENDROOT
BRANCH   4   7
ATOM      7  C   UNL     1       3.868   5.320   1.624  0.00  0.00    -0.017 A 
ATOM      8  C   UNL     1       5.249   5.580   1.692  0.00  0.00    +0.021 A 
ATOM      9  C   UNL     1       5.744   6.878   1.897  0.00  0.00    +0.037 A 
ATOM     10  C   UNL     1       4.859   7.946   2.059  0.00  0.00    +0.013 A 
ATOM     11  C   UNL     1       3.488   7.711   2.020  0.00  0.00    +0.001 A 
ATOM     12  C   UNL     1       3.002   6.415   1.811  0.00  0.00    +0.008 A 
BRANCH   9  13
ATOM     13  C   UNL     1       7.216   7.066   1.942  0.00  0.00    +0.242 C 
ATOM     14  O   UNL     1       7.970   6.165   2.285  0.00  0.00    -0.270 OA
ATOM     15  N   UNL     1       7.705   8.277   1.537  0.00  0.00    -0.325 N 
ATOM     16  H   UNL     1       8.711   8.344   1.457  0.00  0.00    +0.145 HD
ATOM     17  H   UNL     1       7.147   8.933   1.010  0.00  0.00    +0.145 HD
ENDBRANCH   9  13
ENDBRANCH   4   7
BRANCH   1  18
ATOM     18  C   UNL     1       1.979  -0.005   0.071  0.00  0.00    +0.086 C 
BRANCH  18  19
ATOM     19  N   UNL     1       1.904  -0.032  -1.399  0.00  0.00    -0.323 NA
ATOM     20  H   UNL     1       2.794   0.304  -1.770  0.00  0.00    +0.119 HD
ATOM     21  H   UNL     1       1.821  -1.000  -1.705  0.00  0.00    +0.119 HD
ENDBRANCH  18  19
BRANCH  18  22
ATOM     22  C   UNL     1       0.623  -0.369   0.724  0.00  0.00    +0.061 C 
BRANCH  22  23
ATOM     23  C   UNL     1       0.077  -1.739   0.386  0.00  0.00    -0.008 A 
ATOM     24  C   UNL     1       0.757  -2.903   0.756  0.00  0.00    +0.127 A 
ATOM     25  F   UNL     1       1.934  -2.815   1.392  0.00  0.00    -0.205 F 
ATOM     26  C   UNL     1       0.233  -4.168   0.488  0.00  0.00    +0.041 A 
ATOM     27  C   UNL     1      -0.999  -4.284  -0.154  0.00  0.00    +0.041 A 
ATOM     28  C   UNL     1      -1.684  -3.132  -0.525  0.00  0.00    +0.124 A 
ATOM     29  F   UNL     1      -2.872  -3.240  -1.134  0.00  0.00    -0.205 F 
ATOM     30  C   UNL     1      -1.160  -1.869  -0.265  0.00  0.00    +0.044 A 
ENDBRANCH  22  23
ENDBRANCH  18  22
ENDBRANCH   1  18
TORSDOF 6
