REMARK  Name = 
REMARK  6 active torsions:
REMARK  status: ('A' for Active; 'I' for Inactive)
REMARK    1  A    between atoms: N_1  and  C_2
REMARK    2  A    between atoms: C_2  and  C_3
REMARK    3  A    between atoms: C_3  and  C_4
REMARK    4  A    between atoms: C_4  and  N_5
REMARK    5  A    between atoms: C_7  and  C_14
REMARK    6  A    between atoms: C_15  and  C_21
REMARK                            x       y       z     vdW  Elec       q    Type
REMARK                         _______ _______ _______ _____ _____    ______ ____
ROOT
ATOM      1  C   UNL     1       5.343  -5.410  -3.351  0.00  0.00    +0.059 C 
ATOM      2  C   UNL     1       4.321  -5.856  -4.326  0.00  0.00    +0.252 C 
ATOM      3  O   UNL     1       3.597  -5.150  -5.001  0.00  0.00    -0.270 OA
ATOM      4  N   UNL     1       4.364  -7.194  -4.361  0.00  0.00    -0.248 N 
ATOM      5  H   UNL     1       3.833  -7.751  -5.013  0.00  0.00    +0.158 HD
ATOM      6  C   UNL     1       5.436  -7.644  -3.685  0.00  0.00    +0.252 C 
ATOM      7  O   UNL     1       5.869  -8.782  -3.757  0.00  0.00    -0.270 OA
ATOM      8  C   UNL     1       6.018  -6.498  -2.938  0.00  0.00    +0.059 C 
ENDROOT
BRANCH   8   9
ATOM      9  C   UNL     1       7.091  -6.593  -1.992  0.00  0.00    +0.013 A 
ATOM     10  C   UNL     1       7.451  -7.676  -1.118  0.00  0.00    +0.008 A 
ATOM     11  C   UNL     1       7.000  -8.999  -0.897  0.00  0.00    +0.010 A 
ATOM     12  C   UNL     1       7.588  -9.790   0.099  0.00  0.00    +0.001 A 
ATOM     13  C   UNL     1       8.592  -9.276   0.912  0.00  0.00    +0.002 A 
ATOM     14  C   UNL     1       9.058  -7.974   0.731  0.00  0.00    +0.026 A 
ATOM     15  C   UNL     1       8.490  -7.212  -0.301  0.00  0.00    +0.047 A 
ATOM     16  N   UNL     1       8.800  -5.940  -0.713  0.00  0.00    -0.360 N 
ATOM     17  H   UNL     1       9.526  -5.367  -0.312  0.00  0.00    +0.165 HD
ATOM     18  C   UNL     1       7.991  -5.571  -1.749  0.00  0.00    +0.092 A 
ENDBRANCH   8   9
BRANCH   1  26
ATOM     19  N   UNL     1       5.012  -2.093  -2.026  0.00  0.00    -0.346 N 
ATOM     20  C   UNL     1       5.755  -1.796  -3.152  0.00  0.00    +0.050 A 
ATOM     21  C   UNL     1       6.125  -0.566  -3.718  0.00  0.00    +0.026 A 
ATOM     22  C   UNL     1       6.921  -0.583  -4.866  0.00  0.00    +0.002 A 
ATOM     23  C   UNL     1       7.366  -1.783  -5.412  0.00  0.00    +0.001 A 
ATOM     24  C   UNL     1       6.970  -3.004  -4.857  0.00  0.00    +0.010 A 
ATOM     25  C   UNL     1       6.121  -3.017  -3.731  0.00  0.00    +0.008 A 
ATOM     26  C   UNL     1       5.448  -4.038  -2.999  0.00  0.00    +0.013 A 
ATOM     27  C   UNL     1       4.806  -3.447  -1.935  0.00  0.00    +0.095 A 
BRANCH  19  28
ATOM     28  C   UNL     1       4.519  -1.119  -1.060  0.00  0.00    +0.123 C 
BRANCH  28  29
ATOM     29  C   UNL     1       3.148  -0.567  -1.446  0.00  0.00    +0.036 C 
BRANCH  29  30
ATOM     30  C   UNL     1       2.628   0.450  -0.434  0.00  0.00    +0.079 C 
BRANCH  30  31
ATOM     31  N   UNL     1       3.504   1.612  -0.343  0.00  0.00    -0.330 NA
ATOM     32  H   UNL     1       3.539   2.088  -1.245  0.00  0.00    +0.118 HD
ATOM     33  H   UNL     1       3.105   2.287   0.311  0.00  0.00    +0.118 HD
ENDBRANCH  30  31
ENDBRANCH  29  30
ENDBRANCH  28  29
ENDBRANCH  19  28
ENDBRANCH   1  26
TORSDOF 6
