REMARK  Name = 
REMARK  2 active torsions:
REMARK  status: ('A' for Active; 'I' for Inactive)
REMARK    1  A    between atoms: C_5  and  C_8
REMARK    2  A    between atoms: C_12  and  C_13
REMARK                            x       y       z     vdW  Elec       q    Type
REMARK                         _______ _______ _______ _____ _____    ______ ____
ROOT
ATOM      1  C   UNL     1       6.545   0.037  -0.543  0.00  0.00    +0.100 A 
ATOM      2  C   UNL     1       7.310  -1.119  -0.937  0.00  0.00    +0.027 A 
ATOM      3  C   UNL     1       8.568  -0.623  -1.216  0.00  0.00    +0.114 A 
ATOM      4  N   UNL     1       8.505   0.717  -0.998  0.00  0.00    -0.284 N 
ATOM      5  H   UNL     1       9.243   1.404  -1.103  0.00  0.00    +0.188 HD
ATOM      6  N   UNL     1       7.310   1.144  -0.579  0.00  0.00    -0.173 NA
ENDROOT
BRANCH   1  11
ATOM      7  F   UNL     1       1.360   0.097   1.563  0.00  0.00    -0.205 F 
ATOM      8  C   UNL     1       2.576   0.134   1.003  0.00  0.00    +0.123 A 
ATOM      9  C   UNL     1       3.523   1.031   1.479  0.00  0.00    +0.039 A 
ATOM     10  C   UNL     1       4.809   1.026   0.935  0.00  0.00    +0.013 A 
ATOM     11  C   UNL     1       5.152   0.124  -0.087  0.00  0.00    +0.003 A 
ATOM     12  C   UNL     1       4.153  -0.712  -0.609  0.00  0.00    +0.013 A 
ATOM     13  C   UNL     1       2.874  -0.728  -0.044  0.00  0.00    +0.039 A 
ENDBRANCH   1  11
BRANCH   2  14
ATOM     14  C   UNL     1       6.974  -2.534  -1.047  0.00  0.00    -0.011 A 
ATOM     15  C   UNL     1       7.460  -3.295  -2.113  0.00  0.00    +0.028 A 
ATOM     16  C   UNL     1       7.036  -4.608  -2.240  0.00  0.00    +0.111 A 
ATOM     17  N   UNL     1       6.171  -5.203  -1.394  0.00  0.00    -0.263 NA
ATOM     18  C   UNL     1       5.737  -4.463  -0.354  0.00  0.00    +0.111 A 
ATOM     19  C   UNL     1       6.126  -3.153  -0.126  0.00  0.00    +0.028 A 
ENDBRANCH   2  14
TORSDOF 2
