REMARK  Name = 
REMARK  7 active torsions:
REMARK  status: ('A' for Active; 'I' for Inactive)
REMARK    1  A    between atoms: C_2  and  N_3
REMARK    2  A    between atoms: C_2  and  C_4
REMARK    3  A    between atoms: C_2  and  C_21
REMARK    4  A    between atoms: C_4  and  C_5
REMARK    5  A    between atoms: C_14  and  C_16
REMARK    6  A    between atoms: C_16  and  C_17
REMARK    7  A    between atoms: C_21  and  C_22
REMARK                            x       y       z     vdW  Elec       q    Type
REMARK                         _______ _______ _______ _____ _____    ______ ____
ROOT
ATOM      1  C   UNL     1       2.252  -0.662  -2.561  0.00  0.00    +0.218 C 
ATOM      2  N   UNL     1       2.606  -0.267  -3.859  0.00  0.00    -0.290 N 
ATOM      3  C   UNL     1       2.899   1.147  -4.230  0.00  0.00    +0.170 C 
ATOM      4  C   UNL     1       4.382   1.334  -4.587  0.00  0.00    +0.234 C 
ATOM      5  O   UNL     1       5.146   1.954  -3.848  0.00  0.00    -0.274 OA
ATOM      6  N   UNL     1       4.882   0.793  -5.732  0.00  0.00    -0.314 N 
ATOM      7  H   UNL     1       5.880   0.954  -5.822  0.00  0.00    +0.149 HD
ATOM      8  C   UNL     1       4.311  -0.291  -6.497  0.00  0.00    +0.106 C 
ATOM      9  C   UNL     1       3.937  -1.478  -5.626  0.00  0.00    +0.038 C 
ATOM     10  C   UNL     1       2.599  -1.296  -4.908  0.00  0.00    +0.110 C 
ATOM     11  O   UNL     1       1.763  -1.767  -2.325  0.00  0.00    -0.276 OA
ENDROOT
BRANCH   1  12
ATOM     12  C   UNL     1       2.514   0.336  -1.441  0.00  0.00    +0.114 C 
BRANCH  12  13
ATOM     13  C   UNL     1       2.277  -0.205  -0.021  0.00  0.00    +0.064 C 
BRANCH  13  14
ATOM     14  N   UNL     1       2.465   0.942   0.895  0.00  0.00    -0.327 NA
ATOM     15  H   UNL     1       2.231   0.663   1.847  0.00  0.00    +0.118 HD
ATOM     16  H   UNL     1       3.458   1.189   0.930  0.00  0.00    +0.118 HD
ENDBRANCH  13  14
BRANCH  13  17
ATOM     17  C   UNL     1       3.221  -1.381   0.332  0.00  0.00    +0.057 C 
BRANCH  17  18
ATOM     18  C   UNL     1       3.032  -1.926   1.730  0.00  0.00    -0.008 A 
ATOM     19  C   UNL     1       2.071  -2.914   1.993  0.00  0.00    +0.047 A 
ATOM     20  C   UNL     1       1.917  -3.400   3.290  0.00  0.00    +0.159 A 
ATOM     21  F   UNL     1       1.006  -4.352   3.533  0.00  0.00    -0.202 F 
ATOM     22  C   UNL     1       2.708  -2.907   4.328  0.00  0.00    +0.161 A 
ATOM     23  F   UNL     1       2.554  -3.382   5.572  0.00  0.00    -0.202 F 
ATOM     24  C   UNL     1       3.654  -1.927   4.086  0.00  0.00    +0.080 A 
ATOM     25  C   UNL     1       3.813  -1.447   2.791  0.00  0.00    +0.129 A 
ATOM     26  F   UNL     1       4.724  -0.490   2.564  0.00  0.00    -0.205 F 
ENDBRANCH  17  18
ENDBRANCH  13  17
ENDBRANCH  12  13
ENDBRANCH   1  12
BRANCH   3  27
ATOM     27  C   UNL     1       1.921   1.724  -5.254  0.00  0.00    +0.145 C 
BRANCH  27  28
ATOM     28  C   UNL     1       2.085   3.221  -5.433  0.00  0.00    +0.392 C 
ATOM     29  F   UNL     1       0.910   3.849  -5.198  0.00  0.00    -0.171 F 
ATOM     30  F   UNL     1       2.447   3.510  -6.703  0.00  0.00    -0.171 F 
ATOM     31  F   UNL     1       3.000   3.764  -4.611  0.00  0.00    -0.171 F 
ENDBRANCH  27  28
ENDBRANCH   3  27
TORSDOF 7
