REMARK  Name = 
REMARK  3 active torsions:
REMARK  status: ('A' for Active; 'I' for Inactive)
REMARK    1  A    between atoms: C_1  and  C_2
REMARK    2  A    between atoms: C_2  and  C_3
REMARK    3  A    between atoms: C_4  and  C_5
REMARK                            x       y       z     vdW  Elec       q    Type
REMARK                         _______ _______ _______ _____ _____    ______ ____
ROOT
ATOM      1  C   UNL     1       2.884   1.417  -0.186  0.00  0.00    +0.039 A 
ATOM      2  C   UNL     1       4.139   1.775  -0.919  0.00  0.00    +0.278 A 
ATOM      3  O   UNL     1       4.879   0.952  -1.424  0.00  0.00    -0.265 OA
ATOM      4  N   UNL     1       4.203   3.163  -0.900  0.00  0.00    -0.183 N 
ATOM      5  C   UNL     1       5.219   3.897  -1.449  0.00  0.00    +0.269 A 
ATOM      6  N   UNL     1       5.279   5.257  -1.352  0.00  0.00    -0.223 N 
ATOM      7  H   UNL     1       4.652   5.892  -0.879  0.00  0.00    +0.194 HD
ATOM      8  N   UNL     1       6.342   5.731  -2.010  0.00  0.00    -0.045 NA
ATOM      9  N   UNL     1       6.952   4.654  -2.485  0.00  0.00    -0.021 NA
ATOM     10  N   UNL     1       6.268   3.510  -2.143  0.00  0.00    -0.088 NA
ATOM     11  N   UNL     1       3.117   3.691  -0.192  0.00  0.00    -0.292 N 
ATOM     12  H   UNL     1       2.558   4.353  -0.731  0.00  0.00    +0.187 HD
ATOM     13  C   UNL     1       2.335   2.595   0.169  0.00  0.00    +0.039 A 
ATOM     14  C   UNL     1       1.007   2.828   0.808  0.00  0.00    +0.065 C 
ENDROOT
BRANCH   1  16
ATOM     15  C   UNL     1       3.297  -0.882   0.749  0.00  0.00    +0.009 C 
ATOM     16  C   UNL     1       2.396   0.016  -0.088  0.00  0.00    +0.039 C 
ENDBRANCH   1  16
TORSDOF 1
