REMARK  Name = 
REMARK  3 active torsions:
REMARK  status: ('A' for Active; 'I' for Inactive)
REMARK    1  A    between atoms: C_4  and  C_8
REMARK    2  A    between atoms: N_10  and  C_11
REMARK    3  A    between atoms: C_15  and  C_17
REMARK                            x       y       z     vdW  Elec       q    Type
REMARK                         _______ _______ _______ _____ _____    ______ ____
ROOT
ATOM      1  C   UNL     1       5.192   4.992  -0.563  0.00  0.00    +0.034 A 
ATOM      2  C   UNL     1       6.407   5.041  -1.264  0.00  0.00    +0.035 A 
ATOM      3  C   UNL     1       6.986   6.276  -1.635  0.00  0.00    +0.022 A 
ATOM      4  C   UNL     1       6.347   7.463  -1.252  0.00  0.00    +0.012 A 
ATOM      5  C   UNL     1       5.164   7.423  -0.522  0.00  0.00    +0.002 A 
ATOM      6  C   UNL     1       4.597   6.198  -0.180  0.00  0.00    +0.023 A 
ENDROOT
BRANCH   3   7
ATOM      7  C   UNL     1       8.216   6.304  -2.429  0.00  0.00    +0.179 A 
ATOM      8  N   UNL     1       8.848   7.438  -2.876  0.00  0.00    -0.239 N 
ATOM      9  H   UNL     1       8.609   8.411  -2.746  0.00  0.00    +0.192 HD
ATOM     10  N   UNL     1       9.932   7.122  -3.594  0.00  0.00    -0.046 NA
ATOM     11  N   UNL     1       9.970   5.800  -3.590  0.00  0.00    -0.023 NA
ATOM     12  N   UNL     1       8.918   5.279  -2.874  0.00  0.00    -0.108 NA
ENDBRANCH   3   7
BRANCH   1  14
ATOM     13  C   UNL     1       3.268   3.550   0.064  0.00  0.00    +0.248 C 
ATOM     14  N   UNL     1       4.606   3.729  -0.270  0.00  0.00    -0.281 N 
ATOM     15  H   UNL     1       5.160   2.909  -0.482  0.00  0.00    +0.155 HD
ATOM     16  O   UNL     1       2.418   4.435   0.099  0.00  0.00    -0.270 OA
BRANCH  13  22
ATOM     17  F   UNL     1       3.780  -0.956   1.900  0.00  0.00    -0.205 F 
ATOM     18  C   UNL     1       3.028  -0.031   1.289  0.00  0.00    +0.124 A 
ATOM     19  C   UNL     1       1.691  -0.317   1.020  0.00  0.00    +0.038 A 
ATOM     20  C   UNL     1       0.893   0.643   0.407  0.00  0.00    +0.004 A 
ATOM     21  C   UNL     1       1.445   1.880   0.077  0.00  0.00    +0.013 A 
ATOM     22  C   UNL     1       2.796   2.168   0.349  0.00  0.00    +0.040 A 
ATOM     23  C   UNL     1       3.595   1.200   0.960  0.00  0.00    +0.051 A 
ENDBRANCH  13  22
ENDBRANCH   1  14
TORSDOF 3
