REMARK  Name = 
REMARK  4 active torsions:
REMARK  status: ('A' for Active; 'I' for Inactive)
REMARK    1  A    between atoms: C_2  and  C_5
REMARK    2  A    between atoms: C_7  and  N_8
REMARK    3  A    between atoms: C_13  and  C_14
REMARK    4  A    between atoms: N_16  and  C_17
REMARK                            x       y       z     vdW  Elec       q    Type
REMARK                         _______ _______ _______ _____ _____    ______ ____
ROOT
ATOM      1  N   UNL     1       6.182  -2.963  -0.205  0.00  0.00    -0.296 N 
ATOM      2  H   UNL     1       6.469  -3.932  -0.272  0.00  0.00    +0.154 HD
ATOM      3  C   UNL     1       7.111  -1.977  -0.339  0.00  0.00    +0.174 A 
ATOM      4  C   UNL     1       8.515  -2.220  -0.465  0.00  0.00    +0.064 A 
ATOM      5  C   UNL     1       9.073  -0.951  -0.550  0.00  0.00    +0.183 A 
ATOM      6  C   UNL     1      10.436  -0.666  -0.670  0.00  0.00    +0.101 A 
ATOM      7  C   UNL     1      11.276  -1.792  -0.711  0.00  0.00    +0.057 A 
ATOM      8  C   UNL     1      10.752  -3.095  -0.635  0.00  0.00    +0.021 A 
ATOM      9 CL   UNL     1      12.991  -1.678  -0.912  0.00  0.00    -0.083 Cl
ATOM     10  O   UNL     1       8.078  -0.033  -0.495  0.00  0.00    -0.352 OA
ATOM     11  C   UNL     1       9.374  -3.330  -0.507  0.00  0.00    +0.016 A 
ATOM     12  N   UNL     1       6.869  -0.661  -0.405  0.00  0.00    -0.062 NA
ENDROOT
BRANCH   1  17
ATOM     13  C   UNL     1       2.849  -1.441   0.608  0.00  0.00    +0.057 A 
ATOM     14  C   UNL     1       1.996  -2.450   0.146  0.00  0.00    +0.012 A 
ATOM     15  C   UNL     1       2.526  -3.634  -0.367  0.00  0.00    +0.002 A 
ATOM     16  C   UNL     1       3.912  -3.814  -0.442  0.00  0.00    +0.023 A 
ATOM     17  C   UNL     1       4.790  -2.821   0.011  0.00  0.00    +0.033 A 
ATOM     18  C   UNL     1       4.234  -1.652   0.550  0.00  0.00    +0.035 A 
BRANCH  13  20
ATOM     19  F   UNL     1       3.259   0.754   1.505  0.00  0.00    -0.166 F 
ATOM     20  C   UNL     1       2.299  -0.133   1.119  0.00  0.00    +0.417 C 
ATOM     21  F   UNL     1       1.550   0.516   0.185  0.00  0.00    -0.166 F 
ATOM     22  F   UNL     1       1.488  -0.295   2.201  0.00  0.00    -0.166 F 
ENDBRANCH  13  20
ENDBRANCH   1  17
BRANCH   6  23
ATOM     23  C   UNL     1      10.909   0.745  -0.693  0.00  0.00    +0.253 C 
ATOM     24  N   UNL     1      10.045   1.673  -1.257  0.00  0.00    -0.279 N 
ATOM     25  H   UNL     1       9.151   1.344  -1.608  0.00  0.00    +0.155 HD
ATOM     26  O   UNL     1      11.997   1.016  -0.203  0.00  0.00    -0.270 OA
BRANCH  24  27
ATOM     27  C   UNL     1      10.253   3.069  -1.343  0.00  0.00    +0.070 A 
ATOM     28  C   UNL     1       9.273   3.875  -1.899  0.00  0.00    +0.137 A 
ATOM     29  N   UNL     1       9.368   5.215  -2.038  0.00  0.00    -0.242 NA
ATOM     30  C   UNL     1      10.506   5.761  -1.588  0.00  0.00    +0.221 A 
ATOM     31  N   UNL     1      11.526   5.098  -1.026  0.00  0.00    -0.242 NA
ATOM     32  C   UNL     1      11.373   3.756  -0.915  0.00  0.00    +0.137 A 
ENDBRANCH  24  27
ENDBRANCH   6  23
TORSDOF 4
