REMARK  Name = 
REMARK  4 active torsions:
REMARK  status: ('A' for Active; 'I' for Inactive)
REMARK    1  A    between atoms: O_1  and  C_2
REMARK    2  A    between atoms: C_2  and  C_4
REMARK    3  A    between atoms: C_7  and  C_9
REMARK    4  A    between atoms: C_12  and  N_16
REMARK                            x       y       z     vdW  Elec       q    Type
REMARK                         _______ _______ _______ _____ _____    ______ ____
ROOT
ATOM      1  C   UNL     1       5.032   1.250   3.918  0.00  0.00    +0.036 A 
ATOM      2  C   UNL     1       5.407  -0.005   4.443  0.00  0.00    +0.058 A 
ATOM      3 CL   UNL     1       4.745  -1.501   3.878  0.00  0.00    -0.083 Cl
ATOM      4  C   UNL     1       6.331  -0.102   5.495  0.00  0.00    +0.105 A 
ATOM      5  C   UNL     1       6.885   1.058   6.042  0.00  0.00    +0.275 A 
ATOM      6  C   UNL     1       6.515   2.314   5.557  0.00  0.00    +0.085 A 
ATOM      7  C   UNL     1       5.597   2.402   4.504  0.00  0.00    +0.019 A 
ENDROOT
BRANCH   1  10
ATOM      8  C   UNL     1       2.597   2.565   1.651  0.00  0.00    +0.212 A 
ATOM      9  O   UNL     1       3.365   2.566   2.789  0.00  0.00    -0.448 OA
ATOM     10  C   UNL     1       4.117   1.418   2.785  0.00  0.00    +0.137 A 
ATOM     11  C   UNL     1       3.829   0.694   1.644  0.00  0.00    +0.051 A 
ATOM     12  C   UNL     1       2.853   1.422   0.924  0.00  0.00    +0.057 A 
BRANCH   8  13
ATOM     13  C   UNL     1       1.712   3.676   1.396  0.00  0.00    +0.372 C 
ATOM     14  O   UNL     1       1.000   3.819   0.414  0.00  0.00    -0.242 OA
BRANCH  13  15
ATOM     15  O   UNL     1       1.763   4.586   2.404  0.00  0.00    -0.475 OA
ATOM     16  H   UNL     1       2.382   4.279   3.099  0.00  0.00    +0.296 HD
ENDBRANCH  13  15
ENDBRANCH   8  13
ENDBRANCH   1  10
BRANCH   5  17
ATOM     17  N   UNL     1       7.865   0.954   7.130  0.00  0.00    +0.080 N 
ATOM     18  O   UNL     1       8.172  -0.181   7.522  0.00  0.00    +0.041 OA
ATOM     19  O   UNL     1       8.330   2.007   7.587  0.00  0.00    -0.576 OA
ENDBRANCH   5  17
TORSDOF 4
