REMARK  Name = 
REMARK  9 active torsions:
REMARK  status: ('A' for Active; 'I' for Inactive)
REMARK    1  A    between atoms: C_2  and  O_3
REMARK    2  A    between atoms: C_2  and  C_4
REMARK    3  A    between atoms: C_2  and  C_8
REMARK    4  A    between atoms: N_6  and  O_7
REMARK    5  A    between atoms: C_8  and  C_10
REMARK    6  A    between atoms: C_8  and  C_14
REMARK    7  A    between atoms: C_10  and  C_11
REMARK    8  A    between atoms: C_11  and  C_12
REMARK    9  A    between atoms: C_11  and  C_13
REMARK                            x       y       z     vdW  Elec       q    Type
REMARK                         _______ _______ _______ _____ _____    ______ ____
ROOT
ATOM      1  C   UNL     1       2.339  -0.107  -0.089  0.00  0.00    +0.212 C 
ENDROOT
BRANCH   1   2
ATOM      2  C   UNL     1       2.808   0.206  -1.518  0.00  0.00    +0.265 C 
ATOM      3  N   UNL     1       3.990  -0.401  -1.865  0.00  0.00    -0.195 N 
ATOM      4  H   UNL     1       4.362  -1.191  -1.345  0.00  0.00    +0.182 HD
ATOM      5  O   UNL     1       2.184   0.933  -2.287  0.00  0.00    -0.271 OA
BRANCH   3   6
ATOM      6  O   UNL     1       4.386  -0.270  -3.215  0.00  0.00    -0.295 OA
ATOM      7  H   UNL     1       3.718   0.353  -3.576  0.00  0.00    +0.241 HD
ENDBRANCH   3   6
ENDBRANCH   1   2
BRANCH   1   8
ATOM      8  O   UNL     1       2.846  -1.363   0.375  0.00  0.00    -0.382 OA
ATOM      9  H   UNL     1       2.324  -2.060  -0.066  0.00  0.00    +0.210 HD
ENDBRANCH   1   8
BRANCH   1  10
ATOM     10  C   UNL     1       2.691   1.019   0.894  0.00  0.00    +0.090 C 
BRANCH  10  11
ATOM     11  C   UNL     1       4.192   1.106   1.042  0.00  0.00    +0.229 C 
ATOM     12  O   UNL     1       4.837   2.100   0.725  0.00  0.00    -0.301 OA
ENDBRANCH  10  11
BRANCH  10  13
ATOM     13  C   UNL     1       2.049   0.759   2.271  0.00  0.00    +0.016 C 
BRANCH  13  14
ATOM     14  C   UNL     1       2.300   1.835   3.349  0.00  0.00    -0.016 C 
ATOM     15  C   UNL     1       1.608   1.416   4.651  0.00  0.00    +0.007 C 
ATOM     16  C   UNL     1       1.816   3.222   2.928  0.00  0.00    +0.007 C 
ENDBRANCH  13  14
ENDBRANCH  10  13
ENDBRANCH   1  10
TORSDOF 7
