REMARK  Name = 
REMARK  4 active torsions:
REMARK  status: ('A' for Active; 'I' for Inactive)
REMARK    1  A    between atoms: O_1  and  C_2
REMARK    2  A    between atoms: C_4  and  O_5
REMARK    3  A    between atoms: C_9  and  C_10
REMARK    4  A    between atoms: C_11  and  N_15
REMARK                            x       y       z     vdW  Elec       q    Type
REMARK                         _______ _______ _______ _____ _____    ______ ____
ROOT
ATOM      1  C   UNL     1       2.651  -2.291   0.006  0.00  0.00    +0.090 A 
ATOM      2  N   UNL     1       1.285  -2.484  -0.016  0.00  0.00    -0.275 N 
ATOM      3  H   UNL     1       0.585  -1.753  -0.086  0.00  0.00    +0.189 HD
ATOM      4  N   UNL     1       0.880  -3.760   0.014  0.00  0.00    -0.180 NA
ATOM      5  C   UNL     1       2.031  -4.428  -0.013  0.00  0.00    +0.157 A 
ATOM      6  C   UNL     1       3.176  -3.582  -0.038  0.00  0.00    +0.076 A 
ENDROOT
BRANCH   1   8
ATOM      7  C   UNL     1       2.508   0.165  -0.568  0.00  0.00    +0.130 A 
ATOM      8  C   UNL     1       3.194  -0.918   0.025  0.00  0.00    +0.045 A 
ATOM      9  C   UNL     1       4.423  -0.639   0.635  0.00  0.00    +0.037 A 
ATOM     10  C   UNL     1       5.026   0.616   0.507  0.00  0.00    +0.083 A 
ATOM     11 CL   UNL     1       6.614   0.838   1.147  0.00  0.00    -0.080 Cl
ATOM     12  C   UNL     1       4.363   1.647  -0.161  0.00  0.00    +0.139 A 
ATOM     13  C   UNL     1       3.084   1.437  -0.669  0.00  0.00    +0.093 A 
BRANCH   7  14
ATOM     14  O   UNL     1       1.233  -0.018  -1.047  0.00  0.00    -0.506 OA
ATOM     15  H   UNL     1       0.891   0.826  -1.387  0.00  0.00    +0.292 HD
ENDBRANCH   7  14
BRANCH  12  16
ATOM     16  O   UNL     1       4.964   2.866  -0.311  0.00  0.00    -0.505 OA
ATOM     17  H   UNL     1       4.398   3.454  -0.837  0.00  0.00    +0.292 HD
ENDBRANCH  12  16
ENDBRANCH   1   8
BRANCH   6  18
ATOM     18  N   UNL     1       4.464  -4.030  -0.156  0.00  0.00    -0.325 N 
ATOM     19  C   UNL     1       5.567  -3.225  -0.694  0.00  0.00    +0.120 C 
ATOM     20  C   UNL     1       6.507  -4.066  -1.584  0.00  0.00    +0.100 C 
ATOM     21  N   UNL     1       6.994  -5.298  -0.937  0.00  0.00    -0.313 NA
ATOM     22  H   UNL     1       7.525  -5.841  -1.615  0.00  0.00    +0.122 HD
ATOM     23  C   UNL     1       5.830  -6.085  -0.487  0.00  0.00    +0.100 C 
ATOM     24  C   UNL     1       4.896  -5.299   0.458  0.00  0.00    +0.120 C 
ENDBRANCH   6  18
TORSDOF 4
