REMARK  Name = 
REMARK  12 active torsions:
REMARK  status: ('A' for Active; 'I' for Inactive)
REMARK    1  A    between atoms: N_6  and  C_7
REMARK    2  A    between atoms: C_7  and  C_8
REMARK    3  A    between atoms: C_8  and  C_9
REMARK    4  A    between atoms: C_9  and  C_10
REMARK    5  A    between atoms: C_10  and  C_11
REMARK    6  A    between atoms: C_11  and  C_12
REMARK    7  A    between atoms: C_12  and  C_13
REMARK    8  A    between atoms: C_13  and  C_14
REMARK    9  A    between atoms: C_16  and  O_18
REMARK   10  A    between atoms: C_19  and  O_21
REMARK   11  A    between atoms: C_22  and  O_24
REMARK   12  A    between atoms: C_25  and  O_27
REMARK                            x       y       z     vdW  Elec       q    Type
REMARK                         _______ _______ _______ _____ _____    ______ ____
ROOT
ATOM      1  C   UNL     1       2.237   0.056  -0.042  0.00  0.00    +0.149 C 
ATOM      2  C   UNL     1       2.544  -0.950   1.054  0.00  0.00    +0.169 C 
ATOM      3  C   UNL     1       2.075  -2.312   0.514  0.00  0.00    +0.177 C 
ATOM      4  C   UNL     1       2.781  -2.704  -0.795  0.00  0.00    +0.192 C 
ATOM      5  C   UNL     1       2.982  -1.537  -1.807  0.00  0.00    +0.238 C 
ATOM      6  N   UNL     1       3.069  -0.234  -1.196  0.00  0.00    -0.249 N 
ATOM      7  C   UNL     1       3.216   0.926  -1.910  0.00  0.00    +0.283 C 
ATOM      8  N   UNL     1       3.589   1.013  -3.132  0.00  0.00    -0.237 NA
ATOM      9  O   UNL     1       2.894   2.001  -1.129  0.00  0.00    -0.464 OA
ATOM     10  C   UNL     1       2.630   1.502   0.201  0.00  0.00    +0.257 C 
ENDROOT
BRANCH   2  11
ATOM     11  O   UNL     1       3.946  -0.948   1.357  0.00  0.00    -0.387 OA
ATOM     12  H   UNL     1       4.439  -0.963   0.517  0.00  0.00    +0.210 HD
ENDBRANCH   2  11
BRANCH   3  13
ATOM     13  O   UNL     1       2.276  -3.340   1.495  0.00  0.00    -0.386 OA
ATOM     14  H   UNL     1       2.135  -4.190   1.034  0.00  0.00    +0.210 HD
ENDBRANCH   3  13
BRANCH   4  15
ATOM     15  O   UNL     1       2.000  -3.764  -1.394  0.00  0.00    -0.385 OA
ATOM     16  H   UNL     1       2.434  -3.981  -2.242  0.00  0.00    +0.210 HD
ENDBRANCH   4  15
BRANCH   5  17
ATOM     17  O   UNL     1       4.222  -1.804  -2.449  0.00  0.00    -0.371 OA
ATOM     18  H   UNL     1       4.569  -0.918  -2.673  0.00  0.00    +0.212 HD
ENDBRANCH   5  17
BRANCH   8  19
ATOM     19  C   UNL     1       3.644   2.359  -3.705  0.00  0.00    +0.147 C 
BRANCH  19  20
ATOM     20  C   UNL     1       4.044   2.222  -5.177  0.00  0.00    +0.023 C 
BRANCH  20  21
ATOM     21  C   UNL     1       4.207   3.580  -5.861  0.00  0.00    +0.002 C 
BRANCH  21  22
ATOM     22  C   UNL     1       4.631   3.419  -7.325  0.00  0.00    +0.000 C 
BRANCH  22  23
ATOM     23  C   UNL     1       4.812   4.776  -8.010  0.00  0.00    -0.000 C 
BRANCH  23  24
ATOM     24  C   UNL     1       5.238   4.616  -9.472  0.00  0.00    -0.000 C 
BRANCH  24  25
ATOM     25  C   UNL     1       5.415   5.976 -10.151  0.00  0.00    -0.003 C 
ATOM     26  C   UNL     1       5.838   5.829 -11.604  0.00  0.00    +0.004 C 
ENDBRANCH  24  25
ENDBRANCH  23  24
ENDBRANCH  22  23
ENDBRANCH  21  22
ENDBRANCH  20  21
ENDBRANCH  19  20
ENDBRANCH   8  19
TORSDOF 11
