REMARK  Name = 
REMARK  4 active torsions:
REMARK  status: ('A' for Active; 'I' for Inactive)
REMARK    1  A    between atoms: C_1  and  C_2
REMARK    2  A    between atoms: C_6  and  C_8
REMARK    3  A    between atoms: C_10  and  N_11
REMARK    4  A    between atoms: N_11  and  C_12
REMARK                            x       y       z     vdW  Elec       q    Type
REMARK                         _______ _______ _______ _____ _____    ______ ____
ROOT
ATOM      1  C   UNL     1       5.431  -2.342   0.094  0.00  0.00    +0.181 A 
ATOM      2  N   UNL     1       6.693  -2.365  -0.379  0.00  0.00    -0.226 NA
ATOM      3  C   UNL     1       7.265  -3.560  -0.548  0.00  0.00    +0.077 A 
ATOM      4  C   UNL     1       6.613  -4.767  -0.264  0.00  0.00    +0.040 A 
ATOM      5  C   UNL     1       7.278  -5.995  -0.511  0.00  0.00    +0.013 A 
ATOM      6  C   UNL     1       8.573  -6.014  -1.027  0.00  0.00    +0.001 A 
ATOM      7  C   UNL     1       9.222  -4.814  -1.280  0.00  0.00    +0.002 A 
ATOM      8  C   UNL     1       5.329  -4.635   0.286  0.00  0.00    +0.135 A 
ATOM      9  C   UNL     1       8.565  -3.605  -1.037  0.00  0.00    +0.028 A 
ATOM     10  N   UNL     1       4.749  -3.438   0.458  0.00  0.00    -0.210 NA
ENDROOT
BRANCH   1  14
ATOM     11  C   UNL     1       1.264   0.010   0.883  0.00  0.00    +0.065 C 
ATOM     12  C   UNL     1       2.707   0.104   0.491  0.00  0.00    +0.039 A 
ATOM     13  N   UNL     1       3.405  -1.055   0.484  0.00  0.00    -0.249 NA
ATOM     14  C   UNL     1       4.728  -1.036   0.148  0.00  0.00    +0.108 A 
ATOM     15  C   UNL     1       5.366   0.164  -0.169  0.00  0.00    +0.031 A 
ATOM     16  C   UNL     1       4.639   1.353  -0.154  0.00  0.00    +0.004 A 
ATOM     17  C   UNL     1       3.290   1.324   0.179  0.00  0.00    +0.023 A 
ENDBRANCH   1  14
BRANCH   8  18
ATOM     18  N   UNL     1       4.590  -5.794   0.645  0.00  0.00    -0.299 N 
ATOM     19  H   UNL     1       4.383  -6.322  -0.198  0.00  0.00    +0.154 HD
BRANCH  18  20
ATOM     20  C   UNL     1       3.526  -5.827   1.579  0.00  0.00    +0.035 A 
ATOM     21  C   UNL     1       3.555  -5.054   2.745  0.00  0.00    +0.043 A 
ATOM     22  C   UNL     1       2.521  -5.173   3.659  0.00  0.00    +0.112 A 
ATOM     23  N   UNL     1       1.475  -6.012   3.506  0.00  0.00    -0.263 NA
ATOM     24  C   UNL     1       1.472  -6.760   2.384  0.00  0.00    +0.112 A 
ATOM     25  C   UNL     1       2.464  -6.716   1.415  0.00  0.00    +0.043 A 
ENDBRANCH  18  20
ENDBRANCH   8  18
TORSDOF 3
