REMARK  Name = 
REMARK  3 active torsions:
REMARK  status: ('A' for Active; 'I' for Inactive)
REMARK    1  A    between atoms: O_1  and  N_2
REMARK    2  A    between atoms: C_3  and  C_5
REMARK    3  A    between atoms: C_6  and  C_7
REMARK                            x       y       z     vdW  Elec       q    Type
REMARK                         _______ _______ _______ _____ _____    ______ ____
ROOT
ATOM      1  C   UNL     1       4.563  -1.057   1.081  0.00  0.00    +0.070 C 
ATOM      2  C   UNL     1       5.255  -1.041   2.229  0.00  0.00    +0.013 C 
ENDROOT
BRANCH   2   3
ATOM      3  C   UNL     1       6.714  -1.023   2.193  0.00  0.00    -0.025 A 
ATOM      4  C   UNL     1       7.422  -2.230   2.143  0.00  0.00    +0.009 A 
ATOM      5  C   UNL     1       8.814  -2.224   2.034  0.00  0.00    +0.020 A 
ATOM      6  C   UNL     1       9.498  -1.012   1.973  0.00  0.00    +0.041 A 
ATOM      7 CL   UNL     1      11.212  -1.005   1.819  0.00  0.00    -0.084 Cl
ATOM      8  C   UNL     1       8.803   0.196   2.025  0.00  0.00    +0.020 A 
ATOM      9  C   UNL     1       7.411   0.189   2.133  0.00  0.00    +0.009 A 
ENDBRANCH   2   3
BRANCH   1  12
ATOM     10  N   UNL     1       2.474  -1.080  -0.137  0.00  0.00    -0.194 N 
ATOM     11  H   UNL     1       1.465  -1.180  -0.176  0.00  0.00    +0.183 HD
ATOM     12  C   UNL     1       3.081  -1.114   1.083  0.00  0.00    +0.259 C 
ATOM     13  O   UNL     1       2.425  -1.184   2.118  0.00  0.00    -0.269 OA
BRANCH  10  14
ATOM     14  O   UNL     1       3.216  -1.079  -1.330  0.00  0.00    -0.295 OA
ATOM     15  H   UNL     1       2.582  -1.403  -1.995  0.00  0.00    +0.241 HD
ENDBRANCH  10  14
ENDBRANCH   1  12
TORSDOF 3
