REMARK  Name = 
REMARK  14 active torsions:
REMARK  status: ('A' for Active; 'I' for Inactive)
REMARK    1  A    between atoms: C_1  and  C_2
REMARK    2  A    between atoms: C_2  and  O_3
REMARK    3  A    between atoms: O_3  and  C_4
REMARK    4  A    between atoms: C_7  and  O_8
REMARK    5  A    between atoms: O_8  and  C_9
REMARK    6  A    between atoms: C_9  and  C_10
REMARK    7  A    between atoms: C_11  and  N_12
REMARK    8  A    between atoms: C_13  and  C_15
REMARK    9  A    between atoms: C_17  and  C_18
REMARK   10  A    between atoms: C_19  and  O_20
REMARK   11  A    between atoms: O_20  and  C_21
REMARK   12  A    between atoms: C_21  and  C_22
REMARK   13  A    between atoms: C_22  and  N_23
REMARK   14  A    between atoms: C_24  and  C_25
REMARK                            x       y       z     vdW  Elec       q    Type
REMARK                         _______ _______ _______ _____ _____    ______ ____
ROOT
ATOM      1  N   UNL     1       6.462  -4.446   0.527  0.00  0.00    -0.278 N 
ATOM      2  H   UNL     1       7.355  -4.638   0.956  0.00  0.00    +0.155 HD
ATOM      3  C   UNL     1       5.597  -5.486   0.243  0.00  0.00    +0.248 C 
ATOM      4  O   UNL     1       4.383  -5.365   0.106  0.00  0.00    -0.270 OA
ENDROOT
BRANCH   3   5
ATOM      5  C   UNL     1       6.197  -6.852   0.129  0.00  0.00    +0.038 A 
ATOM      6  C   UNL     1       5.467  -7.842  -0.522  0.00  0.00    +0.020 A 
ATOM      7  C   UNL     1       5.995  -9.137  -0.720  0.00  0.00    -0.008 A 
ATOM      8  C   UNL     1       5.095 -10.079  -1.480  0.00  0.00    +0.047 C 
ATOM      9  C   UNL     1       7.292  -9.469  -0.236  0.00  0.00    +0.126 A 
ATOM     10  C   UNL     1       8.025  -8.469   0.461  0.00  0.00    -0.008 A 
ATOM     11  C   UNL     1       9.410  -8.589   1.063  0.00  0.00    +0.047 C 
ATOM     12  C   UNL     1       7.454  -7.182   0.628  0.00  0.00    +0.020 A 
BRANCH   9  13
ATOM     13  O   UNL     1       7.694 -10.766  -0.517  0.00  0.00    -0.490 OA
BRANCH  13  14
ATOM     14  C   UNL     1       9.001 -11.155  -0.095  0.00  0.00    +0.244 C 
BRANCH  14  15
ATOM     15  C   UNL     1       9.433 -12.580  -0.462  0.00  0.00    +0.119 C 
BRANCH  15  16
ATOM     16  N   UNL     1       9.662 -12.764  -1.893  0.00  0.00    -0.327 NA
ATOM     17  H   UNL     1       9.938 -13.729  -2.070  0.00  0.00    +0.118 HD
ATOM     18  H   UNL     1       8.782 -12.609  -2.387  0.00  0.00    +0.118 HD
ENDBRANCH  15  16
ENDBRANCH  14  15
ENDBRANCH  13  14
ENDBRANCH   9  13
ENDBRANCH   3   5
BRANCH   1  21
ATOM     19  C   UNL     1       4.792  -1.176  -0.135  0.00  0.00    +0.122 A 
ATOM     20  C   UNL     1       5.141  -2.526  -0.242  0.00  0.00    +0.072 A 
ATOM     21  C   UNL     1       6.055  -3.101   0.649  0.00  0.00    +0.079 A 
ATOM     22  C   UNL     1       6.626  -2.325   1.670  0.00  0.00    +0.142 A 
ATOM     23  C   UNL     1       6.227  -0.995   1.811  0.00  0.00    +0.051 A 
ATOM     24  C   UNL     1       5.323  -0.422   0.914  0.00  0.00    +0.049 A 
BRANCH  19  25
ATOM     25  O   UNL     1       3.964  -0.699  -1.115  0.00  0.00    -0.492 OA
BRANCH  25  27
ATOM     26  C   UNL     1       2.773   1.048  -2.241  0.00  0.00    +0.048 C 
ATOM     27  C   UNL     1       3.639   0.690  -1.049  0.00  0.00    +0.225 C 
ENDBRANCH  25  27
ENDBRANCH  19  25
BRANCH  22  28
ATOM     28  O   UNL     1       7.517  -2.964   2.510  0.00  0.00    -0.490 OA
BRANCH  28  29
ATOM     29  C   UNL     1       7.936  -2.217   3.655  0.00  0.00    +0.226 C 
ATOM     30  C   UNL     1       8.831  -3.085   4.522  0.00  0.00    +0.048 C 
ENDBRANCH  28  29
ENDBRANCH  22  28
ENDBRANCH   1  21
TORSDOF 10
