REMARK  Name = 
REMARK  7 active torsions:
REMARK  status: ('A' for Active; 'I' for Inactive)
REMARK    1  A    between atoms: C_2  and  C_3
REMARK    2  A    between atoms: C_5  and  C_7
REMARK    3  A    between atoms: C_8  and  O_10
REMARK    4  A    between atoms: C_11  and  C_13
REMARK    5  A    between atoms: C_17  and  C_19
REMARK    6  A    between atoms: C_19  and  C_20
REMARK    7  A    between atoms: C_21  and  C_23
REMARK                            x       y       z     vdW  Elec       q    Type
REMARK                         _______ _______ _______ _____ _____    ______ ____
ROOT
ATOM      1  C   UNL     1       1.944   0.215   0.166  0.00  0.00    +0.057 C 
ATOM      2  C   UNL     1       2.353   0.253  -1.325  0.00  0.00    +0.159 C 
ATOM      3  O   UNL     1       1.855   1.068  -2.097  0.00  0.00    -0.292 OA
ATOM      4  C   UNL     1       3.411  -0.682  -1.791  0.00  0.00    +0.042 C 
ATOM      5  C   UNL     1       3.908  -0.730  -3.034  0.00  0.00    -0.017 C 
ATOM      6  C   UNL     1       4.854  -1.807  -3.566  0.00  0.00    +0.049 C 
ATOM      7  C   UNL     1       6.223  -1.173  -3.835  0.00  0.00    +0.015 C 
ATOM      8  C   UNL     1       4.945  -3.162  -2.760  0.00  0.00    +0.183 C 
ATOM      9  O   UNL     1       3.612  -3.399  -2.246  0.00  0.00    -0.461 OA
ATOM     10  C   UNL     1       3.192  -4.639  -1.916  0.00  0.00    +0.313 C 
ATOM     11  O   UNL     1       3.683  -5.679  -2.337  0.00  0.00    -0.250 OA
ATOM     12  C   UNL     1       2.016  -4.559  -0.956  0.00  0.00    +0.123 C 
ATOM     13  C   UNL     1       0.747  -4.263  -1.752  0.00  0.00    +0.022 C 
ATOM     14  C   UNL     1       2.267  -3.678   0.320  0.00  0.00    +0.131 C 
ATOM     15  C   UNL     1       1.463  -2.339   0.458  0.00  0.00    +0.016 C 
ATOM     16  C   UNL     1       0.305  -2.606   1.441  0.00  0.00    +0.010 C 
ATOM     17  C   UNL     1       2.253  -1.087   0.954  0.00  0.00    +0.017 C 
ATOM     18  C   UNL     1       2.645   1.403   0.831  0.00  0.00    +0.016 C 
ENDROOT
BRANCH   8  19
ATOM     19  C   UNL     1       5.966  -3.116  -1.598  0.00  0.00    +0.042 C 
ATOM     20  C   UNL     1       6.200  -4.425  -0.852  0.00  0.00    +0.007 C 
ENDBRANCH   8  19
BRANCH  14  21
ATOM     21  O   UNL     1       3.657  -3.470   0.537  0.00  0.00    -0.391 OA
ATOM     22  H   UNL     1       3.800  -3.303   1.485  0.00  0.00    +0.210 HD
ENDBRANCH  14  21
TORSDOF 2
