REMARK  Name = 
REMARK  7 active torsions:
REMARK  status: ('A' for Active; 'I' for Inactive)
REMARK    1  A    between atoms: O_1  and  C_2
REMARK    2  A    between atoms: C_2  and  C_3
REMARK    3  A    between atoms: C_3  and  O_4
REMARK    4  A    between atoms: O_4  and  C_5
REMARK    5  A    between atoms: C_5  and  N_6
REMARK    6  A    between atoms: C_8  and  C_9
REMARK    7  A    between atoms: C_9  and  C_10
REMARK                            x       y       z     vdW  Elec       q    Type
REMARK                         _______ _______ _______ _____ _____    ______ ____
ROOT
ATOM      1  N   UNL     1       6.355   2.377  -0.929  0.00  0.00    -0.277 N 
ATOM      2  C   UNL     1       7.025   1.210  -1.253  0.00  0.00    +0.331 A 
ATOM      3  O   UNL     1       6.478   0.129  -1.457  0.00  0.00    -0.246 OA
ATOM      4  N   UNL     1       8.387   1.331  -1.386  0.00  0.00    -0.275 N 
ATOM      5  H   UNL     1       8.871   0.507  -1.703  0.00  0.00    +0.173 HD
ATOM      6  C   UNL     1       9.058   2.517  -1.518  0.00  0.00    +0.257 A 
ATOM      7  O   UNL     1      10.197   2.567  -1.968  0.00  0.00    -0.267 OA
ATOM      8  C   UNL     1       8.305   3.732  -1.143  0.00  0.00    +0.038 A 
ATOM      9  C   UNL     1       7.018   3.583  -0.809  0.00  0.00    +0.102 A 
ENDROOT
BRANCH   1  10
ATOM     10  C   UNL     1       4.895   2.374  -0.931  0.00  0.00    +0.289 C 
BRANCH  10  11
ATOM     11  O   UNL     1       4.468   3.571  -1.578  0.00  0.00    -0.357 OA
BRANCH  11  12
ATOM     12  C   UNL     1       3.061   3.660  -1.735  0.00  0.00    +0.190 C 
BRANCH  12  13
ATOM     13  C   UNL     1       2.755   4.998  -2.401  0.00  0.00    +0.184 C 
BRANCH  13  14
ATOM     14  O   UNL     1       1.357   5.153  -2.586  0.00  0.00    -0.393 OA
ATOM     15  H   UNL     1       1.228   6.004  -3.040  0.00  0.00    +0.209 HD
ENDBRANCH  13  14
ENDBRANCH  12  13
ENDBRANCH  11  12
ENDBRANCH  10  11
ENDBRANCH   1  10
BRANCH   8  16
ATOM     16  C   UNL     1       8.894   5.077  -1.440  0.00  0.00    +0.077 C 
BRANCH  16  17
ATOM     17  C   UNL     1       9.630   5.766  -0.321  0.00  0.00    -0.043 A 
ATOM     18  C   UNL     1       8.955   6.635   0.550  0.00  0.00    +0.004 A 
ATOM     19  C   UNL     1       9.665   7.385   1.488  0.00  0.00    +0.000 A 
ATOM     20  C   UNL     1      11.050   7.267   1.572  0.00  0.00    +0.000 A 
ATOM     21  C   UNL     1      11.725   6.380   0.735  0.00  0.00    +0.000 A 
ATOM     22  C   UNL     1      11.018   5.625  -0.202  0.00  0.00    +0.004 A 
ENDBRANCH  16  17
ENDBRANCH   8  16
TORSDOF 7
