REMARK  Name = 
REMARK  4 active torsions:
REMARK  status: ('A' for Active; 'I' for Inactive)
REMARK    1  A    between atoms: N_9  and  C_10
REMARK    2  A    between atoms: C_12  and  S_16
REMARK    3  A    between atoms: S_16  and  N_19
REMARK    4  A    between atoms: N_22  and  C_25
REMARK                            x       y       z     vdW  Elec       q    Type
REMARK                         _______ _______ _______ _____ _____    ______ ____
ROOT
ATOM      1  C   UNL     1       5.194  -1.374  -0.871  0.00  0.00    +0.037 A 
ATOM      2  C   UNL     1       5.422  -0.309   0.013  0.00  0.00    +0.023 A 
ATOM      3  C   UNL     1       6.204   0.782  -0.366  0.00  0.00    +0.004 A 
ATOM      4  C   UNL     1       6.794   0.802  -1.624  0.00  0.00    +0.028 A 
ATOM      5  C   UNL     1       6.587  -0.269  -2.502  0.00  0.00    +0.107 A 
ATOM      6  C   UNL     1       5.785  -1.356  -2.134  0.00  0.00    +0.052 A 
ENDROOT
BRANCH   1   9
ATOM      7  O   UNL     1       3.971  -3.687  -2.284  0.00  0.00    -0.252 OA
ATOM      8  C   UNL     1       3.868  -3.488  -1.075  0.00  0.00    +0.310 C 
ATOM      9  N   UNL     1       4.392  -2.422  -0.393  0.00  0.00    -0.269 N 
ATOM     10  H   UNL     1       4.111  -2.367   0.583  0.00  0.00    +0.156 HD
ATOM     11  N   UNL     1       3.169  -4.399  -0.329  0.00  0.00    -0.248 N 
ATOM     12  H   UNL     1       2.813  -5.197  -0.833  0.00  0.00    +0.158 HD
ATOM     13  C   UNL     1       2.946  -4.322   1.014  0.00  0.00    +0.165 A 
ATOM     14  S   UNL     1       2.133  -5.648   1.705  0.00  0.00    -0.060 S 
ATOM     15  C   UNL     1       2.265  -4.893   3.243  0.00  0.00    +0.068 A 
ATOM     16  C   UNL     1       2.895  -3.674   3.107  0.00  0.00    +0.120 A 
ATOM     17  N   UNL     1       3.289  -3.348   1.824  0.00  0.00    -0.233 NA
ENDBRANCH   1   9
BRANCH   5  18
ATOM     18  S   UNL     1       7.517  -0.341  -4.012  0.00  0.00    +0.061 S 
ATOM     19  O   UNL     1       7.726  -1.737  -4.337  0.00  0.00    -0.153 OA
ATOM     20  O   UNL     1       8.656   0.539  -3.862  0.00  0.00    -0.153 OA
BRANCH  18  21
ATOM     21  N   UNL     1       6.472   0.312  -5.188  0.00  0.00    -0.174 NA
ATOM     22  C   UNL     1       6.933   0.064  -6.599  0.00  0.00    +0.128 C 
ATOM     23  C   UNL     1       8.117   0.972  -6.993  0.00  0.00    +0.123 C 
ATOM     24  N   UNL     1       7.780   2.376  -6.748  0.00  0.00    -0.313 N 
ATOM     25  C   UNL     1       7.208   2.724  -5.443  0.00  0.00    +0.123 C 
ATOM     26  C   UNL     1       6.079   1.755  -5.050  0.00  0.00    +0.128 C 
BRANCH  24  27
ATOM     27  C   UNL     1       7.956   3.367  -7.683  0.00  0.00    +0.121 A 
ATOM     28  N   UNL     1       7.079   4.394  -7.685  0.00  0.00    -0.240 NA
ATOM     29  C   UNL     1       7.221   5.372  -8.608  0.00  0.00    +0.113 A 
ATOM     30  C   UNL     1       8.236   5.405  -9.542  0.00  0.00    +0.020 A 
ATOM     31  C   UNL     1       9.150   4.364  -9.535  0.00  0.00    +0.005 A 
ATOM     32  C   UNL     1       9.001   3.334  -8.605  0.00  0.00    +0.043 A 
ENDBRANCH  24  27
ENDBRANCH  18  21
ENDBRANCH   5  18
TORSDOF 4
