REMARK  Name = 
REMARK  10 active torsions:
REMARK  status: ('A' for Active; 'I' for Inactive)
REMARK    1  A    between atoms: C_1  and  O_2
REMARK    2  A    between atoms: O_2  and  C_3
REMARK    3  A    between atoms: C_6  and  S_9
REMARK    4  A    between atoms: S_9  and  N_12
REMARK    5  A    between atoms: C_14  and  C_15
REMARK    6  A    between atoms: C_15  and  C_16
REMARK    7  A    between atoms: C_16  and  C_17
REMARK    8  A    between atoms: C_17  and  O_18
REMARK    9  A    between atoms: C_22  and  O_23
REMARK   10  A    between atoms: O_23  and  C_24
REMARK                            x       y       z     vdW  Elec       q    Type
REMARK                         _______ _______ _______ _____ _____    ______ ____
ROOT
ATOM      1  N   UNL     1       4.456  -6.444   0.144  0.00  0.00    -0.218 N 
ATOM      2  C   UNL     1       3.091  -6.399  -0.018  0.00  0.00    +0.073 A 
ATOM      3  C   UNL     1       2.640  -7.720   0.151  0.00  0.00    +0.008 A 
ATOM      4  C   UNL     1       1.250  -7.972   0.117  0.00  0.00    +0.056 A 
ATOM      5  C   UNL     1       0.342  -6.936  -0.122  0.00  0.00    +0.121 A 
ATOM      6  C   UNL     1       0.817  -5.654  -0.377  0.00  0.00    +0.048 A 
ATOM      7  C   UNL     1       3.789  -8.569   0.299  0.00  0.00    -0.020 A 
ATOM      8  C   UNL     1       2.189  -5.363  -0.323  0.00  0.00    +0.032 A 
ATOM      9  C   UNL     1       4.892  -7.738   0.317  0.00  0.00    +0.116 A 
ENDROOT
BRANCH   1  10
ATOM     10  S   UNL     1       5.506  -5.099   0.313  0.00  0.00    +0.084 S 
ATOM     11  O   UNL     1       6.842  -5.621   0.087  0.00  0.00    -0.148 OA
ATOM     12  O   UNL     1       4.950  -4.044  -0.510  0.00  0.00    -0.148 OA
BRANCH  10  16
ATOM     13  C   UNL     1       5.104  -3.933   4.707  0.00  0.00    +0.120 A 
ATOM     14  C   UNL     1       5.616  -5.186   4.362  0.00  0.00    +0.047 A 
ATOM     15  C   UNL     1       5.772  -5.534   3.017  0.00  0.00    +0.032 A 
ATOM     16  C   UNL     1       5.401  -4.627   2.020  0.00  0.00    +0.111 A 
ATOM     17  C   UNL     1       4.984  -3.337   2.361  0.00  0.00    +0.032 A 
ATOM     18  C   UNL     1       4.843  -2.993   3.708  0.00  0.00    +0.047 A 
BRANCH  13  20
ATOM     19  C   UNL     1       4.296  -4.545   6.821  0.00  0.00    +0.277 C 
ATOM     20  O   UNL     1       4.870  -3.531   5.994  0.00  0.00    -0.495 OA
ENDBRANCH  13  20
ENDBRANCH  10  16
ENDBRANCH   1  10
BRANCH   5  21
ATOM     21  O   UNL     1      -0.974  -7.314  -0.101  0.00  0.00    -0.495 OA
ATOM     22  C   UNL     1      -1.943  -6.275  -0.160  0.00  0.00    +0.277 C 
ENDBRANCH   5  21
BRANCH   7  23
ATOM     23  C   UNL     1       3.764 -10.072   0.374  0.00  0.00    +0.048 C 
BRANCH  23  24
ATOM     24  C   UNL     1       4.940 -10.712   1.104  0.00  0.00    +0.125 C 
BRANCH  24  25
ATOM     25  C   UNL     1       4.959 -10.346   2.567  0.00  0.00    +0.305 C 
ATOM     26  O   UNL     1       3.972 -10.108   3.244  0.00  0.00    -0.251 OA
BRANCH  25  27
ATOM     27  O   UNL     1       6.206 -10.347   3.094  0.00  0.00    -0.481 OA
ATOM     28  H   UNL     1       6.908 -10.598   2.465  0.00  0.00    +0.295 HD
ENDBRANCH  25  27
ENDBRANCH  24  25
ENDBRANCH  23  24
ENDBRANCH   7  23
TORSDOF 8
