REMARK  Name = 
REMARK  7 active torsions:
REMARK  status: ('A' for Active; 'I' for Inactive)
REMARK    1  A    between atoms: C_2  and  C_3
REMARK    2  A    between atoms: C_3  and  N_4
REMARK    3  A    between atoms: N_4  and  S_5
REMARK    4  A    between atoms: S_5  and  C_8
REMARK    5  A    between atoms: C_19  and  O_23
REMARK    6  A    between atoms: O_23  and  C_24
REMARK    7  A    between atoms: C_24  and  C_25
REMARK                            x       y       z     vdW  Elec       q    Type
REMARK                         _______ _______ _______ _____ _____    ______ ____
ROOT
ATOM      1  C   UNL     1       2.531   0.184  -1.469  0.00  0.00    +0.124 C 
ENDROOT
BRANCH   1   2
ATOM      2  C   UNL     1       2.155  -0.004   0.020  0.00  0.00    +0.072 C 
ATOM      3  N   UNL     1       2.766  -1.220   0.598  0.00  0.00    -0.309 NA
ATOM      4  H   UNL     1       2.072  -1.703   1.172  0.00  0.00    +0.122 HD
ATOM      5  C   UNL     1       3.866  -0.793   1.478  0.00  0.00    +0.112 C 
ATOM      6  C   UNL     1       4.045   0.715   1.304  0.00  0.00    +0.134 C 
ATOM      7  C   UNL     1       2.655   1.154   0.874  0.00  0.00    +0.053 C 
BRANCH   6   8
ATOM      8  O   UNL     1       4.402   1.398   2.500  0.00  0.00    -0.371 OA
BRANCH   8   9
ATOM      9  C   UNL     1       5.715   1.071   2.955  0.00  0.00    +0.195 C 
BRANCH   9  10
ATOM     10  C   UNL     1       6.037   1.901   4.172  0.00  0.00    -0.022 A 
ATOM     11  C   UNL     1       7.178   2.717   4.203  0.00  0.00    +0.007 A 
ATOM     12  C   UNL     1       7.481   3.469   5.341  0.00  0.00    +0.020 A 
ATOM     13  C   UNL     1       6.647   3.408   6.456  0.00  0.00    +0.041 A 
ATOM     14 CL   UNL     1       7.019   4.338   7.854  0.00  0.00    -0.084 Cl
ATOM     15  C   UNL     1       5.514   2.597   6.444  0.00  0.00    +0.020 A 
ATOM     16  C   UNL     1       5.212   1.846   5.307  0.00  0.00    +0.007 A 
ENDBRANCH   9  10
ENDBRANCH   8   9
ENDBRANCH   6   8
ENDBRANCH   1   2
BRANCH   1  17
ATOM     17  N   UNL     1       2.105  -0.973  -2.271  0.00  0.00    -0.188 NA
ATOM     18  H   UNL     1       1.230  -1.435  -2.030  0.00  0.00    +0.148 HD
BRANCH  17  19
ATOM     19  S   UNL     1       2.416  -0.959  -3.917  0.00  0.00    +0.059 S 
ATOM     20  O   UNL     1       2.087   0.368  -4.394  0.00  0.00    -0.153 OA
ATOM     21  O   UNL     1       1.778  -2.126  -4.483  0.00  0.00    -0.153 OA
BRANCH  19  22
ATOM     22  C   UNL     1       4.185  -1.180  -4.006  0.00  0.00    +0.113 A 
ATOM     23  C   UNL     1       4.821  -2.386  -3.601  0.00  0.00    +0.011 A 
ATOM     24  C   UNL     1       6.228  -2.454  -3.742  0.00  0.00    +0.002 A 
ATOM     25  C   UNL     1       6.878  -3.631  -3.361  0.00  0.00    +0.119 A 
ATOM     26  N   UNL     1       6.265  -4.723  -2.857  0.00  0.00    -0.263 NA
ATOM     27  C   UNL     1       4.929  -4.646  -2.722  0.00  0.00    +0.111 A 
ATOM     28  C   UNL     1       6.955  -1.365  -4.255  0.00  0.00    +0.010 A 
ATOM     29  C   UNL     1       6.310  -0.194  -4.640  0.00  0.00    +0.003 A 
ATOM     30  C   UNL     1       4.182  -3.527  -3.065  0.00  0.00    +0.030 A 
ATOM     31  C   UNL     1       4.928  -0.102  -4.521  0.00  0.00    +0.029 A 
ENDBRANCH  19  22
ENDBRANCH  17  19
ENDBRANCH   1  17
TORSDOF 7
