REMARK  Name = 
REMARK  7 active torsions:
REMARK  status: ('A' for Active; 'I' for Inactive)
REMARK    1  A    between atoms: C_1  and  C_2
REMARK    2  A    between atoms: C_2  and  C_3
REMARK    3  A    between atoms: C_2  and  C_4
REMARK    4  A    between atoms: C_2  and  O_5
REMARK    5  A    between atoms: O_5  and  C_6
REMARK    6  A    between atoms: N_8  and  C_9
REMARK    7  A    between atoms: C_10  and  C_15
REMARK                            x       y       z     vdW  Elec       q    Type
REMARK                         _______ _______ _______ _____ _____    ______ ____
ROOT
ATOM      1  C   UNL     1       6.275  -3.245   0.308  0.00  0.00    +0.067 A 
ATOM      2  C   UNL     1       7.275  -2.265   0.292  0.00  0.00    +0.027 A 
ATOM      3  C   UNL     1       8.611  -2.612   0.484  0.00  0.00    +0.022 A 
ATOM      4  C   UNL     1       8.925  -3.944   0.676  0.00  0.00    +0.112 A 
ATOM      5  N   UNL     1       8.005  -4.930   0.710  0.00  0.00    -0.248 NA
ATOM      6  C   UNL     1       6.692  -4.560   0.548  0.00  0.00    +0.147 A 
ENDROOT
BRANCH   6   7
ATOM      7  C   UNL     1       5.733  -5.718   0.547  0.00  0.00    +0.270 C 
ATOM      8  N   UNL     1       6.392  -6.926   0.497  0.00  0.00    -0.259 N 
ATOM      9  H   UNL     1       7.405  -6.905   0.441  0.00  0.00    +0.157 HD
ATOM     10  C   UNL     1       5.774  -8.139   0.486  0.00  0.00    +0.165 A 
ATOM     11  S   UNL     1       6.839  -9.459   0.269  0.00  0.00    -0.061 S 
ATOM     12  C   UNL     1       5.496 -10.527   0.331  0.00  0.00    +0.068 A 
ATOM     13  C   UNL     1       4.343  -9.799   0.542  0.00  0.00    +0.120 A 
ATOM     14  N   UNL     1       4.506  -8.430   0.616  0.00  0.00    -0.233 NA
ATOM     15  O   UNL     1       4.524  -5.519   0.565  0.00  0.00    -0.268 OA
ENDBRANCH   6   7
BRANCH   1  17
ATOM     16  C   UNL     1       4.561  -2.004  -0.911  0.00  0.00    +0.405 C 
ATOM     17  N   UNL     1       4.922  -2.885   0.082  0.00  0.00    -0.249 N 
ATOM     18  H   UNL     1       4.199  -3.557   0.340  0.00  0.00    +0.158 HD
ATOM     19  O   UNL     1       5.344  -1.504  -1.706  0.00  0.00    -0.226 OA
BRANCH  16  20
ATOM     20  O   UNL     1       3.212  -1.814  -0.934  0.00  0.00    -0.444 OA
BRANCH  20  22
ATOM     21  C   UNL     1       2.722  -1.844  -3.327  0.00  0.00    +0.055 C 
ATOM     22  C   UNL     1       2.620  -1.045  -2.022  0.00  0.00    +0.107 C 
ATOM     23  C   UNL     1       1.128  -0.876  -1.682  0.00  0.00    +0.055 C 
ATOM     24  C   UNL     1       3.218   0.364  -2.161  0.00  0.00    +0.055 C 
ENDBRANCH  20  22
ENDBRANCH  16  20
ENDBRANCH   1  17
TORSDOF 4
