REMARK  Name = 
REMARK  14 active torsions:
REMARK  status: ('A' for Active; 'I' for Inactive)
REMARK    1  A    between atoms: C_2  and  O_3
REMARK    2  A    between atoms: C_4  and  O_6
REMARK    3  A    between atoms: C_7  and  C_9
REMARK    4  A    between atoms: C_9  and  O_10
REMARK    5  A    between atoms: C_12  and  O_14
REMARK    6  A    between atoms: O_14  and  C_15
REMARK    7  A    between atoms: C_15  and  C_16
REMARK    8  A    between atoms: C_16  and  C_17
REMARK    9  A    between atoms: C_17  and  C_18
REMARK   10  A    between atoms: C_18  and  C_19
REMARK   11  A    between atoms: C_19  and  C_20
REMARK   12  A    between atoms: C_20  and  C_21
REMARK   13  A    between atoms: C_21  and  C_22
REMARK   14  A    between atoms: C_23  and  O_25
REMARK                            x       y       z     vdW  Elec       q    Type
REMARK                         _______ _______ _______ _____ _____    ______ ____
ROOT
ATOM      1  C   UNL     1       3.242   2.548  -1.643  0.00  0.00    +0.179 C 
ATOM      2  C   UNL     1       2.681   1.882  -2.894  0.00  0.00    +0.201 C 
ATOM      3  C   UNL     1       1.897   0.606  -2.542  0.00  0.00    +0.282 C 
ATOM      4  O   UNL     1       2.637  -0.308  -1.735  0.00  0.00    -0.341 OA
ATOM      5  C   UNL     1       3.496   0.176  -0.695  0.00  0.00    +0.178 C 
ATOM      6  C   UNL     1       4.143   1.568  -0.896  0.00  0.00    +0.177 C 
ENDROOT
BRANCH   1   7
ATOM      7  O   UNL     1       2.242   3.022  -0.732  0.00  0.00    -0.386 OA
ATOM      8  H   UNL     1       1.506   3.392  -1.255  0.00  0.00    +0.210 HD
ENDBRANCH   1   7
BRANCH   2   9
ATOM      9  O   UNL     1       3.761   1.557  -3.792  0.00  0.00    -0.384 OA
ATOM     10  H   UNL     1       4.072   0.660  -3.582  0.00  0.00    +0.210 HD
ENDBRANCH   2   9
BRANCH   6  11
ATOM     11  O   UNL     1       4.565   2.154   0.347  0.00  0.00    -0.386 OA
ATOM     12  H   UNL     1       3.851   2.786   0.588  0.00  0.00    +0.210 HD
ENDBRANCH   6  11
BRANCH   3  13
ATOM     13  O   UNL     1       0.599   0.915  -2.022  0.00  0.00    -0.349 OA
BRANCH  13  14
ATOM     14  C   UNL     1      -0.294  -0.194  -2.180  0.00  0.00    +0.163 C 
BRANCH  14  15
ATOM     15  C   UNL     1      -1.743   0.204  -1.900  0.00  0.00    +0.028 C 
BRANCH  15  16
ATOM     16  C   UNL     1      -1.928   0.818  -0.515  0.00  0.00    +0.002 C 
BRANCH  16  17
ATOM     17  C   UNL     1      -3.408   1.017  -0.182  0.00  0.00    +0.000 C 
BRANCH  17  18
ATOM     18  C   UNL     1      -3.578   1.650   1.200  0.00  0.00    -0.000 C 
BRANCH  18  19
ATOM     19  C   UNL     1      -5.055   1.836   1.544  0.00  0.00    -0.000 C 
BRANCH  19  20
ATOM     20  C   UNL     1      -5.235   2.472   2.921  0.00  0.00    -0.003 C 
ATOM     21  C   UNL     1      -6.707   2.662   3.248  0.00  0.00    +0.004 C 
ENDBRANCH  19  20
ENDBRANCH  18  19
ENDBRANCH  17  18
ENDBRANCH  16  17
ENDBRANCH  15  16
ENDBRANCH  14  15
ENDBRANCH  13  14
ENDBRANCH   3  13
BRANCH   5  22
ATOM     22  C   UNL     1       2.925  -0.058   0.714  0.00  0.00    +0.190 C 
BRANCH  22  23
ATOM     23  O   UNL     1       3.978  -0.100   1.686  0.00  0.00    -0.392 OA
ATOM     24  H   UNL     1       4.523   0.703   1.539  0.00  0.00    +0.210 HD
ENDBRANCH  22  23
ENDBRANCH   5  22
TORSDOF 13
