REMARK  Name = 
REMARK  4 active torsions:
REMARK  status: ('A' for Active; 'I' for Inactive)
REMARK    1  A    between atoms: C_6  and  N_7
REMARK    2  A    between atoms: C_14  and  C_15
REMARK    3  A    between atoms: C_15  and  C_16
REMARK    4  A    between atoms: C_16  and  N_17
REMARK                            x       y       z     vdW  Elec       q    Type
REMARK                         _______ _______ _______ _____ _____    ______ ____
ROOT
ATOM      1  N   UNL     1       7.426  -6.058  -1.345  0.00  0.00    -0.269 N 
ATOM      2  H   UNL     1       6.915  -6.906  -1.105  0.00  0.00    +0.156 HD
ATOM      3  C   UNL     1       6.730  -4.892  -1.160  0.00  0.00    +0.310 C 
ATOM      4  N   UNL     1       5.385  -5.002  -0.957  0.00  0.00    -0.248 N 
ATOM      5  H   UNL     1       4.881  -4.132  -0.895  0.00  0.00    +0.158 HD
ATOM      6  C   UNL     1       4.691  -6.163  -0.817  0.00  0.00    +0.166 A 
ATOM      7  S   UNL     1       3.005  -5.990  -0.691  0.00  0.00    -0.057 S 
ATOM      8  C   UNL     1       2.865  -7.698  -0.536  0.00  0.00    +0.013 A 
ATOM      9  C   UNL     1       4.130  -8.259  -0.589  0.00  0.00    +0.124 A 
ATOM     10  N   UNL     1       5.175  -7.378  -0.764  0.00  0.00    -0.233 NA
ATOM     11  O   UNL     1       7.207  -3.758  -1.184  0.00  0.00    -0.252 OA
ENDROOT
BRANCH   1  15
ATOM     12 CL   UNL     1      11.386  -9.231  -1.833  0.00  0.00    -0.083 Cl
ATOM     13  C   UNL     1      10.678  -7.670  -1.988  0.00  0.00    +0.043 A 
ATOM     14  C   UNL     1       9.339  -7.479  -1.641  0.00  0.00    +0.043 A 
ATOM     15  C   UNL     1       8.770  -6.204  -1.732  0.00  0.00    +0.036 A 
ATOM     16  C   UNL     1       9.543  -5.146  -2.220  0.00  0.00    +0.023 A 
ATOM     17  C   UNL     1      10.878  -5.345  -2.577  0.00  0.00    +0.003 A 
ATOM     18  C   UNL     1      11.453  -6.607  -2.452  0.00  0.00    +0.020 A 
ENDBRANCH   1  15
BRANCH   8  19
ATOM     19  C   UNL     1       1.518  -8.336  -0.376  0.00  0.00    +0.062 C 
BRANCH  19  20
ATOM     20  C   UNL     1       1.611  -9.828  -0.057  0.00  0.00    +0.108 C 
BRANCH  20  21
ATOM     21  N   UNL     1       0.296 -10.446   0.013  0.00  0.00    -0.328 N 
ATOM     22  H   UNL     1      -0.454  -9.921   0.451  0.00  0.00    +0.147 HD
ATOM     23  C   UNL     1       0.305 -11.791   0.398  0.00  0.00    +0.136 A 
ATOM     24  C   UNL     1      -0.863 -12.494   0.720  0.00  0.00    +0.077 A 
ATOM     25  S   UNL     1      -2.502 -11.961   0.753  0.00  0.00    -0.092 S 
ATOM     26  C   UNL     1      -3.075 -13.513   1.180  0.00  0.00    +0.048 A 
ATOM     27  C   UNL     1      -2.050 -14.419   1.319  0.00  0.00    +0.036 A 
ATOM     28  C   UNL     1      -0.773 -13.840   1.063  0.00  0.00    +0.083 A 
ATOM     29  N   UNL     1       0.404 -14.508   1.126  0.00  0.00    -0.235 NA
ATOM     30  C   UNL     1       1.464 -13.763   0.810  0.00  0.00    +0.223 A 
ATOM     31  N   UNL     1       1.474 -12.471   0.451  0.00  0.00    -0.220 NA
ENDBRANCH  20  21
ENDBRANCH  19  20
ENDBRANCH   8  19
TORSDOF 4
