REMARK  Name = 
REMARK  10 active torsions:
REMARK  status: ('A' for Active; 'I' for Inactive)
REMARK    1  A    between atoms: C_1  and  C_2
REMARK    2  A    between atoms: C_2  and  C_3
REMARK    3  A    between atoms: C_3  and  C_4
REMARK    4  A    between atoms: C_4  and  C_5
REMARK    5  A    between atoms: C_6  and  C_7
REMARK    6  A    between atoms: C_10  and  C_12
REMARK    7  A    between atoms: N_14  and  N_15
REMARK    8  A    between atoms: N_15  and  C_16
REMARK    9  A    between atoms: C_16  and  N_18
REMARK   10  A    between atoms: N_18  and  C_19
REMARK                            x       y       z     vdW  Elec       q    Type
REMARK                         _______ _______ _______ _____ _____    ______ ____
ROOT
ATOM      1  C   UNL     1       5.978  -4.432   3.289  0.00  0.00    +0.179 A 
ATOM      2  O   UNL     1       5.604  -5.710   2.978  0.00  0.00    -0.442 OA
ATOM      3  C   UNL     1       6.120  -6.520   3.966  0.00  0.00    +0.192 A 
ATOM      4  C   UNL     1       6.812  -5.744   4.880  0.00  0.00    +0.056 A 
ATOM      5  C   UNL     1       6.721  -4.405   4.444  0.00  0.00    +0.059 A 
ENDROOT
BRANCH   3   6
ATOM      6  C   UNL     1       5.916  -7.955   3.975  0.00  0.00    +0.295 C 
ATOM      7  N   UNL     1       5.186  -8.495   2.931  0.00  0.00    -0.229 N 
ATOM      8  H   UNL     1       4.798  -7.938   2.173  0.00  0.00    +0.173 HD
ATOM      9  O   UNL     1       6.362  -8.687   4.865  0.00  0.00    -0.265 OA
BRANCH   7  10
ATOM     10  N   UNL     1       4.979  -9.888   2.933  0.00  0.00    -0.246 N 
ATOM     11  H   UNL     1       5.391 -10.371   3.728  0.00  0.00    +0.172 HD
BRANCH  10  12
ATOM     12  C   UNL     1       4.277 -10.541   1.961  0.00  0.00    +0.147 C 
ATOM     13  S   UNL     1       3.571  -9.798   0.638  0.00  0.00    -0.017 S 
BRANCH  12  14
ATOM     14  N   UNL     1       4.145 -11.890   2.079  0.00  0.00    -0.329 N 
ATOM     15  H   UNL     1       3.615 -12.312   1.324  0.00  0.00    +0.147 HD
ATOM     16  C   UNL     1       4.638 -12.802   3.094  0.00  0.00    +0.127 C 
ENDBRANCH  12  14
ENDBRANCH  10  12
ENDBRANCH   7  10
ENDBRANCH   3   6
BRANCH   1  18
ATOM     17  C   UNL     1       5.117  -2.363   1.740  0.00  0.00    -0.094 C 
ATOM     18  C   UNL     1       5.552  -3.362   2.457  0.00  0.00    -0.028 C 
BRANCH  17  19
ATOM     19  C   UNL     1       4.610  -1.199   0.904  0.00  0.00    +0.089 C 
BRANCH  19  20
ATOM     20  C   UNL     1       3.084  -1.184   0.893  0.00  0.00    +0.012 C 
BRANCH  20  22
ATOM     21  C   UNL     1       1.023  -0.010   0.050  0.00  0.00    +0.004 C 
ATOM     22  C   UNL     1       2.543  -0.024   0.059  0.00  0.00    -0.002 C 
ENDBRANCH  20  22
ENDBRANCH  19  20
ENDBRANCH  17  19
ENDBRANCH   1  18
TORSDOF 8
