REMARK  Name = 
REMARK  8 active torsions:
REMARK  status: ('A' for Active; 'I' for Inactive)
REMARK    1  A    between atoms: C_2  and  C_3
REMARK    2  A    between atoms: N_9  and  C_10
REMARK    3  A    between atoms: N_16  and  C_17
REMARK    4  A    between atoms: C_22  and  O_23
REMARK    5  A    between atoms: O_23  and  C_24
REMARK    6  A    between atoms: C_24  and  C_25
REMARK    7  A    between atoms: C_25  and  C_26
REMARK    8  A    between atoms: C_26  and  N_27
REMARK                            x       y       z     vdW  Elec       q    Type
REMARK                         _______ _______ _______ _____ _____    ______ ____
ROOT
ATOM      1  C   UNL     1       4.488   0.472   1.180  0.00  0.00    +0.236 A 
ATOM      2  N   UNL     1       4.728  -0.846   1.029  0.00  0.00    -0.201 NA
ATOM      3  C   UNL     1       5.996  -1.326   1.150  0.00  0.00    +0.155 A 
ATOM      4  N   UNL     1       6.305  -2.671   0.871  0.00  0.00    -0.295 N 
ATOM      5  H   UNL     1       7.312  -2.797   0.776  0.00  0.00    +0.154 HD
ATOM      6  C   UNL     1       6.994  -0.408   1.537  0.00  0.00    +0.148 A 
ATOM      7  N   UNL     1       8.344  -0.541   1.787  0.00  0.00    -0.231 NA
ATOM      8  C   UNL     1       8.766   0.685   2.037  0.00  0.00    +0.202 A 
ATOM      9  N   UNL     1       7.761   1.606   1.924  0.00  0.00    -0.312 N 
ATOM     10  C   UNL     1       6.606   0.915   1.664  0.00  0.00    +0.167 A 
ATOM     11  N   UNL     1       5.379   1.431   1.494  0.00  0.00    -0.199 NA
ENDROOT
BRANCH   4  12
ATOM     12  C   UNL     1       5.571  -3.663   0.185  0.00  0.00    +0.075 A 
ATOM     13  C   UNL     1       6.036  -4.996   0.098  0.00  0.00    +0.142 A 
ATOM     14  C   UNL     1       5.338  -5.930  -0.690  0.00  0.00    +0.047 A 
ATOM     15  C   UNL     1       4.144  -5.588  -1.327  0.00  0.00    +0.004 A 
ATOM     16  C   UNL     1       3.631  -4.312  -1.173  0.00  0.00    +0.002 A 
ATOM     17  C   UNL     1       4.336  -3.373  -0.423  0.00  0.00    +0.027 A 
BRANCH  13  18
ATOM     18  O   UNL     1       7.204  -5.482   0.646  0.00  0.00    -0.490 OA
BRANCH  18  19
ATOM     19  C   UNL     1       7.419  -5.181   2.031  0.00  0.00    +0.231 C 
BRANCH  19  20
ATOM     20  C   UNL     1       8.482  -6.129   2.600  0.00  0.00    +0.062 C 
BRANCH  20  21
ATOM     21  C   UNL     1       8.872  -5.716   4.020  0.00  0.00    +0.126 C 
BRANCH  21  22
ATOM     22  N   UNL     1       9.931  -6.526   4.591  0.00  0.00    -0.337 N 
ATOM     23  C   UNL     1      11.270  -6.267   4.508  0.00  0.00    +0.199 A 
ATOM     24  N   UNL     1      11.973  -7.144   5.189  0.00  0.00    -0.244 NA
ATOM     25  C   UNL     1      11.051  -7.991   5.746  0.00  0.00    +0.130 A 
ATOM     26  C   UNL     1       9.773  -7.620   5.395  0.00  0.00    +0.106 A 
ENDBRANCH  21  22
ENDBRANCH  20  21
ENDBRANCH  19  20
ENDBRANCH  18  19
ENDBRANCH  13  18
ENDBRANCH   4  12
BRANCH   9  27
ATOM     27  C   UNL     1       7.845   3.045   1.947  0.00  0.00    +0.090 C 
ATOM     28  C   UNL     1       9.075   3.681   1.291  0.00  0.00    +0.025 C 
ATOM     29  C   UNL     1       9.151   5.090   1.890  0.00  0.00    +0.002 C 
ATOM     30  C   UNL     1       8.109   5.135   3.009  0.00  0.00    +0.002 C 
ATOM     31  C   UNL     1       7.829   3.674   3.336  0.00  0.00    +0.025 C 
ENDBRANCH   9  27
BRANCH   1  33
ATOM     32  N   UNL     1       2.094   1.274   0.533  0.00  0.00    -0.188 NA
ATOM     33  C   UNL     1       3.160   0.914   0.839  0.00  0.00    +0.140 C 
ENDBRANCH   1  33
TORSDOF 8
