REMARK  Name = 
REMARK  21 active torsions:
REMARK  status: ('A' for Active; 'I' for Inactive)
REMARK    1  A    between atoms: C_1  and  C_2
REMARK    2  A    between atoms: C_2  and  O_3
REMARK    3  A    between atoms: O_3  and  C_4
REMARK    4  A    between atoms: C_4  and  C_6
REMARK    5  A    between atoms: C_6  and  C_7
REMARK    6  A    between atoms: C_6  and  C_17
REMARK    7  A    between atoms: C_6  and  C_29
REMARK    8  A    between atoms: C_7  and  C_8
REMARK    9  A    between atoms: C_8  and  N_9
REMARK   10  A    between atoms: C_10  and  O_12
REMARK   11  A    between atoms: O_12  and  C_13
REMARK   12  A    between atoms: C_13  and  C_14
REMARK   13  A    between atoms: C_13  and  C_15
REMARK   14  A    between atoms: C_13  and  C_16
REMARK   15  A    between atoms: C_17  and  C_18
REMARK   16  A    between atoms: C_21  and  N_22
REMARK   17  A    between atoms: N_22  and  S_23
REMARK   18  A    between atoms: S_23  and  O_24
REMARK   19  A    between atoms: C_29  and  O_31
REMARK   20  A    between atoms: O_31  and  C_32
REMARK   21  A    between atoms: C_32  and  C_33
REMARK                            x       y       z     vdW  Elec       q    Type
REMARK                         _______ _______ _______ _____ _____    ______ ____
ROOT
ATOM      1  C   UNL     1       4.771  -2.845  -0.816  0.00  0.00    +0.169 C 
ENDROOT
BRANCH   1   2
ATOM      2  C   UNL     1       6.293  -2.852  -0.973  0.00  0.00    +0.325 C 
ATOM      3  O   UNL     1       6.952  -1.897  -1.361  0.00  0.00    -0.250 OA
BRANCH   2   4
ATOM      4  O   UNL     1       6.822  -4.086  -0.734  0.00  0.00    -0.464 OA
BRANCH   4   5
ATOM      5  C   UNL     1       8.163  -4.307  -1.193  0.00  0.00    +0.229 C 
ATOM      6  C   UNL     1       8.073  -4.821  -2.616  0.00  0.00    +0.048 C 
ENDBRANCH   4   5
ENDBRANCH   2   4
ENDBRANCH   1   2
BRANCH   1   7
ATOM      7  C   UNL     1       4.402  -1.444  -0.351  0.00  0.00    +0.325 C 
ATOM      8  O   UNL     1       4.209  -1.142   0.819  0.00  0.00    -0.250 OA
BRANCH   7   9
ATOM      9  O   UNL     1       4.280  -0.594  -1.402  0.00  0.00    -0.464 OA
BRANCH   9  11
ATOM     10  C   UNL     1       5.027   1.593  -0.741  0.00  0.00    +0.048 C 
ATOM     11  C   UNL     1       3.839   0.737  -1.118  0.00  0.00    +0.229 C 
ENDBRANCH   9  11
ENDBRANCH   7   9
ENDBRANCH   1   7
BRANCH   1  12
ATOM     12  C   UNL     1       4.214  -3.145  -2.256  0.00  0.00    +0.064 C 
BRANCH  12  13
ATOM     13  C   UNL     1       2.734  -2.998  -2.592  0.00  0.00    -0.046 A 
ATOM     14  C   UNL     1       2.262  -3.457  -3.834  0.00  0.00    +0.005 A 
ATOM     15  C   UNL     1       0.888  -3.473  -4.122  0.00  0.00    +0.025 A 
ATOM     16  C   UNL     1      -0.024  -3.088  -3.144  0.00  0.00    +0.050 A 
ATOM     17  C   UNL     1       0.431  -2.573  -1.943  0.00  0.00    +0.025 A 
ATOM     18  C   UNL     1       1.794  -2.451  -1.714  0.00  0.00    +0.005 A 
BRANCH  16  19
ATOM     19  N   UNL     1      -1.427  -3.083  -3.373  0.00  0.00    -0.197 N 
ATOM     20  H   UNL     1      -1.772  -3.813  -3.994  0.00  0.00    +0.176 HD
BRANCH  19  21
ATOM     21  S   UNL     1      -2.092  -1.600  -3.810  0.00  0.00    +0.164 S 
ATOM     22  O   UNL     1      -3.519  -1.783  -3.878  0.00  0.00    -0.127 OA
ATOM     23  O   UNL     1      -1.341  -1.080  -4.928  0.00  0.00    -0.127 OA
BRANCH  21  24
ATOM     24  O   UNL     1      -1.763  -0.634  -2.566  0.00  0.00    -0.238 OA
ATOM     25  H   UNL     1      -0.907  -0.199  -2.755  0.00  0.00    +0.246 HD
ENDBRANCH  21  24
ENDBRANCH  19  21
ENDBRANCH  16  19
ENDBRANCH  12  13
ENDBRANCH   1  12
BRANCH   1  26
ATOM     26  C   UNL     1       4.372  -3.926   0.255  0.00  0.00    +0.048 C 
BRANCH  26  27
ATOM     27  C   UNL     1       2.894  -4.055   0.599  0.00  0.00    +0.109 C 
BRANCH  27  28
ATOM     28  N   UNL     1       2.586  -5.184   1.435  0.00  0.00    -0.281 N 
ATOM     29  H   UNL     1       2.251  -5.054   2.379  0.00  0.00    +0.152 HD
ATOM     30  C   UNL     1       2.282  -6.376   0.841  0.00  0.00    +0.401 C 
ATOM     31  O   UNL     1       2.478  -6.618  -0.340  0.00  0.00    -0.226 OA
BRANCH  30  32
ATOM     32  O   UNL     1       1.719  -7.209   1.744  0.00  0.00    -0.445 OA
BRANCH  32  33
ATOM     33  C   UNL     1       1.370  -8.549   1.315  0.00  0.00    +0.107 C 
ATOM     34  C   UNL     1       0.271  -8.534   0.242  0.00  0.00    +0.055 C 
ATOM     35  C   UNL     1       0.808  -9.241   2.565  0.00  0.00    +0.055 C 
ATOM     36  C   UNL     1       2.624  -9.307   0.861  0.00  0.00    +0.055 C 
ENDBRANCH  32  33
ENDBRANCH  30  32
ENDBRANCH  27  28
ENDBRANCH  26  27
ENDBRANCH   1  26
TORSDOF 16
