REMARK  Name = 
REMARK  7 active torsions:
REMARK  status: ('A' for Active; 'I' for Inactive)
REMARK    1  A    between atoms: C_1  and  N_2
REMARK    2  A    between atoms: C_4  and  C_13
REMARK    3  A    between atoms: C_6  and  C_7
REMARK    4  A    between atoms: C_8  and  C_9
REMARK    5  A    between atoms: N_11  and  O_12
REMARK    6  A    between atoms: C_13  and  C_15
REMARK    7  A    between atoms: C_15  and  C_16
REMARK                            x       y       z     vdW  Elec       q    Type
REMARK                         _______ _______ _______ _____ _____    ______ ____
ROOT
ATOM      1  C   UNL     1       0.980   0.044   0.035  0.00  0.00    +0.149 C 
ATOM      2  N   UNL     1       2.424  -0.091   0.060  0.00  0.00    -0.349 N 
ATOM      3  C   UNL     1       3.152  -1.266   0.028  0.00  0.00    +0.042 A 
ATOM      4  C   UNL     1       4.486  -0.894   0.030  0.00  0.00    +0.038 A 
ATOM      5  C   UNL     1       4.581   0.519   0.128  0.00  0.00    +0.036 A 
ATOM      6  C   UNL     1       3.282   0.987   0.133  0.00  0.00    +0.097 A 
ENDROOT
BRANCH   3   7
ATOM      7  C   UNL     1       2.519  -2.542   0.004  0.00  0.00    +0.031 C 
ATOM      8  C   UNL     1       3.258  -3.663   0.034  0.00  0.00    +0.071 C 
BRANCH   8   9
ATOM      9  C   UNL     1       2.619  -4.998   0.028  0.00  0.00    +0.259 C 
ATOM     10  N   UNL     1       3.521  -6.030   0.060  0.00  0.00    -0.194 N 
ATOM     11  H   UNL     1       4.530  -5.939   0.075  0.00  0.00    +0.183 HD
ATOM     12  O   UNL     1       1.406  -5.170  -0.001  0.00  0.00    -0.269 OA
BRANCH  10  13
ATOM     13  O   UNL     1       2.995  -7.339   0.055  0.00  0.00    -0.295 OA
ATOM     14  H   UNL     1       2.028  -7.176   0.023  0.00  0.00    +0.241 HD
ENDBRANCH  10  13
ENDBRANCH   8   9
ENDBRANCH   3   7
BRANCH   5  15
ATOM     15  C   UNL     1       5.826   1.281   0.210  0.00  0.00    +0.169 C 
ATOM     16  O   UNL     1       6.859   0.838  -0.297  0.00  0.00    -0.292 OA
BRANCH  15  17
ATOM     17  C   UNL     1       5.854   2.574   1.000  0.00  0.00    +0.114 C 
BRANCH  17  18
ATOM     18  C   UNL     1       5.568   3.840   0.233  0.00  0.00    -0.040 A 
ATOM     19  C   UNL     1       5.897   3.995  -1.121  0.00  0.00    +0.004 A 
ATOM     20  C   UNL     1       5.658   5.208  -1.773  0.00  0.00    +0.000 A 
ATOM     21  C   UNL     1       5.108   6.283  -1.077  0.00  0.00    +0.000 A 
ATOM     22  C   UNL     1       4.806   6.152   0.275  0.00  0.00    +0.000 A 
ATOM     23  C   UNL     1       5.040   4.941   0.927  0.00  0.00    +0.004 A 
ENDBRANCH  17  18
ENDBRANCH  15  17
ENDBRANCH   5  15
TORSDOF 6
