REMARK  Name = 
REMARK  3 active torsions:
REMARK  status: ('A' for Active; 'I' for Inactive)
REMARK    1  A    between atoms: C_5  and  C_8
REMARK    2  A    between atoms: C_8  and  C_14
REMARK    3  A    between atoms: C_17  and  C_20
REMARK                            x       y       z     vdW  Elec       q    Type
REMARK                         _______ _______ _______ _____ _____    ______ ____
ROOT
ATOM      1  C   UNL     1       6.998   0.153  -0.730  0.00  0.00    +0.023 C 
ATOM      2  C   UNL     1       7.242   1.189  -1.879  0.00  0.00    +0.031 C 
ATOM      3  C   UNL     1       6.561   0.811  -3.191  0.00  0.00    +0.082 C 
ATOM      4  N   UNL     1       7.036  -0.486  -3.664  0.00  0.00    -0.316 NA
ATOM      5  H   UNL     1       6.550  -0.726  -4.528  0.00  0.00    +0.122 HD
ATOM      6  C   UNL     1       6.812  -1.532  -2.671  0.00  0.00    +0.082 C 
ATOM      7  C   UNL     1       7.488  -1.203  -1.333  0.00  0.00    +0.031 C 
ENDROOT
BRANCH   1  12
ATOM      8 CL   UNL     1       1.230   0.126   1.287  0.00  0.00    -0.084 Cl
ATOM      9  C   UNL     1       2.834   0.124   0.666  0.00  0.00    +0.041 A 
ATOM     10  C   UNL     1       3.439   1.318   0.296  0.00  0.00    +0.020 A 
ATOM     11  C   UNL     1       4.759   1.320  -0.170  0.00  0.00    +0.006 A 
ATOM     12  C   UNL     1       5.496   0.126  -0.299  0.00  0.00    -0.037 A 
ATOM     13  C   UNL     1       4.847  -1.069   0.079  0.00  0.00    +0.006 A 
ATOM     14  C   UNL     1       3.532  -1.071   0.557  0.00  0.00    +0.020 A 
ENDBRANCH   1  12
BRANCH   1  15
ATOM     15  C   UNL     1       7.848   0.485   0.534  0.00  0.00    -0.037 A 
ATOM     16  C   UNL     1       8.655   1.632   0.626  0.00  0.00    +0.005 A 
ATOM     17  C   UNL     1       9.345   1.955   1.803  0.00  0.00    +0.009 A 
ATOM     18  C   UNL     1       9.244   1.149   2.939  0.00  0.00    -0.015 A 
ATOM     19  C   UNL     1       8.468  -0.010   2.859  0.00  0.00    +0.009 A 
ATOM     20  C   UNL     1       7.793  -0.342   1.674  0.00  0.00    +0.005 A 
BRANCH  18  21
ATOM     21  C   UNL     1       9.895   1.528   4.183  0.00  0.00    +0.019 A 
ATOM     22  C   UNL     1       9.528   1.287   5.528  0.00  0.00    +0.142 A 
ATOM     23  N   UNL     1      10.384   1.824   6.402  0.00  0.00    -0.182 NA
ATOM     24  N   UNL     1      11.304   2.410   5.621  0.00  0.00    -0.284 N 
ATOM     25  H   UNL     1      12.073   2.900   6.067  0.00  0.00    +0.188 HD
ATOM     26  C   UNL     1      11.059   2.260   4.286  0.00  0.00    +0.113 A 
ENDBRANCH  18  21
ENDBRANCH   1  15
TORSDOF 3
