REMARK  Name = 
REMARK  5 active torsions:
REMARK  status: ('A' for Active; 'I' for Inactive)
REMARK    1  A    between atoms: C_1  and  O_2
REMARK    2  A    between atoms: O_2  and  C_3
REMARK    3  A    between atoms: C_5  and  C_9
REMARK    4  A    between atoms: C_9  and  O_10
REMARK    5  A    between atoms: C_18  and  C_20
REMARK                            x       y       z     vdW  Elec       q    Type
REMARK                         _______ _______ _______ _____ _____    ______ ____
ROOT
ATOM      1  C   UNL     1       2.686   4.732   0.274  0.00  0.00    +0.133 C 
ATOM      2  C   UNL     1       1.514   5.001   0.866  0.00  0.00    +0.046 C 
ATOM      3  C   UNL     1       0.856   6.281   1.175  0.00  0.00    +0.039 A 
ATOM      4  C   UNL     1      -0.138   5.899   2.099  0.00  0.00    +0.161 A 
ATOM      5  N   UNL     1      -1.008   6.721   2.702  0.00  0.00    -0.236 NA
ATOM      6  C   UNL     1      -0.907   8.009   2.336  0.00  0.00    +0.114 A 
ATOM      7  C   UNL     1      -0.023   8.476   1.366  0.00  0.00    +0.029 A 
ATOM      8  N   UNL     1      -0.257   4.511   2.299  0.00  0.00    -0.235 NA
ATOM      9  C   UNL     1       0.881   7.603   0.715  0.00  0.00    -0.005 A 
ATOM     10  C   UNL     1       0.678   3.990   1.561  0.00  0.00    +0.125 C 
ENDROOT
BRANCH   9  11
ATOM     11  C   UNL     1       1.656   8.115  -0.448  0.00  0.00    -0.012 A 
ATOM     12  C   UNL     1       1.904   7.327  -1.586  0.00  0.00    +0.047 A 
ATOM     13  C   UNL     1       2.617   7.820  -2.680  0.00  0.00    +0.127 A 
ATOM     14  F   UNL     1       2.910   6.995  -3.694  0.00  0.00    -0.205 F 
ATOM     15  C   UNL     1       3.019   9.140  -2.736  0.00  0.00    +0.076 A 
ATOM     16  C   UNL     1       2.737   9.953  -1.653  0.00  0.00    +0.127 A 
ATOM     17  F   UNL     1       3.069  11.250  -1.700  0.00  0.00    -0.205 F 
ATOM     18  C   UNL     1       2.099   9.452  -0.514  0.00  0.00    +0.047 A 
ENDBRANCH   9  11
BRANCH   1  23
ATOM     19  C   UNL     1       5.057   1.840  -0.347  0.00  0.00    +0.121 A 
ATOM     20  C   UNL     1       4.216   0.899  -0.936  0.00  0.00    +0.045 A 
ATOM     21  C   UNL     1       2.863   1.183  -1.107  0.00  0.00    +0.004 A 
ATOM     22  C   UNL     1       2.353   2.422  -0.709  0.00  0.00    +0.012 A 
ATOM     23  C   UNL     1       3.182   3.381  -0.107  0.00  0.00    +0.021 A 
ATOM     24  C   UNL     1       4.544   3.079   0.046  0.00  0.00    +0.057 A 
BRANCH  19  26
ATOM     25  C   UNL     1       7.061   2.096   0.860  0.00  0.00    +0.277 C 
ATOM     26  O   UNL     1       6.371   1.475  -0.223  0.00  0.00    -0.495 OA
ENDBRANCH  19  26
ENDBRANCH   1  23
BRANCH   1  27
ATOM     27  O   UNL     1       3.574   5.759   0.009  0.00  0.00    -0.506 OA
ATOM     28  H   UNL     1       4.178   5.483  -0.702  0.00  0.00    +0.292 HD
ENDBRANCH   1  27
TORSDOF 4
