REMARK  Name = 
REMARK  3 active torsions:
REMARK  status: ('A' for Active; 'I' for Inactive)
REMARK    1  A    between atoms: C_1  and  C_2
REMARK    2  A    between atoms: N_10  and  C_17
REMARK    3  A    between atoms: C_13  and  O_14
REMARK                            x       y       z     vdW  Elec       q    Type
REMARK                         _______ _______ _______ _____ _____    ______ ____
ROOT
ATOM      1  C   UNL     1       1.060  -0.076   0.213  0.00  0.00    +0.044 C 
ATOM      2  C   UNL     1       2.555   0.002   0.116  0.00  0.00    -0.046 A 
ATOM      3  C   UNL     1       3.318  -1.172   0.194  0.00  0.00    +0.059 A 
ATOM      4  C   UNL     1       4.706  -1.153   0.015  0.00  0.00    +0.187 A 
ATOM      5  N   UNL     1       5.378  -2.382   0.027  0.00  0.00    -0.042 NA
ATOM      6  C   UNL     1       6.668  -2.412  -0.076  0.00  0.00    +0.334 C 
ATOM      7  C   UNL     1       7.534  -1.153  -0.127  0.00  0.00    +0.235 C 
ATOM      8  C   UNL     1       6.764   0.073  -0.563  0.00  0.00    +0.211 C 
ATOM      9  O   UNL     1       7.317   1.070  -1.025  0.00  0.00    -0.288 OA
ATOM     10  C   UNL     1       8.625  -1.607  -1.094  0.00  0.00    +0.099 C 
ATOM     11  C   UNL     1       8.729  -3.131  -0.901  0.00  0.00    +0.236 C 
ATOM     12  N   UNL     1       7.480  -3.518  -0.249  0.00  0.00    -0.188 N 
ATOM     13  C   UNL     1       5.320   0.069  -0.275  0.00  0.00    +0.072 A 
ATOM     14  C   UNL     1       4.583   1.259  -0.309  0.00  0.00    +0.016 A 
ATOM     15  C   UNL     1       3.202   1.222  -0.107  0.00  0.00    +0.004 A 
ENDROOT
BRANCH  12  16
ATOM     16  C   UNL     1       7.225  -4.851   0.107  0.00  0.00    +0.121 A 
ATOM     17  C   UNL     1       8.160  -5.877  -0.132  0.00  0.00    +0.049 A 
ATOM     18  C   UNL     1       7.920  -7.207   0.240  0.00  0.00    +0.004 A 
ATOM     19  C   UNL     1       6.729  -7.554   0.865  0.00  0.00    +0.000 A 
ATOM     20  C   UNL     1       5.788  -6.568   1.126  0.00  0.00    +0.004 A 
ATOM     21  C   UNL     1       6.041  -5.239   0.758  0.00  0.00    +0.049 A 
ENDBRANCH  12  16
BRANCH   7  22
ATOM     22  O   UNL     1       8.137  -0.859   1.134  0.00  0.00    -0.370 OA
ATOM     23  H   UNL     1       8.598  -0.002   1.026  0.00  0.00    +0.211 HD
ENDBRANCH   7  22
TORSDOF 2
