REMARK  Name = 
REMARK  10 active torsions:
REMARK  status: ('A' for Active; 'I' for Inactive)
REMARK    1  A    between atoms: C_1  and  O_2
REMARK    2  A    between atoms: O_2  and  C_3
REMARK    3  A    between atoms: C_5  and  N_6
REMARK    4  A    between atoms: N_13  and  C_14
REMARK    5  A    between atoms: C_19  and  C_20
REMARK    6  A    between atoms: C_19  and  C_21
REMARK    7  A    between atoms: C_29  and  O_30
REMARK    8  A    between atoms: O_30  and  C_31
REMARK    9  A    between atoms: C_32  and  O_33
REMARK   10  A    between atoms: O_33  and  C_34
REMARK                            x       y       z     vdW  Elec       q    Type
REMARK                         _______ _______ _______ _____ _____    ______ ____
ROOT
ATOM      1  N   UNL     1       2.623   4.951  -0.251  0.00  0.00    -0.283 N 
ATOM      2  H   UNL     1       1.660   5.124   0.003  0.00  0.00    +0.155 HD
ATOM      3  C   UNL     1       3.249   6.179  -0.479  0.00  0.00    +0.221 A 
ATOM      4  N   UNL     1       4.508   6.257  -0.942  0.00  0.00    -0.196 NA
ATOM      5  C   UNL     1       5.069   7.462  -1.205  0.00  0.00    +0.165 A 
ATOM      6  N   UNL     1       6.342   7.547  -1.822  0.00  0.00    -0.282 N 
ATOM      7  H   UNL     1       6.736   8.477  -1.901  0.00  0.00    +0.155 HD
ATOM      8  C   UNL     1       4.364   8.618  -0.928  0.00  0.00    +0.181 A 
ATOM      9  F   UNL     1       4.880   9.835  -1.145  0.00  0.00    -0.200 F 
ATOM     10  C   UNL     1       3.085   8.465  -0.450  0.00  0.00    +0.156 A 
ATOM     11  N   UNL     1       2.501   7.265  -0.241  0.00  0.00    -0.220 NA
ENDROOT
BRANCH   6  12
ATOM     12  C   UNL     1       6.999   6.619  -2.653  0.00  0.00    +0.126 A 
ATOM     13  N   UNL     1       8.078   7.030  -3.372  0.00  0.00    -0.213 NA
ATOM     14  C   UNL     1       8.577   6.168  -4.303  0.00  0.00    +0.169 A 
ATOM     15  C   UNL     1       8.017   4.924  -4.578  0.00  0.00    +0.162 A 
ATOM     16  O   UNL     1       8.404   4.076  -5.569  0.00  0.00    -0.474 OA
ATOM     17  C   UNL     1       9.304   4.648  -6.519  0.00  0.00    +0.180 C 
ATOM     18  C   UNL     1      10.328   5.615  -5.875  0.00  0.00    +0.262 C 
ATOM     19  O   UNL     1      11.506   5.692  -6.210  0.00  0.00    -0.271 OA
ATOM     20  C   UNL     1       9.965   3.445  -7.196  0.00  0.00    +0.065 C 
ATOM     21  C   UNL     1       8.516   5.431  -7.586  0.00  0.00    +0.065 C 
ATOM     22  C   UNL     1       7.018   4.465  -3.757  0.00  0.00    +0.052 A 
ATOM     23  N   UNL     1       9.773   6.484  -4.956  0.00  0.00    -0.264 N 
ATOM     24  H   UNL     1      10.334   7.234  -4.581  0.00  0.00    +0.156 HD
ATOM     25  C   UNL     1       6.527   5.311  -2.779  0.00  0.00    +0.047 A 
ENDBRANCH   6  12
BRANCH   1  30
ATOM     26  C   UNL     1       4.892   2.021   0.415  0.00  0.00    +0.167 A 
ATOM     27  C   UNL     1       3.954   0.987   0.622  0.00  0.00    +0.204 A 
ATOM     28  C   UNL     1       2.586   1.302   0.524  0.00  0.00    +0.167 A 
ATOM     29  C   UNL     1       2.184   2.624   0.236  0.00  0.00    +0.073 A 
ATOM     30  C   UNL     1       3.102   3.664   0.046  0.00  0.00    +0.041 A 
ATOM     31  C   UNL     1       4.453   3.329   0.113  0.00  0.00    +0.073 A 
BRANCH  26  33
ATOM     32  C   UNL     1       7.116   2.775   0.826  0.00  0.00    +0.277 C 
ATOM     33  O   UNL     1       6.231   1.719   0.465  0.00  0.00    -0.491 OA
ENDBRANCH  26  33
BRANCH  27  34
ATOM     34  O   UNL     1       4.244  -0.314   0.932  0.00  0.00    -0.488 OA
ATOM     35  C   UNL     1       5.577  -0.774   1.065  0.00  0.00    +0.277 C 
ENDBRANCH  27  34
BRANCH  28  36
ATOM     36  O   UNL     1       1.498   0.474   0.685  0.00  0.00    -0.491 OA
ATOM     37  C   UNL     1       1.699  -0.906   0.955  0.00  0.00    +0.277 C 
ENDBRANCH  28  36
ENDBRANCH   1  30
TORSDOF 5
