REMARK  Name = 
REMARK  7 active torsions:
REMARK  status: ('A' for Active; 'I' for Inactive)
REMARK    1  A    between atoms: C_1  and  N_2
REMARK    2  A    between atoms: N_2  and  C_3
REMARK    3  A    between atoms: N_2  and  C_4
REMARK    4  A    between atoms: C_7  and  N_8
REMARK    5  A    between atoms: C_11  and  C_15
REMARK    6  A    between atoms: C_16  and  C_17
REMARK    7  A    between atoms: C_19  and  C_20
REMARK                            x       y       z     vdW  Elec       q    Type
REMARK                         _______ _______ _______ _____ _____    ______ ____
ROOT
ATOM      1  N   UNL     1       5.332   2.219   4.245  0.00  0.00    -0.284 N 
ATOM      2  H   UNL     1       5.579   3.196   4.164  0.00  0.00    +0.155 HD
ATOM      3  C   UNL     1       6.136   1.612   5.202  0.00  0.00    +0.220 A 
ATOM      4  N   UNL     1       6.997   2.439   5.814  0.00  0.00    -0.223 NA
ATOM      5  C   UNL     1       7.720   1.930   6.821  0.00  0.00    +0.116 A 
ATOM      6  C   UNL     1       7.602   0.634   7.246  0.00  0.00    +0.049 A 
ATOM      7  C   UNL     1       6.727  -0.166   6.538  0.00  0.00    +0.084 A 
ATOM      8  N   UNL     1       5.986   0.313   5.521  0.00  0.00    -0.214 NA
ENDROOT
BRANCH   7   9
ATOM      9  C   UNL     1       6.609  -1.609   6.799  0.00  0.00    +0.060 A 
ATOM     10  S   UNL     1       8.016  -2.470   7.329  0.00  0.00    -0.071 S 
ATOM     11  C   UNL     1       7.144  -3.932   7.341  0.00  0.00    +0.076 A 
ATOM     12  C   UNL     1       7.841  -5.192   7.708  0.00  0.00    +0.073 C 
ATOM     13  N   UNL     1       5.880  -3.838   7.001  0.00  0.00    -0.249 NA
ATOM     14  C   UNL     1       5.561  -2.518   6.671  0.00  0.00    +0.055 A 
ATOM     15  C   UNL     1       4.152  -2.279   6.245  0.00  0.00    +0.067 C 
ENDBRANCH   7   9
BRANCH   1  19
ATOM     16  C   UNL     1       3.127   0.626   0.965  0.00  0.00    +0.029 A 
ATOM     17  C   UNL     1       4.283  -0.007   1.450  0.00  0.00    +0.025 A 
ATOM     18  C   UNL     1       5.017   0.497   2.533  0.00  0.00    +0.025 A 
ATOM     19  C   UNL     1       4.643   1.681   3.159  0.00  0.00    +0.034 A 
ATOM     20  C   UNL     1       3.505   2.335   2.686  0.00  0.00    +0.025 A 
ATOM     21  C   UNL     1       2.760   1.811   1.620  0.00  0.00    +0.025 A 
BRANCH  16  23
ATOM     22  C   UNL     1       1.185   0.770  -0.570  0.00  0.00    +0.129 C 
ATOM     23  N   UNL     1       2.398   0.114  -0.102  0.00  0.00    -0.336 N 
ATOM     24  C   UNL     1       2.755  -1.168  -0.700  0.00  0.00    +0.129 C 
ENDBRANCH  16  23
ENDBRANCH   1  19
TORSDOF 3
