REMARK  Name = 
REMARK  7 active torsions:
REMARK  status: ('A' for Active; 'I' for Inactive)
REMARK    1  A    between atoms: C_1  and  C_2
REMARK    2  A    between atoms: C_2  and  C_3
REMARK    3  A    between atoms: C_2  and  C_4
REMARK    4  A    between atoms: C_2  and  N_5
REMARK    5  A    between atoms: N_5  and  S_6
REMARK    6  A    between atoms: S_6  and  C_9
REMARK    7  A    between atoms: C_12  and  C_15
REMARK                            x       y       z     vdW  Elec       q    Type
REMARK                         _______ _______ _______ _____ _____    ______ ____
ROOT
ATOM      1  C   UNL     1       5.300   2.328   2.210  0.00  0.00    +0.105 A 
ATOM      2  C   UNL     1       6.224   2.120   3.234  0.00  0.00    +0.029 A 
ATOM      3  C   UNL     1       6.609   3.193   4.038  0.00  0.00    +0.010 A 
ATOM      4  C   UNL     1       6.067   4.483   3.860  0.00  0.00    -0.018 A 
ATOM      5  C   UNL     1       5.086   4.639   2.862  0.00  0.00    +0.010 A 
ATOM      6  C   UNL     1       4.700   3.574   2.041  0.00  0.00    +0.029 A 
ENDROOT
BRANCH   4   7
ATOM      7  C   UNL     1       6.535   5.629   4.680  0.00  0.00    -0.017 A 
ATOM      8  C   UNL     1       6.620   6.928   4.144  0.00  0.00    +0.010 A 
ATOM      9  C   UNL     1       7.095   8.027   4.880  0.00  0.00    +0.028 A 
ATOM     10  C   UNL     1       7.514   7.779   6.187  0.00  0.00    +0.068 A 
ATOM     11  N   UNL     1       8.038   8.592   7.152  0.00  0.00    -0.275 N 
ATOM     12  H   UNL     1       8.226   9.585   7.089  0.00  0.00    +0.189 HD
ATOM     13  N   UNL     1       8.338   7.964   8.303  0.00  0.00    -0.158 NA
ATOM     14  C   UNL     1       7.972   6.705   8.079  0.00  0.00    +0.146 A 
ATOM     15  N   UNL     1       8.093   5.731   8.991  0.00  0.00    -0.341 N 
ATOM     16  H   UNL     1       8.038   4.754   8.738  0.00  0.00    +0.144 HD
ATOM     17  H   UNL     1       8.649   5.931   9.813  0.00  0.00    +0.144 HD
ATOM     18  C   UNL     1       7.454   6.518   6.772  0.00  0.00    +0.041 A 
ATOM     19  C   UNL     1       6.944   5.443   6.018  0.00  0.00    +0.022 A 
ENDBRANCH   4   7
BRANCH   1  20
ATOM     20  S   UNL     1       4.916   0.982   1.122  0.00  0.00    +0.059 S 
ATOM     21  O   UNL     1       4.647  -0.158   1.971  0.00  0.00    -0.153 OA
ATOM     22  O   UNL     1       3.959   1.446   0.145  0.00  0.00    -0.153 OA
BRANCH  20  23
ATOM     23  N   UNL     1       6.396   0.673   0.367  0.00  0.00    -0.185 NA
ATOM     24  H   UNL     1       7.084   0.332   1.038  0.00  0.00    +0.149 HD
BRANCH  23  26
ATOM     25  C   UNL     1       7.074   2.925  -0.473  0.00  0.00    +0.029 C 
ATOM     26  C   UNL     1       6.944   1.436  -0.782  0.00  0.00    +0.032 C 
ATOM     27  C   UNL     1       8.356   0.877  -1.055  0.00  0.00    +0.029 C 
ATOM     28  C   UNL     1       6.103   1.194  -2.040  0.00  0.00    +0.029 C 
ENDBRANCH  23  26
ENDBRANCH  20  23
ENDBRANCH   1  20
TORSDOF 4
