REMARK  Name = 
REMARK  13 active torsions:
REMARK  status: ('A' for Active; 'I' for Inactive)
REMARK    1  A    between atoms: O_1  and  C_2
REMARK    2  A    between atoms: C_2  and  C_3
REMARK    3  A    between atoms: C_3  and  C_4
REMARK    4  A    between atoms: C_4  and  C_5
REMARK    5  A    between atoms: C_5  and  C_6
REMARK    6  A    between atoms: C_6  and  C_7
REMARK    7  A    between atoms: C_6  and  C_10
REMARK    8  A    between atoms: C_7  and  C_8
REMARK    9  A    between atoms: C_8  and  O_9
REMARK   10  A    between atoms: C_10  and  C_11
REMARK   11  A    between atoms: C_11  and  C_12
REMARK   12  A    between atoms: C_12  and  C_13
REMARK   13  A    between atoms: C_13  and  O_14
REMARK                            x       y       z     vdW  Elec       q    Type
REMARK                         _______ _______ _______ _____ _____    ______ ____
ROOT
ATOM      1  C   UNL     1       6.402  -1.687   2.181  0.00  0.00    -0.009 C 
ENDROOT
BRANCH   1   2
ATOM      2  C   UNL     1       4.851  -1.735   2.130  0.00  0.00    +0.004 C 
BRANCH   2   3
ATOM      3  C   UNL     1       4.227  -0.811   1.080  0.00  0.00    +0.002 C 
BRANCH   3   4
ATOM      4  C   UNL     1       2.707  -0.962   1.021  0.00  0.00    +0.028 C 
BRANCH   4   5
ATOM      5  C   UNL     1       2.112  -0.035  -0.031  0.00  0.00    +0.156 C 
BRANCH   5   6
ATOM      6  O   UNL     1       0.699  -0.176  -0.035  0.00  0.00    -0.395 OA
ATOM      7  H   UNL     1       0.353   0.444  -0.699  0.00  0.00    +0.209 HD
ENDBRANCH   5   6
ENDBRANCH   4   5
ENDBRANCH   3   4
ENDBRANCH   2   3
ENDBRANCH   1   2
BRANCH   1   8
ATOM      8  C   UNL     1       6.951  -2.712   3.207  0.00  0.00    +0.004 C 
BRANCH   8   9
ATOM      9  C   UNL     1       6.599  -4.170   2.887  0.00  0.00    +0.002 C 
BRANCH   9  10
ATOM     10  C   UNL     1       7.185  -5.131   3.922  0.00  0.00    +0.028 C 
BRANCH  10  11
ATOM     11  C   UNL     1       6.805  -6.574   3.612  0.00  0.00    +0.156 C 
BRANCH  11  12
ATOM     12  O   UNL     1       7.331  -7.440   4.607  0.00  0.00    -0.395 OA
ATOM     13  H   UNL     1       8.299  -7.351   4.592  0.00  0.00    +0.209 HD
ENDBRANCH  11  12
ENDBRANCH  10  11
ENDBRANCH   9  10
ENDBRANCH   8   9
ENDBRANCH   1   8
BRANCH   1  14
ATOM     14  C   UNL     1       6.898  -0.257   2.509  0.00  0.00    +0.031 C 
BRANCH  14  15
ATOM     15  C   UNL     1       8.413  -0.078   2.490  0.00  0.00    +0.156 C 
BRANCH  15  16
ATOM     16  O   UNL     1       8.737   1.287   2.735  0.00  0.00    -0.395 OA
ATOM     17  H   UNL     1       8.369   1.814   2.005  0.00  0.00    +0.209 HD
ENDBRANCH  15  16
ENDBRANCH  14  15
ENDBRANCH   1  14
TORSDOF 13
