REMARK  Name = 
REMARK  7 active torsions:
REMARK  status: ('A' for Active; 'I' for Inactive)
REMARK    1  A    between atoms: C_1  and  O_2
REMARK    2  A    between atoms: O_2  and  C_3
REMARK    3  A    between atoms: N_9  and  S_10
REMARK    4  A    between atoms: S_10  and  C_13
REMARK    5  A    between atoms: C_22  and  C_24
REMARK    6  A    between atoms: C_27  and  O_28
REMARK    7  A    between atoms: O_28  and  C_29
REMARK                            x       y       z     vdW  Elec       q    Type
REMARK                         _______ _______ _______ _____ _____    ______ ____
ROOT
ATOM      1  C   UNL     1       2.970  -1.277  -0.585  0.00  0.00    +0.123 A 
ATOM      2  C   UNL     1       4.063  -1.020  -1.434  0.00  0.00    +0.058 A 
ATOM      3  C   UNL     1       4.759  -2.043  -2.115  0.00  0.00    +0.032 A 
ATOM      4  C   UNL     1       4.269  -3.327  -1.837  0.00  0.00    +0.165 A 
ATOM      5  O   UNL     1       4.704  -4.510  -2.366  0.00  0.00    -0.423 OA
ATOM      6  C   UNL     1       3.959  -5.460  -1.742  0.00  0.00    +0.308 A 
ATOM      7  N   UNL     1       3.118  -4.996  -0.847  0.00  0.00    -0.194 NA
ATOM      8  N   UNL     1       4.166  -6.831  -1.964  0.00  0.00    -0.169 N 
ATOM      9  H   UNL     1       3.969  -7.380  -1.131  0.00  0.00    +0.178 HD
ATOM     10  C   UNL     1       3.250  -3.631  -0.951  0.00  0.00    +0.115 A 
ATOM     11  C   UNL     1       2.559  -2.590  -0.318  0.00  0.00    +0.077 A 
ENDROOT
BRANCH   3  12
ATOM     12  C   UNL     1       5.909  -1.821  -3.005  0.00  0.00    +0.004 A 
ATOM     13  C   UNL     1       6.840  -0.794  -2.799  0.00  0.00    +0.015 A 
ATOM     14  C   UNL     1       7.949  -0.661  -3.640  0.00  0.00    +0.068 A 
ATOM     15  C   UNL     1       8.109  -1.568  -4.673  0.00  0.00    +0.214 A 
ATOM     16  N   UNL     1       7.236  -2.558  -4.929  0.00  0.00    -0.221 NA
ATOM     17  C   UNL     1       6.168  -2.651  -4.102  0.00  0.00    +0.123 A 
BRANCH  15  18
ATOM     18  O   UNL     1       9.229  -1.425  -5.466  0.00  0.00    -0.480 OA
ATOM     19  C   UNL     1       9.357  -2.473  -6.424  0.00  0.00    +0.279 C 
ENDBRANCH  15  18
ENDBRANCH   3  12
BRANCH   8  20
ATOM     20  S   UNL     1       3.148  -7.415  -3.180  0.00  0.00    +0.077 S 
ATOM     21  O   UNL     1       1.825  -6.874  -2.967  0.00  0.00    -0.150 OA
ATOM     22  O   UNL     1       3.331  -8.852  -3.236  0.00  0.00    -0.150 OA
BRANCH  20  23
ATOM     23  C   UNL     1       3.775  -6.738  -4.688  0.00  0.00    +0.128 A 
ATOM     24  C   UNL     1       5.069  -7.006  -5.137  0.00  0.00    +0.068 A 
ATOM     25 CL   UNL     1       6.212  -7.965  -4.273  0.00  0.00    -0.082 Cl
ATOM     26  C   UNL     1       5.494  -6.463  -6.355  0.00  0.00    +0.023 A 
ATOM     27  C   UNL     1       4.636  -5.666  -7.119  0.00  0.00    +0.021 A 
ATOM     28  C   UNL     1       3.346  -5.410  -6.665  0.00  0.00    +0.043 A 
ATOM     29 CL   UNL     1       2.288  -4.433  -7.604  0.00  0.00    -0.083 Cl
ATOM     30  C   UNL     1       2.908  -5.940  -5.456  0.00  0.00    +0.050 A 
ENDBRANCH  20  23
ENDBRANCH   8  20
BRANCH   1  32
ATOM     31  C   UNL     1       1.026  -0.254   0.305  0.00  0.00    +0.277 C 
ATOM     32  O   UNL     1       2.409  -0.157  -0.026  0.00  0.00    -0.495 OA
ENDBRANCH   1  32
TORSDOF 5
