REMARK  Name = 
REMARK  6 active torsions:
REMARK  status: ('A' for Active; 'I' for Inactive)
REMARK    1  A    between atoms: C_1  and  N_2
REMARK    2  A    between atoms: N_5  and  N_8
REMARK    3  A    between atoms: N_11  and  C_12
REMARK    4  A    between atoms: C_21  and  C_25
REMARK    5  A    between atoms: C_26  and  C_27
REMARK    6  A    between atoms: C_29  and  C_30
REMARK                            x       y       z     vdW  Elec       q    Type
REMARK                         _______ _______ _______ _____ _____    ______ ____
ROOT
ATOM      1  C   UNL     1       7.466   0.900  -4.611  0.00  0.00    +0.046 A 
ATOM      2  C   UNL     1       8.489   0.454  -5.423  0.00  0.00    +0.053 A 
ATOM      3  C   UNL     1       8.967  -0.947  -5.624  0.00  0.00    +0.200 C 
ATOM      4  C   UNL     1       9.881  -0.846  -6.731  0.00  0.00    +0.076 A 
ATOM      5  C   UNL     1      10.004   0.489  -7.138  0.00  0.00    +0.105 A 
ATOM      6  N   UNL     1      10.799   0.644  -8.186  0.00  0.00    -0.173 NA
ATOM      7  N   UNL     1      11.180  -0.640  -8.447  0.00  0.00    -0.275 N 
ATOM      8  H   UNL     1      11.768  -0.804  -9.256  0.00  0.00    +0.189 HD
ATOM      9  C   UNL     1      10.641  -1.587  -7.592  0.00  0.00    +0.085 A 
ATOM     10  O   UNL     1       8.632  -1.917  -4.968  0.00  0.00    -0.286 OA
ATOM     11  C   UNL     1       9.147   1.313  -6.339  0.00  0.00    +0.015 A 
ATOM     12  C   UNL     1       8.849   2.654  -6.412  0.00  0.00    +0.011 A 
ATOM     13  C   UNL     1       7.868   3.135  -5.537  0.00  0.00    +0.002 A 
ATOM     14  C   UNL     1       7.180   2.269  -4.655  0.00  0.00    +0.024 A 
ENDROOT
BRANCH   9  15
ATOM     15  C   UNL     1      10.816  -3.001  -7.712  0.00  0.00    +0.060 A 
ATOM     16  S   UNL     1       9.494  -4.049  -7.357  0.00  0.00    -0.071 S 
ATOM     17  C   UNL     1      10.481  -5.408  -7.639  0.00  0.00    +0.076 A 
ATOM     18  C   UNL     1       9.934  -6.771  -7.408  0.00  0.00    +0.073 C 
ATOM     19  N   UNL     1      11.705  -5.142  -8.052  0.00  0.00    -0.249 NA
ATOM     20  C   UNL     1      11.911  -3.767  -8.097  0.00  0.00    +0.055 A 
ATOM     21  C   UNL     1      13.275  -3.325  -8.498  0.00  0.00    +0.067 C 
ENDBRANCH   9  15
BRANCH   1  25
ATOM     22  N   UNL     1       4.736  -0.956  -3.116  0.00  0.00    -0.232 N 
ATOM     23  H   UNL     1       5.281  -1.313  -2.340  0.00  0.00    +0.171 HD
ATOM     24  C   UNL     1       5.310   0.023  -3.918  0.00  0.00    +0.318 C 
ATOM     25  N   UNL     1       6.699  -0.012  -3.848  0.00  0.00    -0.268 N 
ATOM     26  H   UNL     1       7.066  -0.962  -3.804  0.00  0.00    +0.156 HD
ATOM     27  O   UNL     1       4.674   0.803  -4.621  0.00  0.00    -0.251 OA
BRANCH  22  32
ATOM     28  C   UNL     1       0.888  -1.785  -0.339  0.00  0.00    +0.105 C 
ATOM     29  N   UNL     1       2.345  -1.644  -0.325  0.00  0.00    -0.303 NA
ATOM     30  C   UNL     1       2.756  -0.303  -0.788  0.00  0.00    +0.101 C 
ATOM     31  C   UNL     1       2.644  -0.079  -2.311  0.00  0.00    +0.121 C 
ATOM     32  N   UNL     1       3.326  -1.113  -3.113  0.00  0.00    -0.223 NA
ATOM     33  C   UNL     1       2.912  -2.457  -2.679  0.00  0.00    +0.121 C 
ATOM     34  C   UNL     1       2.995  -2.680  -1.152  0.00  0.00    +0.101 C 
ENDBRANCH  22  32
ENDBRANCH   1  25
TORSDOF 3
