REMARK  Name = 
REMARK  7 active torsions:
REMARK  status: ('A' for Active; 'I' for Inactive)
REMARK    1  A    between atoms: O_1  and  C_2
REMARK    2  A    between atoms: C_2  and  C_4
REMARK    3  A    between atoms: C_5  and  C_9
REMARK    4  A    between atoms: N_11  and  C_12
REMARK    5  A    between atoms: C_17  and  C_22
REMARK    6  A    between atoms: C_24  and  O_25
REMARK    7  A    between atoms: O_25  and  C_26
REMARK                            x       y       z     vdW  Elec       q    Type
REMARK                         _______ _______ _______ _____ _____    ______ ____
ROOT
ATOM      1  C   UNL     1       4.847   2.989  -1.845  0.00  0.00    +0.111 A 
ATOM      2  C   UNL     1       5.971   3.231  -2.628  0.00  0.00    +0.183 A 
ATOM      3  F   UNL     1       6.750   2.215  -3.034  0.00  0.00    -0.200 F 
ATOM      4  C   UNL     1       6.375   4.544  -2.900  0.00  0.00    +0.171 A 
ATOM      5  F   UNL     1       7.521   4.719  -3.578  0.00  0.00    -0.202 F 
ATOM      6  C   UNL     1       5.637   5.660  -2.456  0.00  0.00    +0.058 A 
ATOM      7  C   UNL     1       4.496   5.372  -1.686  0.00  0.00    +0.171 A 
ATOM      8  F   UNL     1       3.680   6.354  -1.268  0.00  0.00    -0.202 F 
ATOM      9  C   UNL     1       4.136   4.070  -1.349  0.00  0.00    +0.183 A 
ATOM     10  F   UNL     1       3.039   3.860  -0.603  0.00  0.00    -0.200 F 
ENDROOT
BRANCH   6  11
ATOM     11  C   UNL     1       5.999   7.062  -2.797  0.00  0.00    -0.009 A 
ATOM     12  C   UNL     1       6.621   7.400  -4.010  0.00  0.00    +0.009 A 
ATOM     13  C   UNL     1       6.865   8.733  -4.355  0.00  0.00    +0.004 A 
ATOM     14  C   UNL     1       6.444   9.760  -3.515  0.00  0.00    +0.046 A 
ATOM     15  C   UNL     1       5.806   9.461  -2.315  0.00  0.00    +0.131 A 
ATOM     16  C   UNL     1       5.666   8.126  -1.932  0.00  0.00    +0.054 A 
BRANCH  15  17
ATOM     17  O   UNL     1       5.411  10.529  -1.568  0.00  0.00    -0.406 OA
BRANCH  17  18
ATOM     18  C   UNL     1       4.185  10.440  -0.844  0.00  0.00    +0.575 C 
ATOM     19  F   UNL     1       3.361  11.428  -1.262  0.00  0.00    -0.133 F 
ATOM     20  F   UNL     1       4.438  10.634   0.469  0.00  0.00    -0.133 F 
ATOM     21  F   UNL     1       3.527   9.271  -0.986  0.00  0.00    -0.133 F 
ENDBRANCH  17  18
ENDBRANCH  15  17
ENDBRANCH   6  11
BRANCH   1  23
ATOM     22  C   UNL     1       4.143   0.708  -2.380  0.00  0.00    +0.249 C 
ATOM     23  N   UNL     1       4.410   1.703  -1.478  0.00  0.00    -0.277 N 
ATOM     24  H   UNL     1       4.017   1.626  -0.544  0.00  0.00    +0.155 HD
ATOM     25  O   UNL     1       4.292   0.830  -3.594  0.00  0.00    -0.270 OA
BRANCH  22  30
ATOM     26  C   UNL     1       3.257  -0.983  -0.570  0.00  0.00    +0.052 C 
ATOM     27  C   UNL     1       2.607  -2.340  -0.626  0.00  0.00    +0.070 C 
ATOM     28  C   UNL     1       2.457  -2.572  -2.094  0.00  0.00    -0.021 C 
ATOM     29  C   UNL     1       2.963  -1.527  -2.759  0.00  0.00    +0.009 C 
ATOM     30  C   UNL     1       3.492  -0.532  -1.826  0.00  0.00    +0.047 C 
BRANCH  26  31
ATOM     31  C   UNL     1       3.608  -0.347   0.704  0.00  0.00    +0.334 C 
ATOM     32  O   UNL     1       4.445   0.535   0.807  0.00  0.00    -0.245 OA
BRANCH  31  33
ATOM     33  O   UNL     1       2.905  -0.774   1.766  0.00  0.00    -0.477 OA
ATOM     34  H   UNL     1       2.140  -1.350   1.594  0.00  0.00    +0.295 HD
ENDBRANCH  31  33
ENDBRANCH  26  31
ENDBRANCH  22  30
ENDBRANCH   1  23
TORSDOF 7
