REMARK  Name = 
REMARK  9 active torsions:
REMARK  status: ('A' for Active; 'I' for Inactive)
REMARK    1  A    between atoms: C_1  and  C_2
REMARK    2  A    between atoms: C_2  and  C_3
REMARK    3  A    between atoms: C_2  and  C_4
REMARK    4  A    between atoms: C_2  and  C_5
REMARK    5  A    between atoms: C_9  and  N_10
REMARK    6  A    between atoms: C_11  and  C_24
REMARK    7  A    between atoms: N_15  and  C_16
REMARK    8  A    between atoms: C_16  and  C_17
REMARK    9  A    between atoms: C_17  and  C_18
REMARK                            x       y       z     vdW  Elec       q    Type
REMARK                         _______ _______ _______ _____ _____    ______ ____
ROOT
ATOM      1  C   UNL     1       3.038  -1.321  -1.042  0.00  0.00    +0.139 A 
ATOM      2  N   UNL     1       2.686  -2.563  -0.666  0.00  0.00    -0.216 NA
ATOM      3  C   UNL     1       3.009  -3.579  -1.476  0.00  0.00    +0.132 A 
ATOM      4  N   UNL     1       2.733  -4.900  -1.065  0.00  0.00    -0.328 N 
ATOM      5  H   UNL     1       2.544  -5.479  -1.877  0.00  0.00    +0.147 HD
ATOM      6  C   UNL     1       3.696  -3.364  -2.677  0.00  0.00    +0.060 A 
ATOM      7  C   UNL     1       3.976  -2.044  -3.013  0.00  0.00    +0.167 A 
ATOM      8  N   UNL     1       4.586  -1.753  -4.172  0.00  0.00    -0.212 NA
ATOM      9  C   UNL     1       4.940  -2.737  -5.034  0.00  0.00    +0.131 A 
ATOM     10  C   UNL     1       4.698  -4.081  -4.779  0.00  0.00    +0.077 A 
ATOM     11  C   UNL     1       4.085  -4.385  -3.570  0.00  0.00    +0.031 A 
ATOM     12  N   UNL     1       3.649  -1.040  -2.204  0.00  0.00    -0.212 NA
ENDROOT
BRANCH  10  13
ATOM     13  C   UNL     1       5.006  -5.229  -5.676  0.00  0.00    +0.245 C 
ATOM     14  O   UNL     1       4.808  -6.385  -5.318  0.00  0.00    -0.270 OA
ATOM     15  N   UNL     1       5.479  -4.977  -6.929  0.00  0.00    -0.325 N 
ATOM     16  H   UNL     1       5.547  -5.773  -7.553  0.00  0.00    +0.145 HD
ATOM     17  H   UNL     1       5.390  -4.052  -7.336  0.00  0.00    +0.145 HD
ENDBRANCH  10  13
BRANCH   1  19
ATOM     18  C   UNL     1       1.199   0.274  -0.525  0.00  0.00    +0.019 C 
ATOM     19  C   UNL     1       2.621  -0.162  -0.133  0.00  0.00    +0.022 C 
ATOM     20  C   UNL     1       2.622  -0.594   1.348  0.00  0.00    +0.019 C 
ATOM     21  C   UNL     1       3.570   1.046  -0.261  0.00  0.00    +0.019 C 
ENDBRANCH   1  19
BRANCH   9  22
ATOM     22  N   UNL     1       5.575  -2.279  -6.196  0.00  0.00    -0.342 N 
ATOM     23  H   UNL     1       6.514  -2.668  -6.254  0.00  0.00    +0.144 HD
ATOM     24  H   UNL     1       5.625  -1.263  -6.100  0.00  0.00    +0.144 HD
ENDBRANCH   9  22
BRANCH   4  25
ATOM     25  C   UNL     1       1.619  -5.059  -0.123  0.00  0.00    +0.109 C 
BRANCH  25  26
ATOM     26  C   UNL     1       1.499  -6.550   0.214  0.00  0.00    +0.075 C 
BRANCH  26  27
ATOM     27  C   UNL     1       0.330  -6.866   1.071  0.00  0.00    +0.060 A 
ATOM     28  N   UNL     1      -0.951  -6.632   0.629  0.00  0.00    -0.241 NA
ATOM     29  C   UNL     1      -1.736  -7.057   1.592  0.00  0.00    +0.196 A 
ATOM     30  N   UNL     1      -1.019  -7.558   2.639  0.00  0.00    -0.351 N 
ATOM     31  H   UNL     1      -1.399  -7.949   3.487  0.00  0.00    +0.166 HD
ATOM     32  C   UNL     1       0.307  -7.449   2.319  0.00  0.00    +0.107 A 
ENDBRANCH  26  27
ENDBRANCH  25  26
ENDBRANCH   4  25
TORSDOF 6
