REMARK  Name = 
REMARK  10 active torsions:
REMARK  status: ('A' for Active; 'I' for Inactive)
REMARK    1  A    between atoms: C_1  and  N_2
REMARK    2  A    between atoms: N_2  and  C_3
REMARK    3  A    between atoms: C_4  and  C_6
REMARK    4  A    between atoms: C_9  and  S_12
REMARK    5  A    between atoms: S_12  and  C_15
REMARK    6  A    between atoms: C_18  and  N_19
REMARK    7  A    between atoms: C_20  and  C_22
REMARK    8  A    between atoms: C_22  and  C_23
REMARK    9  A    between atoms: C_22  and  O_24
REMARK   10  A    between atoms: C_22  and  C_25
REMARK                            x       y       z     vdW  Elec       q    Type
REMARK                         _______ _______ _______ _____ _____    ______ ____
ROOT
ATOM      1  C   UNL     1       9.777   0.518  -1.168  0.00  0.00    +0.095 A 
ATOM      2  C   UNL     1       9.638  -0.835  -0.854  0.00  0.00    +0.049 A 
ATOM      3  C   UNL     1       9.875  -1.790  -1.850  0.00  0.00    +0.064 A 
ATOM      4 CL   UNL     1       9.640  -3.455  -1.445  0.00  0.00    -0.082 Cl
ATOM      5  C   UNL     1      10.259  -1.408  -3.152  0.00  0.00    +0.052 A 
ATOM      6  C   UNL     1      10.471  -0.047  -3.406  0.00  0.00    +0.026 A 
ATOM      7  C   UNL     1      10.232   0.914  -2.424  0.00  0.00    +0.029 A 
ENDROOT
BRANCH   5   8
ATOM      8  N   UNL     1      10.376  -2.399  -4.161  0.00  0.00    -0.282 N 
ATOM      9  H   UNL     1      10.186  -3.360  -3.871  0.00  0.00    +0.155 HD
ATOM     10  C   UNL     1      10.699  -2.204  -5.497  0.00  0.00    +0.258 C 
ATOM     11  O   UNL     1      11.013  -1.126  -6.000  0.00  0.00    -0.272 OA
BRANCH  10  12
ATOM     12  C   UNL     1      10.629  -3.473  -6.350  0.00  0.00    +0.234 C 
ATOM     13  C   UNL     1      11.633  -3.358  -7.508  0.00  0.00    +0.061 C 
BRANCH  12  14
ATOM     14  C   UNL     1       9.184  -3.584  -6.892  0.00  0.00    +0.427 C 
ATOM     15  F   UNL     1       8.609  -4.758  -6.527  0.00  0.00    -0.167 F 
ATOM     16  F   UNL     1       9.141  -3.542  -8.248  0.00  0.00    -0.167 F 
ATOM     17  F   UNL     1       8.367  -2.605  -6.444  0.00  0.00    -0.167 F 
ENDBRANCH  12  14
BRANCH  12  18
ATOM     18  O   UNL     1      11.014  -4.606  -5.536  0.00  0.00    -0.373 OA
ATOM     19  H   UNL     1      11.979  -4.567  -5.407  0.00  0.00    +0.211 HD
ENDBRANCH  12  18
ENDBRANCH  10  12
ENDBRANCH   5   8
BRANCH   1  20
ATOM     20  S   UNL     1       9.264   1.773  -0.019  0.00  0.00    +0.025 S 
ATOM     21  O   UNL     1       8.762   1.114   1.171  0.00  0.00    -0.164 OA
ATOM     22  O   UNL     1      10.355   2.729   0.054  0.00  0.00    -0.164 OA
BRANCH  20  26
ATOM     23  C   UNL     1       5.740   3.813  -2.127  0.00  0.00    +0.037 A 
ATOM     24  C   UNL     1       5.675   2.452  -1.779  0.00  0.00    +0.015 A 
ATOM     25  C   UNL     1       6.734   1.835  -1.105  0.00  0.00    +0.028 A 
ATOM     26  C   UNL     1       7.871   2.582  -0.783  0.00  0.00    +0.094 A 
ATOM     27  C   UNL     1       7.933   3.944  -1.083  0.00  0.00    +0.028 A 
ATOM     28  C   UNL     1       6.854   4.561  -1.724  0.00  0.00    +0.015 A 
BRANCH  23  31
ATOM     29  C   UNL     1       3.538   5.962  -4.400  0.00  0.00    +0.132 C 
ATOM     30  N   UNL     1       4.746   5.405  -3.814  0.00  0.00    -0.304 N 
ATOM     31  C   UNL     1       4.574   4.409  -2.844  0.00  0.00    +0.246 C 
ATOM     32  O   UNL     1       3.457   3.972  -2.558  0.00  0.00    -0.270 OA
ATOM     33  C   UNL     1       6.013   5.887  -4.343  0.00  0.00    +0.132 C 
ENDBRANCH  23  31
ENDBRANCH  20  26
ENDBRANCH   1  20
TORSDOF 7
