REMARK  Name = 
REMARK  4 active torsions:
REMARK  status: ('A' for Active; 'I' for Inactive)
REMARK    1  A    between atoms: N_1  and  C_2
REMARK    2  A    between atoms: C_3  and  N_4
REMARK    3  A    between atoms: N_5  and  C_6
REMARK    4  A    between atoms: C_9  and  O_10
REMARK                            x       y       z     vdW  Elec       q    Type
REMARK                         _______ _______ _______ _____ _____    ______ ____
ROOT
ATOM      1  C   UNL     1       2.711   0.243  -0.802  0.00  0.00    +0.141 A 
ATOM      2  N   UNL     1       3.488  -0.836  -0.477  0.00  0.00    -0.261 N 
ATOM      3  H   UNL     1       3.402  -1.783  -0.824  0.00  0.00    +0.190 HD
ATOM      4  N   UNL     1       4.472  -0.567   0.402  0.00  0.00    -0.155 NA
ATOM      5  C   UNL     1       4.322   0.734   0.656  0.00  0.00    +0.167 A 
ATOM      6  N   UNL     1       5.111   1.394   1.520  0.00  0.00    -0.340 N 
ATOM      7  H   UNL     1       5.982   0.950   1.785  0.00  0.00    +0.144 HD
ATOM      8  H   UNL     1       5.139   2.408   1.481  0.00  0.00    +0.144 HD
ATOM      9  C   UNL     1       3.255   1.293  -0.096  0.00  0.00    +0.166 A 
ENDROOT
BRANCH   1  10
ATOM     10  N   UNL     1       1.671   0.155  -1.659  0.00  0.00    -0.342 N 
ATOM     11  H   UNL     1       1.289  -0.721  -2.003  0.00  0.00    +0.144 HD
ATOM     12  H   UNL     1       1.059   0.959  -1.794  0.00  0.00    +0.144 HD
ENDBRANCH   1  10
BRANCH   9  13
ATOM     13  N   UNL     1       2.768   2.606  -0.159  0.00  0.00    -0.142 NA
ATOM     14  N   UNL     1       3.607   3.480   0.143  0.00  0.00    -0.149 NA
BRANCH  14  15
ATOM     15  C   UNL     1       3.101   4.782  -0.051  0.00  0.00    +0.086 A 
ATOM     16  C   UNL     1       3.976   5.766  -0.529  0.00  0.00    +0.033 A 
ATOM     17  C   UNL     1       3.538   7.076  -0.739  0.00  0.00    +0.047 A 
ATOM     18  C   UNL     1       2.217   7.409  -0.469  0.00  0.00    +0.117 A 
ATOM     19  C   UNL     1       1.330   6.459   0.025  0.00  0.00    +0.047 A 
ATOM     20  C   UNL     1       1.777   5.151   0.239  0.00  0.00    +0.033 A 
BRANCH  18  21
ATOM     21  O   UNL     1       1.825   8.693  -0.705  0.00  0.00    -0.507 OA
ATOM     22  H   UNL     1       0.872   8.766  -0.531  0.00  0.00    +0.292 HD
ENDBRANCH  18  21
ENDBRANCH  14  15
ENDBRANCH   9  13
TORSDOF 4
