REMARK  Name = 
REMARK  6 active torsions:
REMARK  status: ('A' for Active; 'I' for Inactive)
REMARK    1  A    between atoms: N_1  and  S_2
REMARK    2  A    between atoms: S_2  and  C_5
REMARK    3  A    between atoms: C_8  and  N_9
REMARK    4  A    between atoms: N_9  and  C_10
REMARK    5  A    between atoms: C_12  and  O_13
REMARK    6  A    between atoms: O_13  and  C_14
REMARK                            x       y       z     vdW  Elec       q    Type
REMARK                         _______ _______ _______ _____ _____    ______ ____
ROOT
ATOM      1  C   UNL     1       3.768  -5.545  -3.674  0.00  0.00    +0.133 A 
ATOM      2  N   UNL     1       4.276  -6.568  -4.510  0.00  0.00    -0.182 N 
ATOM      3  C   UNL     1       4.081  -7.928  -4.217  0.00  0.00    +0.258 A 
ATOM      4  N   UNL     1       4.603  -8.651  -5.184  0.00  0.00    -0.197 NA
ATOM      5  C   UNL     1       5.096  -7.724  -6.049  0.00  0.00    +0.247 A 
ATOM      6  N   UNL     1       3.409  -8.337  -3.098  0.00  0.00    -0.175 NA
ATOM      7  C   UNL     1       2.917  -7.387  -2.380  0.00  0.00    +0.221 A 
ATOM      8  N   UNL     1       4.955  -6.449  -5.684  0.00  0.00    -0.151 NA
ATOM      9  C   UNL     1       3.030  -5.926  -2.615  0.00  0.00    +0.111 A 
ENDROOT
BRANCH   1  10
ATOM     10  N   UNL     1       3.976  -4.215  -4.050  0.00  0.00    -0.299 N 
ATOM     11  H   UNL     1       4.426  -4.172  -4.973  0.00  0.00    +0.154 HD
BRANCH  10  15
ATOM     12  C   UNL     1       5.837  -1.084  -1.907  0.00  0.00    +0.105 A 
ATOM     13  C   UNL     1       5.000  -0.808  -2.982  0.00  0.00    +0.030 A 
ATOM     14  C   UNL     1       4.358  -1.861  -3.641  0.00  0.00    +0.025 A 
ATOM     15  C   UNL     1       4.528  -3.192  -3.229  0.00  0.00    +0.032 A 
ATOM     16  C   UNL     1       5.317  -3.441  -2.096  0.00  0.00    +0.025 A 
ATOM     17  C   UNL     1       5.975  -2.390  -1.433  0.00  0.00    +0.030 A 
BRANCH  12  18
ATOM     18  S   UNL     1       6.800   0.219  -1.201  0.00  0.00    +0.056 S 
ATOM     19  O   UNL     1       6.609   1.434  -1.971  0.00  0.00    -0.153 OA
ATOM     20  O   UNL     1       6.663   0.183   0.233  0.00  0.00    -0.153 OA
BRANCH  18  21
ATOM     21  N   UNL     1       8.375  -0.267  -1.543  0.00  0.00    -0.204 NA
ATOM     22  H   UNL     1       8.774   0.325  -2.272  0.00  0.00    +0.144 HD
ATOM     23  H   UNL     1       8.926  -0.281  -0.684  0.00  0.00    +0.144 HD
ENDBRANCH  18  21
ENDBRANCH  12  18
ENDBRANCH  10  15
ENDBRANCH   1  10
BRANCH   7  24
ATOM     24  O   UNL     1       2.194  -7.541  -1.255  0.00  0.00    -0.473 OA
BRANCH  24  25
ATOM     25  C   UNL     1       1.919  -8.752  -0.497  0.00  0.00    +0.175 C 
ATOM     26  C   UNL     1       2.876  -8.856   0.684  0.00  0.00    +0.044 C 
ATOM     27  C   UNL     1       4.252  -9.316   0.239  0.00  0.00    +0.004 C 
ATOM     28  C   UNL     1       4.205 -10.675  -0.447  0.00  0.00    +0.000 C 
ATOM     29  C   UNL     1       3.065 -10.892  -1.442  0.00  0.00    +0.004 C 
ATOM     30  C   UNL     1       1.784 -10.075  -1.246  0.00  0.00    +0.044 C 
ENDBRANCH  24  25
ENDBRANCH   7  24
TORSDOF 6
