REMARK  Name = 
REMARK  11 active torsions:
REMARK  status: ('A' for Active; 'I' for Inactive)
REMARK    1  A    between atoms: C_1  and  C_2
REMARK    2  A    between atoms: C_2  and  O_3
REMARK    3  A    between atoms: O_3  and  C_4
REMARK    4  A    between atoms: C_6  and  C_12
REMARK    5  A    between atoms: C_9  and  C_10
REMARK    6  A    between atoms: N_14  and  C_15
REMARK    7  A    between atoms: C_15  and  C_16
REMARK    8  A    between atoms: C_18  and  O_19
REMARK    9  A    between atoms: O_19  and  C_20
REMARK   10  A    between atoms: C_23  and  O_24
REMARK   11  A    between atoms: O_24  and  C_25
REMARK                            x       y       z     vdW  Elec       q    Type
REMARK                         _______ _______ _______ _____ _____    ______ ____
ROOT
ATOM      1  C   UNL     1       6.700   4.090  -1.038  0.00  0.00    +0.263 C 
ATOM      2  N   UNL     1       5.818   5.065  -0.616  0.00  0.00    -0.306 N 
ATOM      3  H   UNL     1       4.832   4.825  -0.620  0.00  0.00    +0.149 HD
ATOM      4  O   UNL     1       7.872   4.308  -1.331  0.00  0.00    -0.269 OA
ENDROOT
BRANCH   1   9
ATOM      5  C   UNL     1       4.397   1.247  -1.369  0.00  0.00    +0.233 A 
ATOM      6  C   UNL     1       5.202   0.136  -1.113  0.00  0.00    +0.113 A 
ATOM      7  C   UNL     1       6.562   0.354  -0.866  0.00  0.00    +0.026 A 
ATOM      8  C   UNL     1       7.059   1.652  -0.871  0.00  0.00    +0.034 A 
ATOM      9  C   UNL     1       6.170   2.697  -1.087  0.00  0.00    +0.129 A 
ATOM     10  N   UNL     1       4.843   2.530  -1.321  0.00  0.00    -0.207 NA
BRANCH   6  11
ATOM     11  C   UNL     1       4.691  -1.198  -1.114  0.00  0.00    +0.104 C 
ATOM     12  N   UNL     1       4.339  -2.302  -1.099  0.00  0.00    -0.191 NA
ENDBRANCH   6  11
BRANCH   5  13
ATOM     13  O   UNL     1       3.063   1.033  -1.648  0.00  0.00    -0.476 OA
BRANCH  13  15
ATOM     14  C   UNL     1       1.077   1.687  -2.825  0.00  0.00    +0.048 C 
ATOM     15  C   UNL     1       2.527   2.027  -2.530  0.00  0.00    +0.227 C 
ENDBRANCH  13  15
ENDBRANCH   5  13
ENDBRANCH   1   9
BRANCH   2  16
ATOM     16  C   UNL     1       6.245   6.450  -0.573  0.00  0.00    +0.143 C 
BRANCH  16  17
ATOM     17  C   UNL     1       5.648   7.330   0.501  0.00  0.00    +0.015 A 
ATOM     18  C   UNL     1       6.004   8.685   0.667  0.00  0.00    +0.125 A 
ATOM     19  C   UNL     1       5.367   9.447   1.663  0.00  0.00    +0.049 A 
ATOM     20  C   UNL     1       4.382   8.902   2.484  0.00  0.00    +0.049 A 
ATOM     21  C   UNL     1       4.026   7.570   2.344  0.00  0.00    +0.121 A 
ATOM     22  C   UNL     1       4.672   6.793   1.379  0.00  0.00    +0.054 A 
BRANCH  18  23
ATOM     23  O   UNL     1       6.902   9.461  -0.012  0.00  0.00    -0.495 OA
ATOM     24  C   UNL     1       7.775   8.939  -0.994  0.00  0.00    +0.277 C 
ENDBRANCH  18  23
BRANCH  21  25
ATOM     25  O   UNL     1       3.035   7.147   3.186  0.00  0.00    -0.495 OA
ATOM     26  C   UNL     1       2.599   5.801   3.043  0.00  0.00    +0.277 C 
ENDBRANCH  21  25
ENDBRANCH  16  17
ENDBRANCH   2  16
TORSDOF 8
