REMARK  Name = 
REMARK  8 active torsions:
REMARK  status: ('A' for Active; 'I' for Inactive)
REMARK    1  A    between atoms: C_1  and  O_2
REMARK    2  A    between atoms: O_2  and  C_3
REMARK    3  A    between atoms: C_4  and  O_5
REMARK    4  A    between atoms: O_5  and  C_6
REMARK    5  A    between atoms: C_6  and  C_7
REMARK    6  A    between atoms: C_7  and  C_8
REMARK    7  A    between atoms: C_8  and  N_9
REMARK    8  A    between atoms: N_21  and  C_22
REMARK                            x       y       z     vdW  Elec       q    Type
REMARK                         _______ _______ _______ _____ _____    ______ ____
ROOT
ATOM      1  C   UNL     1       3.001   1.109  -0.246  0.00  0.00    +0.162 A 
ATOM      2  C   UNL     1       4.392   1.182  -0.197  0.00  0.00    +0.062 A 
ATOM      3  C   UNL     1       5.074   2.424  -0.263  0.00  0.00    +0.044 A 
ATOM      4  C   UNL     1       4.324   3.611  -0.368  0.00  0.00    +0.080 A 
ATOM      5  N   UNL     1       4.877   4.820  -0.379  0.00  0.00    -0.235 NA
ATOM      6  C   UNL     1       6.203   4.859  -0.276  0.00  0.00    +0.223 A 
ATOM      7  N   UNL     1       7.015   3.805  -0.209  0.00  0.00    -0.220 NA
ATOM      8  C   UNL     1       2.944   3.532  -0.404  0.00  0.00    +0.078 A 
ATOM      9  C   UNL     1       6.475   2.583  -0.220  0.00  0.00    +0.134 A 
ATOM     10  N   UNL     1       7.304   1.447  -0.071  0.00  0.00    -0.295 N 
ATOM     11  H   UNL     1       6.964   0.640  -0.581  0.00  0.00    +0.154 HD
ATOM     12  C   UNL     1       2.274   2.310  -0.312  0.00  0.00    +0.164 A 
ENDROOT
BRANCH  10  13
ATOM     13  C   UNL     1       8.646   1.265   0.336  0.00  0.00    +0.097 A 
ATOM     14  C   UNL     1       9.565   2.273   0.608  0.00  0.00    +0.189 A 
ATOM     15  O   UNL     1       9.454   3.596   0.306  0.00  0.00    -0.451 OA
ATOM     16  C   UNL     1      10.598   4.157   0.949  0.00  0.00    +0.466 C 
ATOM     17  O   UNL     1      11.524   3.156   1.403  0.00  0.00    -0.453 OA
ATOM     18  C   UNL     1      10.791   2.027   1.200  0.00  0.00    +0.168 A 
ATOM     19  C   UNL     1      11.206   0.758   1.542  0.00  0.00    +0.051 A 
ATOM     20  C   UNL     1      10.341  -0.295   1.258  0.00  0.00    +0.025 A 
ATOM     21  C   UNL     1       9.084  -0.044   0.672  0.00  0.00    +0.066 A 
ATOM     22 CL   UNL     1       8.055  -1.413   0.381  0.00  0.00    -0.081 Cl
ENDBRANCH  10  13
BRANCH   1  24
ATOM     23  C   UNL     1       2.923  -1.300  -0.504  0.00  0.00    +0.277 C 
ATOM     24  O   UNL     1       2.305  -0.062  -0.179  0.00  0.00    -0.491 OA
ENDBRANCH   1  24
BRANCH  12  25
ATOM     25  O   UNL     1       0.900   2.430  -0.302  0.00  0.00    -0.488 OA
BRANCH  25  26
ATOM     26  C   UNL     1       0.293   1.638   0.717  0.00  0.00    +0.230 C 
BRANCH  26  27
ATOM     27  C   UNL     1      -1.145   2.080   1.001  0.00  0.00    +0.056 C 
BRANCH  27  28
ATOM     28  C   UNL     1      -1.707   1.081   2.021  0.00  0.00    +0.087 C 
BRANCH  28  29
ATOM     29  N   UNL     1      -3.121   1.208   2.395  0.00  0.00    -0.302 NA
ATOM     30  C   UNL     1      -3.460   0.203   3.426  0.00  0.00    +0.084 C 
ATOM     31  C   UNL     1      -3.498  -1.241   2.907  0.00  0.00    +0.015 C 
ATOM     32  C   UNL     1      -4.402  -1.374   1.684  0.00  0.00    +0.002 C 
ATOM     33  C   UNL     1      -4.084  -0.310   0.637  0.00  0.00    +0.015 C 
ATOM     34  C   UNL     1      -4.054   1.086   1.265  0.00  0.00    +0.084 C 
ENDBRANCH  28  29
ENDBRANCH  27  28
ENDBRANCH  26  27
ENDBRANCH  25  26
ENDBRANCH  12  25
TORSDOF 7
