REMARK  Name = 
REMARK  13 active torsions:
REMARK  status: ('A' for Active; 'I' for Inactive)
REMARK    1  A    between atoms: O_1  and  C_2
REMARK    2  A    between atoms: C_2  and  C_4
REMARK    3  A    between atoms: C_4  and  C_5
REMARK    4  A    between atoms: C_5  and  C_6
REMARK    5  A    between atoms: C_6  and  C_7
REMARK    6  A    between atoms: C_7  and  N_8
REMARK    7  A    between atoms: N_8  and  C_9
REMARK    8  A    between atoms: N_8  and  C_19
REMARK    9  A    between atoms: C_9  and  C_10
REMARK   10  A    between atoms: C_13  and  N_16
REMARK   11  A    between atoms: C_19  and  P_20
REMARK   12  A    between atoms: P_20  and  O_21
REMARK   13  A    between atoms: P_20  and  O_22
REMARK                            x       y       z     vdW  Elec       q    Type
REMARK                         _______ _______ _______ _____ _____    ______ ____
ROOT
ATOM      1  N   UNL     1       7.648  -3.160   0.987  0.00  0.00    -0.288 NA
ENDROOT
BRANCH   1   2
ATOM      2  C   UNL     1       7.040  -1.814   0.832  0.00  0.00    +0.085 C 
BRANCH   2   3
ATOM      3  C   UNL     1       5.529  -1.624   0.805  0.00  0.00    +0.016 C 
BRANCH   3   4
ATOM      4  C   UNL     1       4.769  -1.991   2.074  0.00  0.00    +0.012 C 
BRANCH   4   5
ATOM      5  C   UNL     1       3.286  -1.702   1.824  0.00  0.00    +0.120 C 
BRANCH   5   6
ATOM      6  C   UNL     1       2.398  -2.007   2.993  0.00  0.00    +0.305 C 
ATOM      7  O   UNL     1       2.773  -2.419   4.081  0.00  0.00    -0.251 OA
BRANCH   6   8
ATOM      8  O   UNL     1       1.096  -1.767   2.720  0.00  0.00    -0.481 OA
ATOM      9  H   UNL     1       0.927  -1.441   1.812  0.00  0.00    +0.295 HD
ENDBRANCH   6   8
ENDBRANCH   5   6
ENDBRANCH   4   5
ENDBRANCH   3   4
ENDBRANCH   2   3
ENDBRANCH   1   2
BRANCH   1  10
ATOM     10  C   UNL     1       9.128  -2.966   0.902  0.00  0.00    +0.212 C 
BRANCH  10  11
ATOM     11  P   UNL     1       9.550  -2.339  -0.765  0.00  0.00    +0.342 P 
ATOM     12  O   UNL     1       9.907  -1.808  -2.175  0.00  0.00    -0.257 OA
BRANCH  11  13
ATOM     13  O   UNL     1      10.352  -3.770  -0.965  0.00  0.00    -0.323 OA
ATOM     14  H   UNL     1       9.794  -4.569  -0.982  0.00  0.00    +0.220 HD
ENDBRANCH  11  13
BRANCH  11  15
ATOM     15  O   UNL     1      10.801  -1.516  -0.067  0.00  0.00    -0.323 OA
ATOM     16  H   UNL     1      10.986  -1.551   0.885  0.00  0.00    +0.220 HD
ENDBRANCH  11  15
ENDBRANCH  10  11
ENDBRANCH   1  10
BRANCH   1  17
ATOM     17  C   UNL     1       7.119  -4.175   0.051  0.00  0.00    +0.120 C 
BRANCH  17  18
ATOM     18  C   UNL     1       7.643  -5.614   0.162  0.00  0.00    -0.033 A 
ATOM     19  C   UNL     1       7.729  -6.384  -1.013  0.00  0.00    +0.011 A 
ATOM     20  C   UNL     1       8.066  -7.749  -0.981  0.00  0.00    +0.084 A 
ATOM     21  C   UNL     1       8.325  -8.367   0.245  0.00  0.00    +0.273 A 
ATOM     22  C   UNL     1       8.269  -7.620   1.426  0.00  0.00    +0.084 A 
ATOM     23  C   UNL     1       7.920  -6.260   1.383  0.00  0.00    +0.011 A 
BRANCH  21  24
ATOM     24  N   UNL     1       8.639  -9.805   0.281  0.00  0.00    +0.080 N 
ATOM     25  O   UNL     1       8.506 -10.448  -0.771  0.00  0.00    +0.041 OA
ATOM     26  O   UNL     1       9.010 -10.287   1.359  0.00  0.00    -0.576 OA
ENDBRANCH  21  24
ENDBRANCH  17  18
ENDBRANCH   1  17
TORSDOF 13
