REMARK  Name = 
REMARK  8 active torsions:
REMARK  status: ('A' for Active; 'I' for Inactive)
REMARK    1  A    between atoms: C_1  and  O_2
REMARK    2  A    between atoms: O_2  and  C_3
REMARK    3  A    between atoms: C_8  and  C_9
REMARK    4  A    between atoms: N_10  and  O_11
REMARK    5  A    between atoms: O_11  and  C_12
REMARK    6  A    between atoms: C_12  and  C_13
REMARK    7  A    between atoms: C_13  and  C_14
REMARK    8  A    between atoms: C_14  and  O_15
REMARK                            x       y       z     vdW  Elec       q    Type
REMARK                         _______ _______ _______ _____ _____    ______ ____
ROOT
ATOM      1  C   UNL     1       1.701  -2.304  -0.527  0.00  0.00    +0.164 C 
ATOM      2  N   UNL     1       1.371  -1.688  -1.628  0.00  0.00    -0.092 NA
ENDROOT
BRANCH   1   4
ATOM      3  C   UNL     1       3.113  -0.750   0.945  0.00  0.00    +0.129 A 
ATOM      4  C   UNL     1       2.777  -2.019   0.448  0.00  0.00    +0.038 A 
ATOM      5  C   UNL     1       3.456  -3.156   0.920  0.00  0.00    +0.013 A 
ATOM      6  C   UNL     1       4.523  -3.024   1.808  0.00  0.00    +0.001 A 
ATOM      7  C   UNL     1       4.928  -1.757   2.212  0.00  0.00    +0.004 A 
ATOM      8  C   UNL     1       4.228  -0.629   1.783  0.00  0.00    +0.046 A 
BRANCH   3  10
ATOM      9  C   UNL     1       2.241   1.354   1.587  0.00  0.00    +0.277 C 
ATOM     10  O   UNL     1       2.330   0.322   0.604  0.00  0.00    -0.494 OA
ENDBRANCH   3  10
ENDBRANCH   1   4
BRANCH   2  11
ATOM     11  O   UNL     1       2.145  -0.558  -1.886  0.00  0.00    -0.393 OA
BRANCH  11  12
ATOM     12  C   UNL     1       1.612   0.121  -3.028  0.00  0.00    +0.274 C 
BRANCH  12  13
ATOM     13  C   UNL     1       2.744   0.334  -4.014  0.00  0.00    +0.164 C 
BRANCH  13  14
ATOM     14  C   UNL     1       3.255  -0.950  -4.626  0.00  0.00    +0.308 C 
ATOM     15  O   UNL     1       3.717  -0.992  -5.760  0.00  0.00    -0.251 OA
BRANCH  14  16
ATOM     16  O   UNL     1       3.264  -2.029  -3.819  0.00  0.00    -0.481 OA
ATOM     17  H   UNL     1       2.839  -1.875  -2.939  0.00  0.00    +0.295 HD
ENDBRANCH  14  16
ENDBRANCH  13  14
ENDBRANCH  12  13
ENDBRANCH  11  12
ENDBRANCH   2  11
TORSDOF 7
