REMARK  Name = 
REMARK  12 active torsions:
REMARK  status: ('A' for Active; 'I' for Inactive)
REMARK    1  A    between atoms: CB_2  and  CG2_3
REMARK    2  A    between atoms: CB_2  and  CG1_4
REMARK    3  A    between atoms: CB_2  and  CA_6
REMARK    4  A    between atoms: CG1_4  and  CD1_5
REMARK    5  A    between atoms: CA_6  and  N_8
REMARK    6  A    between atoms: CA_6  and  C_21
REMARK    7  A    between atoms: C_9  and  C_11
REMARK    8  A    between atoms: C_14  and  C_16
REMARK    9  A    between atoms: C_16  and  O_18
REMARK   10  A    between atoms: O_18  and  C_19
REMARK   11  A    between atoms: C_19  and  C_20
REMARK   12  A    between atoms: C_21  and  O_22
REMARK                            x       y       z     vdW  Elec       q    Type
REMARK                         _______ _______ _______ _____ _____    ______ ____
ROOT
ATOM      1  N   ILE A   1       2.248  -0.590   2.406  0.00  0.00    -0.300 N 
ATOM      2  H   ILE A   1       1.874  -0.224   3.278  0.00  0.00    +0.150 HD
ATOM      3  C   UNK A   0       2.161  -1.943   2.185  0.00  0.00    +0.246 C 
ATOM      4  O   UNK A   0       2.463  -2.492   1.138  0.00  0.00    -0.273 OA
ENDROOT
BRANCH   3   5
ATOM      5  C   UNK A   0       1.720  -2.738   3.342  0.00  0.00    +0.244 C 
ATOM      6  C   UNK A   0       0.254  -3.050   3.457  0.00  0.00    +0.265 C 
ATOM      7  O   UNK A   0       0.884  -2.090   4.320  0.00  0.00    -0.347 OA
BRANCH   6   8
ATOM      8  C   UNK A   0      -0.133  -4.353   4.022  0.00  0.00    +0.339 C 
ATOM      9  O   UNK A   0       0.671  -5.126   4.524  0.00  0.00    -0.248 OA
BRANCH   8  10
ATOM     10  O   UNK A   0      -1.438  -4.609   3.756  0.00  0.00    -0.463 OA
BRANCH  10  11
ATOM     11  C   UNK A   0      -1.784  -5.997   3.689  0.00  0.00    +0.229 C 
ATOM     12  C   UNK A   0      -1.510  -6.471   2.272  0.00  0.00    +0.048 C 
ENDBRANCH  10  11
ENDBRANCH   8  10
ENDBRANCH   6   8
ENDBRANCH   3   5
BRANCH   1  13
ATOM     13  CA  ILE A   1       2.666   0.343   1.337  0.00  0.00    +0.185 C 
BRANCH  13  14
ATOM     14  CB  ILE A   1       1.930   1.700   1.496  0.00  0.00    +0.017 C 
ATOM     15  CG2 ILE A   1       2.314   2.732   0.427  0.00  0.00    +0.010 C 
BRANCH  14  16
ATOM     16  CG1 ILE A   1       0.385   1.551   1.542  0.00  0.00    +0.002 C 
ATOM     17  CD1 ILE A   1      -0.264   1.003   0.275  0.00  0.00    +0.004 C 
ENDBRANCH  14  16
ENDBRANCH  13  14
BRANCH  13  18
ATOM     18  C   ILE A   1       4.208   0.488   1.400  0.00  0.00    +0.326 C 
ATOM     19  OXT ILE A   1       4.883   1.121   0.602  0.00  0.00    -0.249 OA
BRANCH  18  20
ATOM     20  O   ILE A   1       4.775  -0.138   2.463  0.00  0.00    -0.479 OA
ATOM     21  H   ILE A   1       4.093  -0.638   2.950  0.00  0.00    +0.295 HD
ENDBRANCH  18  20
ENDBRANCH  13  18
ENDBRANCH   1  13
TORSDOF 9
