REMARK  Name = 
REMARK  5 active torsions:
REMARK  status: ('A' for Active; 'I' for Inactive)
REMARK    1  A    between atoms: O_1  and  C_2
REMARK    2  A    between atoms: C_2  and  C_4
REMARK    3  A    between atoms: C_4  and  C_6
REMARK    4  A    between atoms: C_6  and  C_7
REMARK    5  A    between atoms: C_10  and  O_11
REMARK                            x       y       z     vdW  Elec       q    Type
REMARK                         _______ _______ _______ _____ _____    ______ ____
ROOT
ATOM      1  C   UNL     1       5.118  -1.990   1.875  0.00  0.00    -0.039 A 
ATOM      2  C   UNL     1       4.666  -3.306   1.705  0.00  0.00    +0.007 A 
ATOM      3  C   UNL     1       5.152  -4.331   2.519  0.00  0.00    +0.045 A 
ATOM      4  C   UNL     1       6.096  -4.045   3.497  0.00  0.00    +0.117 A 
ATOM      5  C   UNL     1       6.564  -2.748   3.678  0.00  0.00    +0.045 A 
ATOM      6  C   UNL     1       6.076  -1.721   2.865  0.00  0.00    +0.007 A 
ENDROOT
BRANCH   4   7
ATOM      7  O   UNL     1       6.546  -5.077   4.266  0.00  0.00    -0.507 OA
ATOM      8  H   UNL     1       7.226  -4.738   4.871  0.00  0.00    +0.292 HD
ENDBRANCH   4   7
BRANCH   1   9
ATOM      9  C   UNL     1       4.600  -0.883   0.990  0.00  0.00    +0.121 C 
BRANCH   9  10
ATOM     10  C   UNL     1       5.408  -0.679  -0.266  0.00  0.00    +0.243 C 
ATOM     11  O   UNL     1       6.418  -1.283  -0.618  0.00  0.00    -0.285 OA
BRANCH  10  12
ATOM     12  C   UNL     1       4.910   0.415  -1.201  0.00  0.00    +0.373 C 
ATOM     13  O   UNL     1       3.929   1.092  -0.971  0.00  0.00    -0.242 OA
BRANCH  12  14
ATOM     14  O   UNL     1       5.704   0.511  -2.284  0.00  0.00    -0.475 OA
ATOM     15  H   UNL     1       6.427  -0.159  -2.213  0.00  0.00    +0.295 HD
ENDBRANCH  12  14
ENDBRANCH  10  12
ENDBRANCH   9  10
ENDBRANCH   1   9
TORSDOF 5
