REMARK  Name = 
REMARK  5 active torsions:
REMARK  status: ('A' for Active; 'I' for Inactive)
REMARK    1  A    between atoms: C_1  and  C_2
REMARK    2  A    between atoms: C_2  and  C_3
REMARK    3  A    between atoms: C_6  and  C_8
REMARK    4  A    between atoms: C_11  and  S_14
REMARK    5  A    between atoms: S_14  and  N_15
REMARK                            x       y       z     vdW  Elec       q    Type
REMARK                         _______ _______ _______ _____ _____    ______ ____
ROOT
ATOM      1  C   UNL     1       3.090  -0.798  -1.151  0.00  0.00    +0.133 A 
ATOM      2  O   UNL     1       2.936  -2.153  -1.310  0.00  0.00    -0.455 OA
ATOM      3  C   UNL     1       3.715  -2.560  -2.352  0.00  0.00    +0.136 A 
ATOM      4  C   UNL     1       4.367  -1.470  -2.887  0.00  0.00    +0.050 A 
ATOM      5  C   UNL     1       3.957  -0.346  -2.134  0.00  0.00    +0.050 A 
ENDROOT
BRANCH   1   7
ATOM      6  C   UNL     1       1.061   0.541  -0.361  0.00  0.00    +0.049 C 
ATOM      7  C   UNL     1       2.426  -0.059  -0.119  0.00  0.00    +0.011 C 
ATOM      8  C   UNL     1       3.026   0.002   1.089  0.00  0.00    +0.084 C 
ATOM      9  C   UNL     1       2.483   0.724   2.286  0.00  0.00    +0.257 C 
ATOM     10  O   UNL     1       1.537   1.494   2.292  0.00  0.00    -0.269 OA
ATOM     11  N   UNL     1       3.211   0.400   3.394  0.00  0.00    -0.261 N 
ATOM     12  H   UNL     1       2.966   0.743   4.308  0.00  0.00    +0.157 HD
ATOM     13  C   UNL     1       4.249  -0.433   3.219  0.00  0.00    +0.158 C 
ATOM     14  N   UNL     1       4.948  -0.893   4.187  0.00  0.00    -0.279 NA
ATOM     15  H   UNL     1       5.656  -1.521   3.787  0.00  0.00    +0.189 HD
ATOM     16  S   UNL     1       4.502  -0.808   1.558  0.00  0.00    -0.049 S 
ENDBRANCH   1   7
BRANCH   3  17
ATOM     17  C   UNL     1       3.685  -3.985  -2.667  0.00  0.00    +0.017 A 
ATOM     18  C   UNL     1       2.920  -4.888  -1.909  0.00  0.00    +0.013 A 
ATOM     19  C   UNL     1       2.889  -6.248  -2.231  0.00  0.00    +0.029 A 
ATOM     20  C   UNL     1       3.640  -6.712  -3.310  0.00  0.00    +0.105 A 
ATOM     21  C   UNL     1       4.402  -5.833  -4.081  0.00  0.00    +0.029 A 
ATOM     22  C   UNL     1       4.426  -4.478  -3.752  0.00  0.00    +0.013 A 
BRANCH  20  23
ATOM     23  S   UNL     1       3.641  -8.431  -3.715  0.00  0.00    +0.056 S 
ATOM     24  O   UNL     1       4.011  -8.597  -5.101  0.00  0.00    -0.153 OA
ATOM     25  O   UNL     1       2.476  -9.061  -3.140  0.00  0.00    -0.153 OA
BRANCH  23  26
ATOM     26  N   UNL     1       4.954  -8.963  -2.816  0.00  0.00    -0.204 NA
ATOM     27  H   UNL     1       5.695  -9.293  -3.433  0.00  0.00    +0.144 HD
ATOM     28  H   UNL     1       4.651  -9.639  -2.115  0.00  0.00    +0.144 HD
ENDBRANCH  23  26
ENDBRANCH  20  23
ENDBRANCH   3  17
TORSDOF 4
