REMARK  Name = 
REMARK  5 active torsions:
REMARK  status: ('A' for Active; 'I' for Inactive)
REMARK    1  A    between atoms: C_1  and  N_2
REMARK    2  A    between atoms: N_2  and  S_3
REMARK    3  A    between atoms: S_3  and  C_6
REMARK    4  A    between atoms: C_9  and  C_12
REMARK    5  A    between atoms: C_15  and  C_17
REMARK                            x       y       z     vdW  Elec       q    Type
REMARK                         _______ _______ _______ _____ _____    ______ ____
ROOT
ATOM      1  C   UNL     1       8.966   0.282  -1.823  0.00  0.00    +0.136 A 
ATOM      2  O   UNL     1       9.676  -0.510  -2.678  0.00  0.00    -0.455 OA
ATOM      3  C   UNL     1      10.969  -0.056  -2.750  0.00  0.00    +0.130 A 
ATOM      4  C   UNL     1      11.059   1.049  -1.909  0.00  0.00    +0.050 A 
ATOM      5  C   UNL     1       9.795   1.256  -1.316  0.00  0.00    +0.050 A 
ENDROOT
BRANCH   3   6
ATOM      6  C   UNL     1      12.020  -0.607  -3.531  0.00  0.00    +0.066 C 
ATOM      7  C   UNL     1      11.957  -1.630  -4.393  0.00  0.00    +0.081 C 
ATOM      8  C   UNL     1      10.823  -2.508  -4.835  0.00  0.00    +0.257 C 
ATOM      9  O   UNL     1       9.657  -2.452  -4.487  0.00  0.00    -0.269 OA
ATOM     10  N   UNL     1      11.277  -3.419  -5.751  0.00  0.00    -0.261 N 
ATOM     11  H   UNL     1      10.653  -4.086  -6.176  0.00  0.00    +0.157 HD
ATOM     12  C   UNL     1      12.571  -3.358  -6.105  0.00  0.00    +0.158 C 
ATOM     13  N   UNL     1      13.095  -4.129  -6.979  0.00  0.00    -0.279 NA
ATOM     14  H   UNL     1      14.087  -3.876  -7.068  0.00  0.00    +0.189 HD
ATOM     15  S   UNL     1      13.409  -2.124  -5.247  0.00  0.00    -0.049 S 
ENDBRANCH   3   6
BRANCH   1  19
ATOM     16  C   UNL     1       4.765  -0.363  -1.528  0.00  0.00    +0.105 A 
ATOM     17  C   UNL     1       5.526  -1.185  -2.363  0.00  0.00    +0.029 A 
ATOM     18  C   UNL     1       6.910  -1.002  -2.434  0.00  0.00    +0.013 A 
ATOM     19  C   UNL     1       7.543  -0.011  -1.668  0.00  0.00    +0.017 A 
ATOM     20  C   UNL     1       6.762   0.749  -0.778  0.00  0.00    +0.013 A 
ATOM     21  C   UNL     1       5.378   0.581  -0.706  0.00  0.00    +0.029 A 
BRANCH  16  22
ATOM     22  S   UNL     1       2.994  -0.479  -1.584  0.00  0.00    +0.058 S 
ATOM     23  O   UNL     1       2.651  -1.874  -1.434  0.00  0.00    -0.153 OA
ATOM     24  O   UNL     1       2.442   0.552  -0.732  0.00  0.00    -0.153 OA
BRANCH  22  26
ATOM     25  C   UNL     1       2.947   1.317  -3.606  0.00  0.00    +0.127 C 
ATOM     26  N   UNL     1       2.671  -0.055  -3.186  0.00  0.00    -0.193 NA
ATOM     27  H   UNL     1       2.936  -0.793  -3.837  0.00  0.00    +0.148 HD
ENDBRANCH  22  26
ENDBRANCH  16  22
ENDBRANCH   1  19
TORSDOF 4
