REMARK  Name = 
REMARK  9 active torsions:
REMARK  status: ('A' for Active; 'I' for Inactive)
REMARK    1  A    between atoms: C_2  and  C_3
REMARK    2  A    between atoms: C_6  and  O_7
REMARK    3  A    between atoms: C_12  and  C_14
REMARK    4  A    between atoms: C_17  and  O_18
REMARK    5  A    between atoms: O_18  and  C_19
REMARK    6  A    between atoms: C_19  and  C_20
REMARK    7  A    between atoms: C_20  and  N_21
REMARK    8  A    between atoms: C_28  and  C_30
REMARK    9  A    between atoms: C_33  and  O_34
REMARK                            x       y       z     vdW  Elec       q    Type
REMARK                         _______ _______ _______ _____ _____    ______ ____
ROOT
ATOM      1  C   UNL     1       2.529  -0.225   0.372  0.00  0.00    +0.031 C 
ATOM      2  C   UNL     1       2.646   1.333   0.253  0.00  0.00    +0.071 C 
ATOM      3  C   UNL     1       2.239   1.788  -1.197  0.00  0.00    +0.211 C 
ATOM      4  O   UNL     1       3.138   1.180  -2.151  0.00  0.00    -0.483 OA
ATOM      5  C   UNL     1       3.188  -0.186  -2.086  0.00  0.00    +0.125 A 
ATOM      6  C   UNL     1       3.556  -0.833  -3.268  0.00  0.00    +0.049 A 
ATOM      7  C   UNL     1       3.533  -2.224  -3.342  0.00  0.00    +0.049 A 
ATOM      8  C   UNL     1       3.140  -2.956  -2.232  0.00  0.00    +0.117 A 
ATOM      9  C   UNL     1       2.820  -2.321  -1.033  0.00  0.00    +0.053 A 
ATOM     10  C   UNL     1       2.875  -0.919  -0.934  0.00  0.00    +0.001 A 
ATOM     11  C   UNL     1       3.347  -0.769   1.554  0.00  0.00    +0.013 C 
ENDROOT
BRANCH   2  12
ATOM     12  C   UNL     1       1.977   2.185   1.349  0.00  0.00    -0.040 A 
ATOM     13  C   UNL     1       2.210   3.572   1.372  0.00  0.00    +0.007 A 
ATOM     14  C   UNL     1       1.569   4.405   2.303  0.00  0.00    +0.045 A 
ATOM     15  C   UNL     1       0.693   3.851   3.229  0.00  0.00    +0.117 A 
ATOM     16  C   UNL     1       0.460   2.485   3.249  0.00  0.00    +0.045 A 
ATOM     17  C   UNL     1       1.107   1.660   2.323  0.00  0.00    +0.007 A 
BRANCH  15  18
ATOM     18  O   UNL     1       0.076   4.691   4.108  0.00  0.00    -0.507 OA
ATOM     19  H   UNL     1      -0.512   4.165   4.675  0.00  0.00    +0.292 HD
ENDBRANCH  15  18
ENDBRANCH   2  12
BRANCH   3  20
ATOM     20  C   UNL     1       0.786   1.623  -1.647  0.00  0.00    -0.007 A 
ATOM     21  C   UNL     1       0.338   2.018  -2.919  0.00  0.00    +0.011 A 
ATOM     22  C   UNL     1      -0.996   1.788  -3.325  0.00  0.00    +0.046 A 
ATOM     23  C   UNL     1      -1.896   1.152  -2.468  0.00  0.00    +0.121 A 
ATOM     24  C   UNL     1      -1.463   0.817  -1.195  0.00  0.00    +0.046 A 
ATOM     25  C   UNL     1      -0.161   1.063  -0.800  0.00  0.00    +0.011 A 
BRANCH  23  26
ATOM     26  O   UNL     1      -3.171   0.874  -2.918  0.00  0.00    -0.491 OA
BRANCH  26  27
ATOM     27  C   UNL     1      -3.899   0.057  -1.984  0.00  0.00    +0.244 C 
BRANCH  27  28
ATOM     28  C   UNL     1      -5.281  -0.373  -2.461  0.00  0.00    +0.125 C 
BRANCH  28  29
ATOM     29  N   UNL     1      -5.969  -1.147  -1.410  0.00  0.00    -0.299 NA
ATOM     30  C   UNL     1      -5.273  -2.376  -1.007  0.00  0.00    +0.084 C 
ATOM     31  C   UNL     1      -6.359  -3.335  -0.537  0.00  0.00    +0.017 C 
ATOM     32  C   UNL     1      -7.667  -2.595  -0.773  0.00  0.00    +0.017 C 
ATOM     33  C   UNL     1      -7.315  -1.545  -1.809  0.00  0.00    +0.084 C 
ENDBRANCH  28  29
ENDBRANCH  27  28
ENDBRANCH  26  27
ENDBRANCH  23  26
ENDBRANCH   3  20
BRANCH   8  34
ATOM     34  O   UNL     1       3.071  -4.313  -2.357  0.00  0.00    -0.507 OA
ATOM     35  H   UNL     1       2.713  -4.683  -1.534  0.00  0.00    +0.292 HD
ENDBRANCH   8  34
TORSDOF 8
