REMARK  Name = 
REMARK  12 active torsions:
REMARK  status: ('A' for Active; 'I' for Inactive)
REMARK    1  A    between atoms: C_2  and  N_3
REMARK    2  A    between atoms: C_2  and  C_21
REMARK    3  A    between atoms: C_2  and  P_24
REMARK    4  A    between atoms: N_3  and  S_4
REMARK    5  A    between atoms: S_4  and  C_7
REMARK    6  A    between atoms: C_10  and  C_13
REMARK    7  A    between atoms: C_16  and  O_17
REMARK    8  A    between atoms: O_17  and  C_18
REMARK    9  A    between atoms: C_21  and  C_22
REMARK   10  A    between atoms: C_21  and  C_23
REMARK   11  A    between atoms: P_24  and  O_25
REMARK   12  A    between atoms: P_24  and  O_26
REMARK                            x       y       z     vdW  Elec       q    Type
REMARK                         _______ _______ _______ _____ _____    ______ ____
ROOT
ATOM      1  S   UNL     1      -0.007  -1.566  -0.034  0.00  0.00    +0.059 S 
ATOM      2  O   UNL     1       0.176  -0.967   1.266  0.00  0.00    -0.153 OA
ATOM      3  O   UNL     1       0.424  -2.919  -0.298  0.00  0.00    -0.153 OA
ENDROOT
BRANCH   1   4
ATOM      4  C   UNL     1      -1.755  -1.496  -0.391  0.00  0.00    +0.105 A 
ATOM      5  C   UNL     1      -2.539  -0.451   0.094  0.00  0.00    +0.029 A 
ATOM      6  C   UNL     1      -3.944  -0.531   0.013  0.00  0.00    +0.010 A 
ATOM      7  C   UNL     1      -4.602  -1.646  -0.547  0.00  0.00    -0.018 A 
ATOM      8  C   UNL     1      -3.783  -2.692  -1.007  0.00  0.00    +0.010 A 
ATOM      9  C   UNL     1      -2.384  -2.624  -0.928  0.00  0.00    +0.029 A 
BRANCH   7  10
ATOM     10  C   UNL     1      -6.084  -1.709  -0.689  0.00  0.00    -0.018 A 
ATOM     11  C   UNL     1      -6.839  -0.548  -0.936  0.00  0.00    +0.012 A 
ATOM     12  C   UNL     1      -8.220  -0.593  -1.185  0.00  0.00    +0.046 A 
ATOM     13  C   UNL     1      -8.891  -1.809  -1.201  0.00  0.00    +0.120 A 
ATOM     14  C   UNL     1      -8.174  -2.974  -0.932  0.00  0.00    +0.046 A 
ATOM     15  C   UNL     1      -6.797  -2.923  -0.663  0.00  0.00    +0.012 A 
BRANCH  13  16
ATOM     16  O   UNL     1     -10.207  -1.990  -1.527  0.00  0.00    -0.495 OA
ATOM     17  C   UNL     1     -11.073  -0.886  -1.295  0.00  0.00    +0.277 C 
ENDBRANCH  13  16
ENDBRANCH   7  10
ENDBRANCH   1   4
BRANCH   1  18
ATOM     18  N   UNL     1       0.778  -0.524  -1.115  0.00  0.00    -0.175 NA
ATOM     19  H   UNL     1       1.521  -0.042  -0.599  0.00  0.00    +0.149 HD
BRANCH  18  20
ATOM     20  C   UNL     1       1.125  -0.927  -2.520  0.00  0.00    +0.192 C 
BRANCH  20  21
ATOM     21  C   UNL     1       1.981   0.168  -3.230  0.00  0.00    +0.013 C 
ATOM     22  C   UNL     1       3.365   0.421  -2.625  0.00  0.00    +0.009 C 
ATOM     23  C   UNL     1       1.219   1.480  -3.394  0.00  0.00    +0.009 C 
ENDBRANCH  20  21
BRANCH  20  24
ATOM     24  P   UNL     1       1.907  -2.566  -2.695  0.00  0.00    +0.346 P 
ATOM     25  O   UNL     1       3.002  -2.891  -1.734  0.00  0.00    -0.257 OA
BRANCH  24  26
ATOM     26  O   UNL     1       2.353  -2.722  -4.229  0.00  0.00    -0.323 OA
ATOM     27  H   UNL     1       1.749  -2.348  -4.894  0.00  0.00    +0.220 HD
ENDBRANCH  24  26
BRANCH  24  28
ATOM     28  O   UNL     1       0.680  -3.601  -2.662  0.00  0.00    -0.323 OA
ATOM     29  H   UNL     1       0.562  -3.884  -1.721  0.00  0.00    +0.220 HD
ENDBRANCH  24  28
ENDBRANCH  20  24
ENDBRANCH  18  20
ENDBRANCH   1  18
TORSDOF 9
