REMARK  Name = 
REMARK  11 active torsions:
REMARK  status: ('A' for Active; 'I' for Inactive)
REMARK    1  A    between atoms: CA_2  and  C_3
REMARK    2  A    between atoms: CA_2  and  N_6
REMARK    3  A    between atoms: CA_2  and  C_14
REMARK    4  A    between atoms: C_3  and  C_4
REMARK    5  A    between atoms: C_4  and  S_5
REMARK    6  A    between atoms: C_7  and  C_9
REMARK    7  A    between atoms: C_9  and  C_10
REMARK    8  A    between atoms: C_10  and  C_11
REMARK    9  A    between atoms: C_11  and  C_12
REMARK   10  A    between atoms: C_12  and  C_13
REMARK   11  A    between atoms: C_14  and  O_15
REMARK                            x       y       z     vdW  Elec       q    Type
REMARK                         _______ _______ _______ _____ _____    ______ ____
ROOT
ATOM      1  CA  UNL     1       1.904  -0.059  -0.007  0.00  0.00    +0.182 C 
ENDROOT
BRANCH   1   2
ATOM      2  N   UNL     1       2.402  -0.014   1.363  0.00  0.00    -0.302 N 
ATOM      3  H   UNL     1       3.201  -0.600   1.590  0.00  0.00    +0.150 HD
ATOM      4  C   UNL     1       1.902   0.864   2.290  0.00  0.00    +0.214 C 
ATOM      5  O   UNL     1       0.961   1.614   2.047  0.00  0.00    -0.276 OA
BRANCH   4   6
ATOM      6  C   UNL     1       2.568   0.807   3.650  0.00  0.00    +0.096 C 
BRANCH   6   7
ATOM      7  C   UNL     1       4.072   1.074   3.612  0.00  0.00    +0.009 C 
BRANCH   7   8
ATOM      8  C   UNL     1       4.410   2.466   3.071  0.00  0.00    +0.000 C 
BRANCH   8   9
ATOM      9  C   UNL     1       5.921   2.688   3.029  0.00  0.00    -0.003 C 
ATOM     10  C   UNL     1       6.264   4.063   2.479  0.00  0.00    +0.004 C 
ENDBRANCH   8   9
ENDBRANCH   7   8
ENDBRANCH   6   7
ENDBRANCH   4   6
ENDBRANCH   1   2
BRANCH   1  11
ATOM     11  C   UNL     1       2.039  -1.510  -0.471  0.00  0.00    +0.325 C 
ATOM     12  OXT UNL     1       3.100  -2.120  -0.482  0.00  0.00    -0.249 OA
BRANCH  11  13
ATOM     13  O   UNL     1       0.870  -2.091  -0.822  0.00  0.00    -0.479 OA
ATOM     14  H   UNL     1       0.075  -1.548  -0.659  0.00  0.00    +0.295 HD
ENDBRANCH  11  13
ENDBRANCH   1  11
BRANCH   1  15
ATOM     15  C   UNL     1       2.706   0.890  -0.907  0.00  0.00    +0.044 C 
BRANCH  15  16
ATOM     16  C   UNL     1       2.185   0.893  -2.343  0.00  0.00    +0.068 C 
BRANCH  16  17
ATOM     17  S   UNL     1       3.133   2.050  -3.372  0.00  0.00    -0.178 S 
ATOM     18  H   UNL     1       2.826   3.164  -2.691  0.00  0.00    +0.102 HD
ENDBRANCH  16  17
ENDBRANCH  15  16
ENDBRANCH   1  15
TORSDOF 10
