REMARK  Name = 
REMARK  6 active torsions:
REMARK  status: ('A' for Active; 'I' for Inactive)
REMARK    1  A    between atoms: O_1  and  C_2
REMARK    2  A    between atoms: C_2  and  C_4
REMARK    3  A    between atoms: C_4  and  O_5
REMARK    4  A    between atoms: O_5  and  C_6
REMARK    5  A    between atoms: C_7  and  C_15
REMARK    6  A    between atoms: C_15  and  O_16
REMARK                            x       y       z     vdW  Elec       q    Type
REMARK                         _______ _______ _______ _____ _____    ______ ____
ROOT
ATOM      1  C   UNL     1       5.464  -1.570  -1.463  0.00  0.00    +0.152 A 
ATOM      2  C   UNL     1       5.396  -3.011  -1.512  0.00  0.00    +0.050 A 
ATOM      3  C   UNL     1       6.370  -3.503  -2.376  0.00  0.00    +0.113 A 
ATOM      4  N   UNL     1       6.597  -4.793  -2.696  0.00  0.00    -0.248 NA
ATOM      5  C   UNL     1       5.777  -5.668  -2.086  0.00  0.00    +0.112 A 
ATOM      6  C   UNL     1       4.780  -5.331  -1.191  0.00  0.00    +0.020 A 
ATOM      7  S   UNL     1       7.346  -2.288  -3.048  0.00  0.00    -0.059 S 
ATOM      8  C   UNL     1       4.584  -3.987  -0.886  0.00  0.00    +0.016 A 
ATOM      9  C   UNL     1       6.501  -1.053  -2.222  0.00  0.00    +0.140 A 
ENDROOT
BRANCH   9  10
ATOM     10  C   UNL     1       6.869   0.344  -2.369  0.00  0.00    +0.347 C 
ATOM     11  O   UNL     1       6.282   1.285  -1.854  0.00  0.00    -0.244 OA
BRANCH  10  12
ATOM     12  O   UNL     1       7.960   0.538  -3.160  0.00  0.00    -0.477 OA
ATOM     13  H   UNL     1       8.324  -0.301  -3.508  0.00  0.00    +0.295 HD
ENDBRANCH  10  12
ENDBRANCH   9  10
BRANCH   1  14
ATOM     14  O   UNL     1       4.696  -0.708  -0.741  0.00  0.00    -0.479 OA
BRANCH  14  15
ATOM     15  C   UNL     1       3.330  -1.080  -0.594  0.00  0.00    +0.349 C 
BRANCH  15  16
ATOM     16  C   UNL     1       2.462   0.153  -0.409  0.00  0.00    +0.343 C 
ATOM     17  O   UNL     1       1.254   0.099  -0.229  0.00  0.00    -0.247 OA
BRANCH  16  18
ATOM     18  O   UNL     1       3.142   1.323  -0.460  0.00  0.00    -0.478 OA
ATOM     19  H   UNL     1       4.105   1.187  -0.633  0.00  0.00    +0.295 HD
ENDBRANCH  16  18
ENDBRANCH  15  16
ENDBRANCH  14  15
ENDBRANCH   1  14
TORSDOF 6
