REMARK  Name = 
REMARK  8 active torsions:
REMARK  status: ('A' for Active; 'I' for Inactive)
REMARK    1  A    between atoms: C_2  and  C_3
REMARK    2  A    between atoms: C_2  and  N_4
REMARK    3  A    between atoms: C_2  and  C_16
REMARK    4  A    between atoms: C_9  and  C_10
REMARK    5  A    between atoms: C_9  and  C_12
REMARK    6  A    between atoms: C_12  and  C_13
REMARK    7  A    between atoms: C_12  and  C_14
REMARK    8  A    between atoms: C_12  and  O_15
REMARK                            x       y       z     vdW  Elec       q    Type
REMARK                         _______ _______ _______ _____ _____    ______ ____
ROOT
ATOM      1  N   UNL     1       2.606  -0.767   1.161  0.00  0.00    -0.319 N 
ATOM      2  H   UNL     1       2.324  -1.664   0.780  0.00  0.00    +0.148 HD
ATOM      3  C   UNL     1       2.261  -0.591   2.468  0.00  0.00    +0.148 C 
ATOM      4  S   UNL     1       1.708  -2.017   3.299  0.00  0.00    -0.074 S 
ATOM      5  C   UNL     1       1.112  -0.969   4.715  0.00  0.00    +0.126 C 
ATOM      6  C   UNL     1      -0.398  -0.776   4.497  0.00  0.00    +0.036 C 
ATOM      7  C   UNL     1       1.807   0.370   4.423  0.00  0.00    +0.257 C 
ATOM      8  O   UNL     1       1.876   1.278   5.244  0.00  0.00    -0.272 OA
ATOM      9  N   UNL     1       2.268   0.509   3.133  0.00  0.00    -0.158 NA
ENDROOT
BRANCH   5  10
ATOM     10  C   UNL     1       1.463  -1.568   6.118  0.00  0.00    +0.084 C 
ATOM     11  C   UNL     1       0.960  -0.720   7.303  0.00  0.00    +0.043 C 
ATOM     12  C   UNL     1       2.964  -1.836   6.321  0.00  0.00    +0.043 C 
BRANCH  10  13
ATOM     13  O   UNL     1       0.784  -2.839   6.243  0.00  0.00    -0.387 OA
ATOM     14  H   UNL     1       1.024  -3.231   7.101  0.00  0.00    +0.210 HD
ENDBRANCH  10  13
ENDBRANCH   5  10
BRANCH   1  15
ATOM     15  C   UNL     1       2.565   0.343   0.219  0.00  0.00    +0.099 C 
ATOM     16  C   UNL     1       3.883   1.118   0.231  0.00  0.00    +0.033 C 
BRANCH  15  17
ATOM     17  C   UNL     1       2.231  -0.163  -1.178  0.00  0.00    -0.027 A 
ATOM     18  C   UNL     1       1.038   0.252  -1.797  0.00  0.00    +0.008 A 
ATOM     19  C   UNL     1       0.732  -0.151  -3.099  0.00  0.00    +0.038 A 
ATOM     20  C   UNL     1       1.612  -0.976  -3.786  0.00  0.00    +0.123 A 
ATOM     21  F   UNL     1       1.326  -1.346  -5.040  0.00  0.00    -0.205 F 
ATOM     22  C   UNL     1       2.788  -1.417  -3.191  0.00  0.00    +0.038 A 
ATOM     23  C   UNL     1       3.096  -1.015  -1.887  0.00  0.00    +0.008 A 
ENDBRANCH  15  17
ENDBRANCH   1  15
TORSDOF 4
