REMARK  Name = 
REMARK  16 active torsions:
REMARK  status: ('A' for Active; 'I' for Inactive)
REMARK    1  A    between atoms: C_2  and  C_3
REMARK    2  A    between atoms: C_2  and  N_9
REMARK    3  A    between atoms: C_2  and  B_33
REMARK    4  A    between atoms: C_3  and  C_4
REMARK    5  A    between atoms: C_4  and  C_5
REMARK    6  A    between atoms: C_5  and  C_6
REMARK    7  A    between atoms: C_6  and  C_7
REMARK    8  A    between atoms: C_7  and  N_8
REMARK    9  A    between atoms: C_10  and  C_12
REMARK   10  A    between atoms: C_18  and  C_20
REMARK   11  A    between atoms: C_20  and  C_22
REMARK   12  A    between atoms: C_20  and  N_29
REMARK   13  A    between atoms: C_22  and  C_23
REMARK   14  A    between atoms: C_30  and  C_31
REMARK   15  A    between atoms: B_33  and  O_34
REMARK   16  A    between atoms: B_33  and  O_35
REMARK                            x       y       z     vdW  Elec       q    Type
REMARK                         _______ _______ _______ _____ _____    ______ ____
ROOT
ATOM      1  C   UNL     1       3.001  -3.571   0.664  0.00  0.00    +0.000 C 
ATOM      2  N   UNL     1       2.106  -4.737   0.474  0.00  0.00    +0.000 N 
ATOM      3  C   UNL     1       0.987  -4.767  -0.325  0.00  0.00    +0.000 C 
ATOM      4  O   UNL     1       0.778  -3.827  -1.075  0.00  0.00    +0.000 OA
ATOM      5  C   UNL     1       2.343  -5.773   1.462  0.00  0.00    +0.000 C 
ATOM      6  C   UNL     1       3.617  -5.352   2.164  0.00  0.00    +0.000 C 
ATOM      7  C   UNL     1       3.533  -3.838   2.089  0.00  0.00    +0.000 C 
ENDROOT
BRANCH   1  10
ATOM      8  N   UNL     1       4.955  -2.186  -0.333  0.00  0.00    +0.000 N 
ATOM      9  H   UNL     1       4.942  -1.707   0.567  0.00  0.00    +0.000 HD
ATOM     10  C   UNL     1       4.055  -3.246  -0.467  0.00  0.00    +0.000 C 
ATOM     11  O   UNL     1       4.019  -3.891  -1.506  0.00  0.00    +0.000 OA
BRANCH   8  12
ATOM     12  C   UNL     1       5.854  -1.580  -1.375  0.00  0.00    +0.000 C 
BRANCH  12  13
ATOM     13  B   UNL     1       6.887  -2.625  -2.092  0.00  0.00    +0.000 B 
BRANCH  13  14
ATOM     14  O   UNL     1       7.992  -3.195  -1.319  0.00  0.00    +0.000 OA
ATOM     15  H   UNL     1       7.640  -3.355  -0.413  0.00  0.00    +0.000 HD
ENDBRANCH  13  14
BRANCH  13  16
ATOM     16  O   UNL     1       7.064  -2.572  -3.555  0.00  0.00    +0.000 OA
ATOM     17  H   UNL     1       6.241  -2.197  -3.958  0.00  0.00    +0.000 HD
ENDBRANCH  13  16
ENDBRANCH  12  13
BRANCH  12  18
ATOM     18  C   UNL     1       6.715  -0.391  -0.768  0.00  0.00    +0.000 C 
BRANCH  18  19
ATOM     19  C   UNL     1       7.710   0.352  -1.734  0.00  0.00    +0.000 C 
BRANCH  19  20
ATOM     20  C   UNL     1       8.578   1.441  -1.034  0.00  0.00    +0.000 C 
BRANCH  20  21
ATOM     21  C   UNL     1       9.578   2.084  -2.029  0.00  0.00    +0.000 C 
BRANCH  21  22
ATOM     22  C   UNL     1      10.497   3.146  -1.398  0.00  0.00    +0.000 C 
BRANCH  22  23
ATOM     23  N   UNL     1      11.400   3.694  -2.415  0.00  0.00    +0.000 NA
ATOM     24  H   UNL     1      12.031   4.406  -1.976  0.00  0.00    +0.000 HD
ATOM     25  H   UNL     1      12.006   2.932  -2.798  0.00  0.00    +0.000 HD
ENDBRANCH  22  23
ENDBRANCH  21  22
ENDBRANCH  20  21
ENDBRANCH  19  20
ENDBRANCH  18  19
ENDBRANCH  12  18
ENDBRANCH   8  12
ENDBRANCH   1  10
BRANCH   3  26
ATOM     26  C   UNL     1      -0.077  -5.910  -0.214  0.00  0.00    +0.000 C 
BRANCH  26  27
ATOM     27  N   UNL     1       0.449  -7.198  -0.639  0.00  0.00    +0.000 N 
ATOM     28  H   UNL     1       0.820  -7.284  -1.597  0.00  0.00    +0.000 HD
ATOM     29  C   UNL     1       0.408  -8.327   0.151  0.00  0.00    +0.000 C 
ATOM     30  O   UNL     1      -0.066  -8.280   1.276  0.00  0.00    +0.000 OA
ATOM     31  C   UNL     1       0.908  -9.649  -0.354  0.00  0.00    +0.000 C 
ENDBRANCH  26  27
BRANCH  26  32
ATOM     32  C   UNL     1      -1.363  -5.619  -1.038  0.00  0.00    +0.000 C 
BRANCH  32  33
ATOM     33  C   UNL     1      -2.086  -4.391  -0.532  0.00  0.00    +0.000 A 
ATOM     34  C   UNL     1      -2.694  -4.381   0.742  0.00  0.00    +0.000 A 
ATOM     35  C   UNL     1      -3.328  -3.223   1.210  0.00  0.00    +0.000 A 
ATOM     36  C   UNL     1      -3.355  -2.073   0.417  0.00  0.00    +0.000 A 
ATOM     37  C   UNL     1      -2.771  -2.084  -0.851  0.00  0.00    +0.000 A 
ATOM     38  C   UNL     1      -2.149  -3.238  -1.329  0.00  0.00    +0.000 A 
ENDBRANCH  32  33
ENDBRANCH  26  32
ENDBRANCH   3  26
TORSDOF 15
