REMARK  Name = 
REMARK  4 active torsions:
REMARK  status: ('A' for Active; 'I' for Inactive)
REMARK    1  A    between atoms: N_1  and  S_2
REMARK    2  A    between atoms: S_2  and  C_5
REMARK    3  A    between atoms: C_8  and  C_11
REMARK    4  A    between atoms: C_14  and  C_16
REMARK                            x       y       z     vdW  Elec       q    Type
REMARK                         _______ _______ _______ _____ _____    ______ ____
ROOT
ATOM      1  C   UNL     1       4.389   5.876  -0.589  0.00  0.00    +0.136 A 
ATOM      2  O   UNL     1       5.371   6.145  -1.493  0.00  0.00    -0.455 OA
ATOM      3  C   UNL     1       5.496   7.505  -1.645  0.00  0.00    +0.130 A 
ATOM      4  C   UNL     1       4.554   8.095  -0.810  0.00  0.00    +0.050 A 
ATOM      5  C   UNL     1       3.859   7.061  -0.135  0.00  0.00    +0.050 A 
ENDROOT
BRANCH   3   6
ATOM      6  C   UNL     1       6.438   8.150  -2.494  0.00  0.00    +0.066 C 
ATOM      7  C   UNL     1       7.401   7.525  -3.188  0.00  0.00    +0.082 C 
ATOM      8  C   UNL     1       8.402   8.310  -3.960  0.00  0.00    +0.258 C 
ATOM      9  O   UNL     1       8.399   9.525  -4.092  0.00  0.00    -0.269 OA
ATOM     10  N   UNL     1       9.363   7.480  -4.455  0.00  0.00    -0.243 N 
ATOM     11  H   UNL     1      10.183   7.850  -4.905  0.00  0.00    +0.159 HD
ATOM     12  C   UNL     1       9.306   6.171  -4.106  0.00  0.00    +0.283 C 
ATOM     13  O   UNL     1      10.183   5.344  -4.286  0.00  0.00    -0.262 OA
ATOM     14  S   UNL     1       7.798   5.849  -3.285  0.00  0.00    -0.026 S 
ENDBRANCH   3   6
BRANCH   1  18
ATOM     15  C   UNL     1       3.406   1.762  -0.025  0.00  0.00    +0.105 A 
ATOM     16  C   UNL     1       4.494   2.102  -0.828  0.00  0.00    +0.029 A 
ATOM     17  C   UNL     1       4.838   3.448  -0.985  0.00  0.00    +0.013 A 
ATOM     18  C   UNL     1       4.104   4.462  -0.346  0.00  0.00    +0.017 A 
ATOM     19  C   UNL     1       3.048   4.088   0.503  0.00  0.00    +0.013 A 
ATOM     20  C   UNL     1       2.696   2.745   0.666  0.00  0.00    +0.029 A 
BRANCH  15  21
ATOM     21  S   UNL     1       2.867   0.084   0.060  0.00  0.00    +0.056 S 
ATOM     22  O   UNL     1       3.672  -0.728  -0.827  0.00  0.00    -0.153 OA
ATOM     23  O   UNL     1       2.636  -0.268   1.442  0.00  0.00    -0.153 OA
BRANCH  21  24
ATOM     24  N   UNL     1       1.358   0.176  -0.671  0.00  0.00    -0.204 NA
ATOM     25  H   UNL     1       1.399  -0.204  -1.616  0.00  0.00    +0.144 HD
ATOM     26  H   UNL     1       0.660  -0.268  -0.075  0.00  0.00    +0.144 HD
ENDBRANCH  21  24
ENDBRANCH  15  21
ENDBRANCH   1  18
TORSDOF 4
