REMARK  Name = 
REMARK  3 active torsions:
REMARK  status: ('A' for Active; 'I' for Inactive)
REMARK    1  A    between atoms: N_1  and  C_2
REMARK    2  A    between atoms: C_6  and  C_8
REMARK    3  A    between atoms: N_12  and  C_13
REMARK                            x       y       z     vdW  Elec       q    Type
REMARK                         _______ _______ _______ _____ _____    ______ ____
ROOT
ATOM      1  C   UNL     1       5.256  -2.544  -0.459  0.00  0.00    +0.046 A 
ATOM      2  C   UNL     1       4.721  -3.831  -0.223  0.00  0.00    +0.145 A 
ATOM      3  N   UNL     1       5.540  -4.819  -0.586  0.00  0.00    -0.173 NA
ATOM      4  N   UNL     1       6.621  -4.178  -1.090  0.00  0.00    -0.221 N 
ATOM      5  C   UNL     1       7.715  -4.744  -1.727  0.00  0.00    +0.118 A 
ATOM      6  C   UNL     1       8.717  -3.971  -2.163  0.00  0.00    +0.063 A 
ATOM      7  C   UNL     1       8.636  -2.496  -1.841  0.00  0.00    +0.127 A 
ATOM      8  N   UNL     1       9.735  -1.719  -2.168  0.00  0.00    -0.299 N 
ATOM      9  H   UNL     1      10.414  -2.155  -2.781  0.00  0.00    +0.154 HD
ATOM     10  N   UNL     1       7.569  -1.969  -1.290  0.00  0.00    -0.212 NA
ATOM     11  C   UNL     1       6.529  -2.793  -0.945  0.00  0.00    +0.165 A 
ENDROOT
BRANCH   8  12
ATOM     12  C   UNL     1      10.361  -0.776  -1.315  0.00  0.00    +0.034 A 
ATOM     13  C   UNL     1       9.855  -0.394  -0.066  0.00  0.00    +0.043 A 
ATOM     14  C   UNL     1      10.542   0.523   0.733  0.00  0.00    +0.043 A 
ATOM     15 CL   UNL     1       9.931   0.926   2.292  0.00  0.00    -0.083 Cl
ATOM     16  C   UNL     1      11.726   1.104   0.290  0.00  0.00    +0.020 A 
ATOM     17  C   UNL     1      12.217   0.781  -0.972  0.00  0.00    +0.003 A 
ATOM     18  C   UNL     1      11.534  -0.142  -1.768  0.00  0.00    +0.023 A 
ENDBRANCH   8  12
BRANCH   1  21
ATOM     19  C   UNL     1       4.390   1.097  -0.981  0.00  0.00    +0.025 A 
ATOM     20  C   UNL     1       4.986  -0.160  -1.121  0.00  0.00    +0.031 A 
ATOM     21  C   UNL     1       4.647  -1.234  -0.280  0.00  0.00    -0.011 A 
ATOM     22  C   UNL     1       3.651  -1.037   0.684  0.00  0.00    +0.009 A 
ATOM     23  C   UNL     1       3.003   0.195   0.789  0.00  0.00    +0.002 A 
ATOM     24  C   UNL     1       3.357   1.248  -0.056  0.00  0.00    +0.023 A 
BRANCH  19  25
ATOM     25  N   UNL     1       4.657   2.108  -1.916  0.00  0.00    -0.358 N 
ATOM     26  H   UNL     1       5.588   2.034  -2.318  0.00  0.00    +0.142 HD
ATOM     27  H   UNL     1       4.467   3.040  -1.565  0.00  0.00    +0.142 HD
ENDBRANCH  19  25
ENDBRANCH   1  21
TORSDOF 3
