REMARK  Name = 
REMARK  7 active torsions:
REMARK  status: ('A' for Active; 'I' for Inactive)
REMARK    1  A    between atoms: C_2  and  O_3
REMARK    2  A    between atoms: C_2  and  C_4
REMARK    3  A    between atoms: C_2  and  C_12
REMARK    4  A    between atoms: C_4  and  N_5
REMARK    5  A    between atoms: N_5  and  C_6
REMARK    6  A    between atoms: C_12  and  N_13
REMARK    7  A    between atoms: C_24  and  C_25
REMARK                            x       y       z     vdW  Elec       q    Type
REMARK                         _______ _______ _______ _____ _____    ______ ____
ROOT
ATOM      1  N   UNL     1       4.028  -1.055   0.874  0.00  0.00    -0.341 N 
ATOM      2  C   UNL     1       4.780  -0.397   1.837  0.00  0.00    +0.050 A 
ATOM      3  C   UNL     1       4.405   0.375   2.951  0.00  0.00    +0.026 A 
ATOM      4  C   UNL     1       5.418   0.922   3.752  0.00  0.00    +0.005 A 
ATOM      5  C   UNL     1       6.769   0.721   3.463  0.00  0.00    -0.050 A 
ATOM      6  C   UNL     1       7.125  -0.051   2.348  0.00  0.00    +0.013 A 
ATOM      7  C   UNL     1       7.852   1.317   4.315  0.00  0.00    +0.044 C 
ATOM      8  C   UNL     1       6.128  -0.619   1.529  0.00  0.00    +0.004 A 
ATOM      9  C   UNL     1       6.172  -1.440   0.375  0.00  0.00    -0.019 A 
ATOM     10  C   UNL     1       7.356  -1.958  -0.369  0.00  0.00    +0.037 C 
ATOM     11  C   UNL     1       6.960  -3.090  -1.332  0.00  0.00    +0.005 C 
ATOM     12  C   UNL     1       5.671  -2.759  -2.102  0.00  0.00    +0.006 C 
ATOM     13  C   UNL     1       4.472  -2.558  -1.158  0.00  0.00    +0.054 C 
ATOM     14  C   UNL     1       4.869  -1.698  -0.005  0.00  0.00    +0.023 A 
ENDROOT
BRANCH   1  15
ATOM     15  C   UNL     1       2.570  -1.138   0.861  0.00  0.00    +0.154 C 
BRANCH  15  16
ATOM     16  C   UNL     1       1.882   0.030   0.128  0.00  0.00    +0.148 C 
BRANCH  16  17
ATOM     17  O   UNL     1       2.266   0.085  -1.257  0.00  0.00    -0.389 OA
ATOM     18  H   UNL     1       1.895  -0.692  -1.710  0.00  0.00    +0.210 HD
ENDBRANCH  16  17
BRANCH  16  19
ATOM     19  C   UNL     1       0.343  -0.115   0.159  0.00  0.00    +0.114 C 
BRANCH  19  20
ATOM     20  N   UNL     1      -0.235  -0.104   1.503  0.00  0.00    -0.311 NA
ATOM     21  H   UNL     1      -0.026   0.791   1.949  0.00  0.00    +0.122 HD
BRANCH  20  22
ATOM     22  C   UNL     1      -1.699  -0.302   1.504  0.00  0.00    +0.054 C 
ATOM     23  C   UNL     1      -2.217  -0.247   2.954  0.00  0.00    +0.019 C 
ATOM     24  C   UNL     1      -1.751  -1.435   3.802  0.00  0.00    +0.002 C 
ATOM     25  C   UNL     1      -2.010  -2.786   3.132  0.00  0.00    +0.000 C 
ATOM     26  C   UNL     1      -1.551  -2.824   1.677  0.00  0.00    +0.002 C 
ATOM     27  C   UNL     1      -2.137  -1.648   0.898  0.00  0.00    +0.019 C 
ENDBRANCH  20  22
ENDBRANCH  19  20
ENDBRANCH  16  19
ENDBRANCH  15  16
ENDBRANCH   1  15
TORSDOF 6
