REMARK  Name = 
REMARK  8 active torsions:
REMARK  status: ('A' for Active; 'I' for Inactive)
REMARK    1  A    between atoms: C_2  and  C_3
REMARK    2  A    between atoms: C_2  and  N_14
REMARK    3  A    between atoms: C_2  and  C_26
REMARK    4  A    between atoms: C_3  and  C_4
REMARK    5  A    between atoms: C_7  and  N_8
REMARK    6  A    between atoms: C_15  and  C_17
REMARK    7  A    between atoms: C_17  and  S_18
REMARK    8  A    between atoms: S_18  and  C_19
REMARK                            x       y       z     vdW  Elec       q    Type
REMARK                         _______ _______ _______ _____ _____    ______ ____
ROOT
ATOM      1  C   UNL     1       2.050  -0.024   0.022  0.00  0.00    +0.163 C 
ENDROOT
BRANCH   1   2
ATOM      2  C   UNL     1       2.625   1.162  -0.772  0.00  0.00    +0.231 C 
ATOM      3  O   UNL     1       3.781   1.567  -0.671  0.00  0.00    -0.274 OA
ATOM      4  N   UNL     1       1.787   1.670  -1.728  0.00  0.00    -0.328 N 
ATOM      5  H   UNL     1       2.170   2.364  -2.357  0.00  0.00    +0.145 HD
ATOM      6  H   UNL     1       1.007   1.111  -2.060  0.00  0.00    +0.145 HD
ENDBRANCH   1   2
BRANCH   1   7
ATOM      7  N   UNL     1       2.459  -1.252  -0.666  0.00  0.00    -0.303 N 
ATOM      8  H   UNL     1       3.368  -1.645  -0.449  0.00  0.00    +0.149 HD
ATOM      9  C   UNL     1       1.768  -1.759  -1.745  0.00  0.00    +0.224 C 
ATOM     10  O   UNL     1       0.771  -1.203  -2.204  0.00  0.00    -0.275 OA
BRANCH   9  11
ATOM     11  C   UNL     1       2.380  -3.005  -2.380  0.00  0.00    +0.170 C 
BRANCH  11  12
ATOM     12  S   UNL     1       2.612  -4.301  -1.113  0.00  0.00    -0.116 S 
BRANCH  12  13
ATOM     13  C   UNL     1       3.270  -5.699  -2.015  0.00  0.00    +0.008 A 
ATOM     14  C   UNL     1       3.504  -6.862  -1.261  0.00  0.00    +0.016 A 
ATOM     15  C   UNL     1       4.015  -8.020  -1.853  0.00  0.00    +0.021 A 
ATOM     16  C   UNL     1       4.297  -8.028  -3.213  0.00  0.00    +0.041 A 
ATOM     17 CL   UNL     1       4.920  -9.450  -3.951  0.00  0.00    -0.084 Cl
ATOM     18  C   UNL     1       4.078  -6.884  -3.978  0.00  0.00    +0.021 A 
ATOM     19  C   UNL     1       3.563  -5.723  -3.381  0.00  0.00    +0.016 A 
ENDBRANCH  12  13
ENDBRANCH  11  12
ENDBRANCH   9  11
ENDBRANCH   1   7
BRANCH   1  20
ATOM     20  C   UNL     1       2.564  -0.026   1.472  0.00  0.00    +0.067 C 
BRANCH  20  21
ATOM     21  C   UNL     1       2.170   1.202   2.259  0.00  0.00    -0.045 A 
ATOM     22  C   UNL     1       3.156   2.050   2.774  0.00  0.00    +0.007 A 
ATOM     23  C   UNL     1       2.805   3.236   3.430  0.00  0.00    +0.042 A 
ATOM     24  C   UNL     1       1.465   3.605   3.585  0.00  0.00    +0.100 A 
ATOM     25  C   UNL     1       0.483   2.716   3.134  0.00  0.00    +0.042 A 
ATOM     26  C   UNL     1       0.827   1.530   2.474  0.00  0.00    +0.007 A 
BRANCH  24  27
ATOM     27  N   UNL     1       1.165   4.819   4.223  0.00  0.00    -0.244 N 
ATOM     28  H   UNL     1       1.834   5.558   4.059  0.00  0.00    +0.265 HD
ATOM     29  C   UNL     1      -0.004   5.200   4.786  0.00  0.00    +0.381 C 
ATOM     30  N   UNL     1      -0.829   4.478   5.456  0.00  0.00    -0.129 NA
ATOM     31  H   UNL     1      -0.424   3.537   5.523  0.00  0.00    +0.306 HD
ATOM     32  N   UNL     1      -0.269   6.517   4.639  0.00  0.00    -0.289 N 
ATOM     33  H   UNL     1      -1.181   6.710   5.052  0.00  0.00    +0.255 HD
ATOM     34  H   UNL     1      -0.274   6.808   3.669  0.00  0.00    +0.255 HD
ENDBRANCH  24  27
ENDBRANCH  20  21
ENDBRANCH   1  20
TORSDOF 8
