REMARK  Name = 
REMARK  4 active torsions:
REMARK  status: ('A' for Active; 'I' for Inactive)
REMARK    1  A    between atoms: N_1  and  C_2
REMARK    2  A    between atoms: C_3  and  C_16
REMARK    3  A    between atoms: N_6  and  C_7
REMARK    4  A    between atoms: C_16  and  C_18
REMARK                            x       y       z     vdW  Elec       q    Type
REMARK                         _______ _______ _______ _____ _____    ______ ____
ROOT
ATOM      1  C   UNL     1       2.500   0.207   0.017  0.00  0.00    +0.287 A 
ATOM      2  N   UNL     1       3.164  -0.942  -0.309  0.00  0.00    -0.172 N 
ATOM      3  H   UNL     1       2.792  -1.876  -0.180  0.00  0.00    +0.457 HD
ATOM      4  C   UNL     1       4.404  -0.728  -0.746  0.00  0.00    +0.317 A 
ATOM      5  N   UNL     1       5.291  -1.657  -1.077  0.00  0.00    -0.256 N 
ATOM      6  H   UNL     1       6.244  -1.309  -1.053  0.00  0.00    +0.158 HD
ATOM      7  S   UNL     1       4.813   0.944  -0.768  0.00  0.00    +0.009 S 
ATOM      8  C   UNL     1       3.284   1.337  -0.068  0.00  0.00    +0.154 A 
ENDROOT
BRANCH   5   9
ATOM      9  C   UNL     1       5.063  -2.950  -1.419  0.00  0.00    +0.038 A 
ATOM     10  C   UNL     1       6.061  -3.898  -1.177  0.00  0.00    +0.023 A 
ATOM     11  C   UNL     1       5.866  -5.239  -1.518  0.00  0.00    +0.003 A 
ATOM     12  C   UNL     1       4.679  -5.634  -2.134  0.00  0.00    +0.020 A 
ATOM     13  C   UNL     1       3.697  -4.690  -2.407  0.00  0.00    +0.043 A 
ATOM     14 CL   UNL     1       2.241  -5.153  -3.190  0.00  0.00    -0.083 Cl
ATOM     15  C   UNL     1       3.882  -3.353  -2.053  0.00  0.00    +0.043 A 
ENDBRANCH   5   9
BRANCH   1  16
ATOM     16  N   UNL     1       1.234   0.150   0.440  0.00  0.00    -0.305 N 
ATOM     17  H   UNL     1       0.629  -0.656   0.309  0.00  0.00    +0.148 HD
ATOM     18  H   UNL     1       0.687   1.015   0.512  0.00  0.00    +0.148 HD
ENDBRANCH   1  16
BRANCH   8  19
ATOM     19  C   UNL     1       2.922   2.699   0.274  0.00  0.00    +0.208 C 
ATOM     20  O   UNL     1       1.760   3.095   0.184  0.00  0.00    -0.286 OA
BRANCH  19  21
ATOM     21  C   UNL     1       3.947   3.662   0.795  0.00  0.00    +0.023 A 
ATOM     22  C   UNL     1       3.785   5.030   0.534  0.00  0.00    +0.014 A 
ATOM     23  C   UNL     1       4.703   5.954   1.041  0.00  0.00    +0.039 A 
ATOM     24  C   UNL     1       5.781   5.511   1.800  0.00  0.00    +0.123 A 
ATOM     25  F   UNL     1       6.653   6.397   2.294  0.00  0.00    -0.205 F 
ATOM     26  C   UNL     1       5.956   4.159   2.069  0.00  0.00    +0.039 A 
ATOM     27  C   UNL     1       5.030   3.234   1.583  0.00  0.00    +0.014 A 
ENDBRANCH  19  21
ENDBRANCH   8  19
TORSDOF 4
