REMARK  Name = 
REMARK  10 active torsions:
REMARK  status: ('A' for Active; 'I' for Inactive)
REMARK    1  A    between atoms: C_2  and  C_3
REMARK    2  A    between atoms: C_2  and  N_4
REMARK    3  A    between atoms: C_2  and  C_8
REMARK    4  A    between atoms: C_5  and  C_6
REMARK    5  A    between atoms: N_10  and  C_11
REMARK    6  A    between atoms: C_11  and  C_13
REMARK    7  A    between atoms: C_11  and  C_20
REMARK    8  A    between atoms: C_13  and  C_14
REMARK    9  A    between atoms: C_20  and  C_22
REMARK   10  A    between atoms: C_22  and  C_23
REMARK                            x       y       z     vdW  Elec       q    Type
REMARK                         _______ _______ _______ _____ _____    ______ ____
ROOT
ATOM      1  C   UNL     1       4.551  -1.936  -2.303  0.00  0.00    +0.143 C 
ENDROOT
BRANCH   1   3
ATOM      2  C   UNL     1       2.684  -0.895  -1.008  0.00  0.00    +0.234 C 
ATOM      3  N   UNL     1       4.030  -1.042  -1.264  0.00  0.00    -0.304 N 
ATOM      4  H   UNL     1       4.612  -0.858  -0.448  0.00  0.00    +0.149 HD
ATOM      5  O   UNL     1       1.814  -1.540  -1.590  0.00  0.00    -0.274 OA
BRANCH   2   6
ATOM      6  C   UNL     1       2.345   0.060   0.164  0.00  0.00    +0.156 C 
ATOM      7  C   UNL     1       3.264   1.273   0.302  0.00  0.00    +0.038 C 
BRANCH   6   8
ATOM      8  N   UNL     1       2.219  -0.709   1.396  0.00  0.00    -0.304 N 
ATOM      9  H   UNL     1       1.296  -0.777   1.812  0.00  0.00    +0.149 HD
ATOM     10  C   UNL     1       3.272  -1.370   1.969  0.00  0.00    +0.211 C 
ATOM     11  O   UNL     1       4.417  -1.325   1.522  0.00  0.00    -0.276 OA
ATOM     12  C   UNL     1       2.914  -2.173   3.188  0.00  0.00    +0.109 C 
ENDBRANCH   6   8
ENDBRANCH   2   6
ENDBRANCH   1   3
BRANCH   1  13
ATOM     13  C   UNL     1       6.097  -2.039  -2.252  0.00  0.00    +0.155 C 
ATOM     14  O   UNL     1       6.794  -2.048  -3.271  0.00  0.00    -0.295 OA
BRANCH  13  15
ATOM     15  C   UNL     1       6.748  -2.369  -0.922  0.00  0.00    +0.092 C 
BRANCH  15  16
ATOM     16  C   UNL     1       8.038  -1.589  -0.760  0.00  0.00    +0.116 C 
ATOM     17 CL   UNL     1       8.784  -1.955   0.816  0.00  0.00    -0.125 Cl
ENDBRANCH  15  16
ENDBRANCH  13  15
ENDBRANCH   1  13
BRANCH   1  18
ATOM     18  C   UNL     1       4.049  -1.607  -3.734  0.00  0.00    +0.065 C 
BRANCH  18  19
ATOM     19  C   UNL     1       4.434  -0.250  -4.284  0.00  0.00    -0.045 A 
ATOM     20  C   UNL     1       3.963   0.936  -3.707  0.00  0.00    +0.004 A 
ATOM     21  C   UNL     1       4.355   2.181  -4.197  0.00  0.00    +0.000 A 
ATOM     22  C   UNL     1       5.193   2.256  -5.304  0.00  0.00    +0.000 A 
ATOM     23  C   UNL     1       5.637   1.089  -5.920  0.00  0.00    +0.000 A 
ATOM     24  C   UNL     1       5.263  -0.157  -5.411  0.00  0.00    +0.004 A 
ENDBRANCH  18  19
ENDBRANCH   1  18
TORSDOF 8
