REMARK  Name = 
REMARK  5 active torsions:
REMARK  status: ('A' for Active; 'I' for Inactive)
REMARK    1  A    between atoms: O_1  and  C_2
REMARK    2  A    between atoms: C_2  and  C_4
REMARK    3  A    between atoms: N_7  and  C_10
REMARK    4  A    between atoms: C_11  and  N_12
REMARK    5  A    between atoms: C_16  and  C_18
REMARK                            x       y       z     vdW  Elec       q    Type
REMARK                         _______ _______ _______ _____ _____    ______ ____
ROOT
ATOM      1  C   UNL     1       0.539   1.292  -4.491  0.00  0.00    +0.051 A 
ATOM      2  C   UNL     1       0.491   2.653  -4.869  0.00  0.00    +0.028 A 
ATOM      3  C   UNL     1       0.057   3.076  -6.132  0.00  0.00    +0.040 A 
ATOM      4  C   UNL     1      -0.352   2.141  -7.060  0.00  0.00    +0.125 A 
ATOM      5  F   UNL     1      -0.762   2.535  -8.271  0.00  0.00    -0.205 F 
ATOM      6  C   UNL     1      -0.347   0.795  -6.744  0.00  0.00    +0.063 A 
ATOM      7  C   UNL     1       0.097   0.368  -5.479  0.00  0.00    +0.059 A 
ENDROOT
BRANCH   7   8
ATOM      8  N   UNL     1      -0.015  -1.006  -5.196  0.00  0.00    -0.267 N 
ATOM      9  H   UNL     1      -0.307  -1.258  -4.258  0.00  0.00    +0.156 HD
ATOM     10  C   UNL     1       0.404  -2.080  -5.950  0.00  0.00    +0.310 C 
ATOM     11  N   UNL     1       1.200  -1.776  -7.036  0.00  0.00    -0.236 N 
ATOM     12  H   UNL     1       1.519  -0.824  -7.074  0.00  0.00    +0.159 HD
ATOM     13  C   UNL     1       1.860  -2.699  -7.820  0.00  0.00    +0.253 C 
ATOM     14  O   UNL     1       1.660  -3.907  -7.806  0.00  0.00    -0.270 OA
ATOM     15  O   UNL     1       0.125  -3.210  -5.559  0.00  0.00    -0.252 OA
BRANCH  13  16
ATOM     16  C   UNL     1       2.845  -2.184  -8.823  0.00  0.00    +0.058 A 
ATOM     17  C   UNL     1       3.664  -1.054  -8.668  0.00  0.00    +0.056 A 
ATOM     18 CL   UNL     1       3.608  -0.018  -7.284  0.00  0.00    -0.083 Cl
ATOM     19  C   UNL     1       4.616  -0.729  -9.649  0.00  0.00    +0.062 A 
ATOM     20  C   UNL     1       4.746  -1.526 -10.783  0.00  0.00    +0.160 A 
ATOM     21  F   UNL     1       5.675  -1.221 -11.698  0.00  0.00    -0.202 F 
ATOM     22  C   UNL     1       3.931  -2.631 -10.955  0.00  0.00    +0.159 A 
ATOM     23  F   UNL     1       4.052  -3.397 -12.047  0.00  0.00    -0.202 F 
ATOM     24  C   UNL     1       2.987  -2.964  -9.989  0.00  0.00    +0.055 A 
ENDBRANCH  13  16
ENDBRANCH   7   8
BRANCH   1  28
ATOM     25  C   UNL     1       3.056   0.796  -1.112  0.00  0.00    +0.101 C 
ATOM     26  C   UNL     1       2.308   2.091  -1.455  0.00  0.00    +0.033 C 
ATOM     27  C   UNL     1       0.934   1.815  -2.076  0.00  0.00    +0.106 C 
ATOM     28  N   UNL     1       1.089   0.946  -3.256  0.00  0.00    -0.328 N 
ATOM     29  C   UNL     1       1.753  -0.335  -2.996  0.00  0.00    +0.106 C 
ATOM     30  C   UNL     1       3.117  -0.112  -2.339  0.00  0.00    +0.033 C 
BRANCH  25  31
ATOM     31  C   UNL     1       2.441   0.096   0.089  0.00  0.00    +0.308 C 
ATOM     32  O   UNL     1       1.415   0.445   0.652  0.00  0.00    -0.251 OA
BRANCH  31  33
ATOM     33  O   UNL     1       3.166  -0.958   0.528  0.00  0.00    -0.480 OA
ATOM     34  H   UNL     1       4.001  -1.112   0.049  0.00  0.00    +0.295 HD
ENDBRANCH  31  33
ENDBRANCH  25  31
ENDBRANCH   1  28
TORSDOF 5
