REMARK  Name = 
REMARK  14 active torsions:
REMARK  status: ('A' for Active; 'I' for Inactive)
REMARK    1  A    between atoms: C_2  and  N_3
REMARK    2  A    between atoms: C_4  and  O_6
REMARK    3  A    between atoms: C_7  and  C_9
REMARK    4  A    between atoms: C_9  and  O_10
REMARK    5  A    between atoms: C_12  and  O_14
REMARK    6  A    between atoms: O_14  and  C_15
REMARK    7  A    between atoms: C_15  and  C_16
REMARK    8  A    between atoms: C_16  and  C_17
REMARK    9  A    between atoms: C_17  and  C_18
REMARK   10  A    between atoms: C_18  and  C_19
REMARK   11  A    between atoms: C_19  and  C_20
REMARK   12  A    between atoms: C_20  and  C_21
REMARK   13  A    between atoms: C_21  and  C_22
REMARK   14  A    between atoms: C_23  and  O_25
REMARK                            x       y       z     vdW  Elec       q    Type
REMARK                         _______ _______ _______ _____ _____    ______ ____
ROOT
ATOM      1  C   UNL     1       3.393   2.475  -1.968  0.00  0.00    +0.116 C 
ATOM      2  C   UNL     1       2.707   1.880  -3.206  0.00  0.00    +0.189 C 
ATOM      3  C   UNL     1       1.891   0.613  -2.883  0.00  0.00    +0.281 C 
ATOM      4  O   UNL     1       2.689  -0.356  -2.205  0.00  0.00    -0.341 OA
ATOM      5  C   UNL     1       3.400   0.062  -1.027  0.00  0.00    +0.177 C 
ATOM      6  C   UNL     1       4.178   1.380  -1.218  0.00  0.00    +0.165 C 
ENDROOT
BRANCH   1   7
ATOM      7  N   UNL     1       2.499   3.214  -1.050  0.00  0.00    -0.323 NA
ATOM      8  H   UNL     1       2.179   4.063  -1.529  0.00  0.00    +0.119 HD
ATOM      9  H   UNL     1       1.639   2.664  -0.923  0.00  0.00    +0.119 HD
ENDBRANCH   1   7
BRANCH   2  10
ATOM     10  O   UNL     1       3.723   1.565  -4.179  0.00  0.00    -0.385 OA
ATOM     11  H   UNL     1       4.052   0.667  -3.979  0.00  0.00    +0.210 HD
ENDBRANCH   2  10
BRANCH   6  12
ATOM     12  O   UNL     1       4.676   1.903   0.019  0.00  0.00    -0.388 OA
ATOM     13  H   UNL     1       4.185   2.741   0.161  0.00  0.00    +0.210 HD
ENDBRANCH   6  12
BRANCH   3  14
ATOM     14  O   UNL     1       0.649   0.916  -2.236  0.00  0.00    -0.349 OA
BRANCH  14  15
ATOM     15  C   UNL     1      -0.261  -0.187  -2.366  0.00  0.00    +0.163 C 
BRANCH  15  16
ATOM     16  C   UNL     1      -1.702   0.219  -2.044  0.00  0.00    +0.028 C 
BRANCH  16  17
ATOM     17  C   UNL     1      -2.315   1.189  -3.067  0.00  0.00    +0.002 C 
BRANCH  17  18
ATOM     18  C   UNL     1      -3.798   1.447  -2.764  0.00  0.00    +0.000 C 
BRANCH  18  19
ATOM     19  C   UNL     1      -4.440   2.444  -3.735  0.00  0.00    -0.000 C 
BRANCH  19  20
ATOM     20  C   UNL     1      -5.913   2.681  -3.380  0.00  0.00    -0.000 C 
BRANCH  20  21
ATOM     21  C   UNL     1      -6.583   3.685  -4.319  0.00  0.00    -0.003 C 
ATOM     22  C   UNL     1      -8.039   3.907  -3.944  0.00  0.00    +0.004 C 
ENDBRANCH  20  21
ENDBRANCH  19  20
ENDBRANCH  18  19
ENDBRANCH  17  18
ENDBRANCH  16  17
ENDBRANCH  15  16
ENDBRANCH  14  15
ENDBRANCH   3  14
BRANCH   5  23
ATOM     23  C   UNL     1       2.559  -0.004   0.260  0.00  0.00    +0.190 C 
BRANCH  23  24
ATOM     24  O   UNL     1       2.008  -1.315   0.424  0.00  0.00    -0.392 OA
ATOM     25  H   UNL     1       1.638  -1.356   1.322  0.00  0.00    +0.210 HD
ENDBRANCH  23  24
ENDBRANCH   5  23
TORSDOF 13
