REMARK  Name = 
REMARK  6 active torsions:
REMARK  status: ('A' for Active; 'I' for Inactive)
REMARK    1  A    between atoms: C_1  and  N_2
REMARK    2  A    between atoms: C_6  and  S_7
REMARK    3  A    between atoms: S_7  and  C_8
REMARK    4  A    between atoms: C_11  and  N_12
REMARK    5  A    between atoms: C_13  and  C_15
REMARK    6  A    between atoms: C_20  and  C_21
REMARK                            x       y       z     vdW  Elec       q    Type
REMARK                         _______ _______ _______ _____ _____    ______ ____
ROOT
ATOM      1  C   UNL     1       0.746  -2.760   0.111  0.00  0.00    +0.016 A 
ATOM      2  C   UNL     1      -0.119  -1.660   0.092  0.00  0.00    +0.030 A 
ATOM      3  C   UNL     1      -1.483  -1.753  -0.259  0.00  0.00    +0.059 A 
ATOM      4  C   UNL     1      -2.036  -3.031  -0.491  0.00  0.00    +0.037 A 
ATOM      5  C   UNL     1      -1.197  -4.148  -0.398  0.00  0.00    +0.024 A 
ATOM      6  C   UNL     1       0.178  -4.012  -0.148  0.00  0.00    +0.017 A 
ENDROOT
BRANCH   3   7
ATOM      7  C   UNL     1      -2.315  -0.506  -0.498  0.00  0.00    +0.251 C 
ATOM      8  N   UNL     1      -1.700   0.708  -0.270  0.00  0.00    -0.261 N 
ATOM      9  H   UNL     1      -0.784   0.796   0.136  0.00  0.00    +0.157 HD
ATOM     10  C   UNL     1      -2.285   1.909  -0.559  0.00  0.00    +0.165 A 
ATOM     11  S   UNL     1      -1.394   3.243   0.032  0.00  0.00    -0.060 S 
ATOM     12  C   UNL     1      -2.606   4.292  -0.571  0.00  0.00    +0.071 A 
ATOM     13  C   UNL     1      -3.571   3.561  -1.241  0.00  0.00    +0.047 A 
ATOM     14  C   UNL     1      -4.750   4.113  -1.955  0.00  0.00    +0.066 C 
ATOM     15  N   UNL     1      -3.385   2.188  -1.208  0.00  0.00    -0.230 NA
ATOM     16  O   UNL     1      -3.468  -0.641  -0.903  0.00  0.00    -0.270 OA
ENDBRANCH   3   7
BRANCH   4  17
ATOM     17  N   UNL     1      -3.425  -3.246  -0.559  0.00  0.00    -0.357 N 
ATOM     18  H   UNL     1      -3.926  -2.388  -0.831  0.00  0.00    +0.142 HD
ATOM     19  H   UNL     1      -3.717  -4.047  -1.103  0.00  0.00    +0.142 HD
ENDBRANCH   4  17
BRANCH   1  20
ATOM     20  S   UNL     1       2.508  -2.701   0.484  0.00  0.00    -0.050 S 
BRANCH  20  23
ATOM     21  C   UNL     1       5.491  -1.368   0.802  0.00  0.00    +0.152 C 
ATOM     22  N   UNL     1       4.285  -0.608   0.626  0.00  0.00    -0.311 N 
ATOM     23  C   UNL     1       2.989  -1.037   0.467  0.00  0.00    +0.196 A 
ATOM     24  N   UNL     1       2.229   0.028   0.336  0.00  0.00    -0.122 NA
ATOM     25  N   UNL     1       3.000   1.154   0.425  0.00  0.00    -0.137 NA
ATOM     26  C   UNL     1       4.237   0.758   0.584  0.00  0.00    +0.225 A 
ENDBRANCH  20  23
ENDBRANCH   1  20
TORSDOF 4
