REMARK  Name = 
REMARK  2 active torsions:
REMARK  status: ('A' for Active; 'I' for Inactive)
REMARK    1  A    between atoms: C_3  and  C_15
REMARK    2  A    between atoms: C_6  and  N_7
REMARK                            x       y       z     vdW  Elec       q    Type
REMARK                         _______ _______ _______ _____ _____    ______ ____
ROOT
ATOM      1 CL   UNL     1       0.882  -0.243   0.552  0.00  0.00    -0.080 Cl
ATOM      2  C   UNL     1       2.573  -0.119   0.248  0.00  0.00    +0.078 A 
ATOM      3  C   UNL     1       3.385  -1.296   0.105  0.00  0.00    +0.079 A 
ATOM      4  C   UNL     1       4.716  -0.978  -0.024  0.00  0.00    +0.072 A 
ATOM      5  S   UNL     1       4.981   0.698  -0.077  0.00  0.00    -0.093 S 
ATOM      6  C   UNL     1       3.299   1.061   0.108  0.00  0.00    +0.040 A 
ENDROOT
BRANCH   3   7
ATOM      7  N   UNL     1       2.918  -2.615   0.060  0.00  0.00    -0.180 N 
ATOM      8  S   UNL     1       2.465  -3.358  -1.380  0.00  0.00    +0.129 S 
ATOM      9  O   UNL     1       3.466  -3.140  -2.392  0.00  0.00    -0.135 OA
ATOM     10  O   UNL     1       1.055  -3.166  -1.601  0.00  0.00    -0.135 OA
ATOM     11  N   UNL     1       2.660  -4.875  -0.750  0.00  0.00    -0.171 N 
ATOM     12  H   UNL     1       2.438  -5.688  -1.308  0.00  0.00    +0.178 HD
ATOM     13  C   UNL     1       2.645  -4.889   0.650  0.00  0.00    +0.252 C 
ATOM     14  O   UNL     1       2.584  -5.924   1.291  0.00  0.00    -0.272 OA
ATOM     15  C   UNL     1       2.669  -3.471   1.233  0.00  0.00    +0.230 C 
ENDBRANCH   3   7
BRANCH   6  16
ATOM     16  C   UNL     1       2.869   2.480   0.063  0.00  0.00    -0.010 A 
ATOM     17  C   UNL     1       1.637   2.843  -0.504  0.00  0.00    +0.009 A 
ATOM     18  C   UNL     1       1.229   4.181  -0.565  0.00  0.00    +0.001 A 
ATOM     19  C   UNL     1       2.058   5.188  -0.085  0.00  0.00    +0.000 A 
ATOM     20  C   UNL     1       3.293   4.858   0.463  0.00  0.00    +0.001 A 
ATOM     21  C   UNL     1       3.689   3.519   0.544  0.00  0.00    +0.009 A 
ENDBRANCH   6  16
TORSDOF 2
