REMARK  Name = 
REMARK  3 active torsions:
REMARK  status: ('A' for Active; 'I' for Inactive)
REMARK    1  A    between atoms: C_2  and  C_3
REMARK    2  A    between atoms: C_3  and  P_4
REMARK    3  A    between atoms: C_12  and  C_13
REMARK                            x       y       z     vdW  Elec       q    Type
REMARK                         _______ _______ _______ _____ _____    ______ ____
ROOT
ATOM      1  C   UNL     1       2.141  -0.063   0.081  0.00  0.00    +0.180 C 
ATOM      2  O   UNL     1       2.689   1.159   0.614  0.00  0.00    -0.488 OA
ATOM      3  C   UNL     1       4.046   1.141   0.811  0.00  0.00    +0.124 A 
ATOM      4  C   UNL     1       4.789  -0.039   0.916  0.00  0.00    -0.005 A 
ATOM      5  C   UNL     1       6.176   0.039   1.122  0.00  0.00    +0.010 A 
ATOM      6  C   UNL     1       6.815   1.279   1.251  0.00  0.00    -0.050 A 
ATOM      7  C   UNL     1       6.051   2.449   1.165  0.00  0.00    +0.007 A 
ATOM      8  C   UNL     1       8.296   1.362   1.479  0.00  0.00    +0.044 C 
ATOM      9  C   UNL     1       4.119  -1.376   0.780  0.00  0.00    +0.042 C 
ATOM     10  C   UNL     1       4.672   2.377   0.950  0.00  0.00    +0.046 A 
ATOM     11  C   UNL     1       2.608  -1.245   0.927  0.00  0.00    +0.050 C 
ENDROOT
BRANCH   1  12
ATOM     12  C   UNL     1       0.611   0.041   0.068  0.00  0.00    +0.096 C 
BRANCH  12  13
ATOM     13  P   UNL     1       0.138   1.447  -1.003  0.00  0.00    +0.007 P 
ATOM     14  O   UNL     1      -0.262   2.637  -1.909  0.00  0.00    -0.340 OA
ATOM     15  O   UNL     1      -1.302   0.999  -0.643  0.00  0.00    -0.804 OA
ATOM     16  H   UNL     1       0.775   0.716  -2.029  0.00  0.00    +0.083 HD
ENDBRANCH  12  13
ENDBRANCH   1  12
TORSDOF 2
