REMARK  Name = 
REMARK  24 active torsions:
REMARK  status: ('A' for Active; 'I' for Inactive)
REMARK    1  A    between atoms: C_2  and  C_3
REMARK    2  A    between atoms: C_2  and  C_7
REMARK    3  A    between atoms: C_2  and  N_16
REMARK    4  A    between atoms: C_3  and  C_4
REMARK    5  A    between atoms: C_4  and  C_5
REMARK    6  A    between atoms: C_5  and  C_6
REMARK    7  A    between atoms: C_7  and  O_8
REMARK    8  A    between atoms: O_8  and  P_9
REMARK    9  A    between atoms: P_9  and  O_10
REMARK   10  A    between atoms: P_9  and  O_12
REMARK   11  A    between atoms: O_12  and  C_13
REMARK   12  A    between atoms: C_13  and  C_14
REMARK   13  A    between atoms: C_14  and  O_15
REMARK   14  A    between atoms: C_17  and  C_19
REMARK   15  A    between atoms: C_19  and  C_20
REMARK   16  A    between atoms: C_20  and  C_21
REMARK   17  A    between atoms: C_21  and  C_22
REMARK   18  A    between atoms: C_22  and  C_23
REMARK   19  A    between atoms: C_23  and  C_24
REMARK   20  A    between atoms: C_24  and  C_25
REMARK   21  A    between atoms: C_25  and  C_26
REMARK   22  A    between atoms: C_26  and  C_27
REMARK   23  A    between atoms: C_27  and  C_28
REMARK   24  A    between atoms: C_28  and  C_29
REMARK                            x       y       z     vdW  Elec       q    Type
REMARK                         _______ _______ _______ _____ _____    ______ ____
ROOT
ATOM      1  C   UNL     1      -1.182   3.112  -1.784  0.00  0.00    +0.099 C 
ENDROOT
BRANCH   1   2
ATOM      2  N   UNL     1      -1.913   2.519  -0.669  0.00  0.00    -0.310 N 
ATOM      3  H   UNL     1      -2.278   3.131   0.050  0.00  0.00    +0.149 HD
ATOM      4  C   UNL     1      -1.893   1.166  -0.424  0.00  0.00    +0.213 C 
ATOM      5  O   UNL     1      -1.311   0.350  -1.130  0.00  0.00    -0.276 OA
BRANCH   4   6
ATOM      6  C   UNL     1      -2.735   0.757   0.761  0.00  0.00    +0.096 C 
BRANCH   6   7
ATOM      7  C   UNL     1      -4.193   0.633   0.333  0.00  0.00    +0.009 C 
BRANCH   7   8
ATOM      8  C   UNL     1      -5.078   0.202   1.497  0.00  0.00    +0.000 C 
BRANCH   8   9
ATOM      9  C   UNL     1      -6.529   0.058   1.045  0.00  0.00    +0.000 C 
BRANCH   9  10
ATOM     10  C   UNL     1      -7.423  -0.373   2.203  0.00  0.00    +0.000 C 
BRANCH  10  11
ATOM     11  C   UNL     1      -8.873  -0.518   1.747  0.00  0.00    +0.000 C 
BRANCH  11  12
ATOM     12  C   UNL     1      -9.763  -0.949   2.909  0.00  0.00    -0.000 C 
BRANCH  12  13
ATOM     13  C   UNL     1     -11.215  -1.099   2.465  0.00  0.00    -0.000 C 
BRANCH  13  14
ATOM     14  C   UNL     1     -12.096  -1.530   3.636  0.00  0.00    -0.000 C 
BRANCH  14  15
ATOM     15  C   UNL     1     -13.552  -1.684   3.207  0.00  0.00    -0.003 C 
ATOM     16  C   UNL     1     -14.425  -2.113   4.375  0.00  0.00    +0.004 C 
ENDBRANCH  14  15
ENDBRANCH  13  14
ENDBRANCH  12  13
ENDBRANCH  11  12
ENDBRANCH  10  11
ENDBRANCH   9  10
ENDBRANCH   8   9
ENDBRANCH   7   8
ENDBRANCH   6   7
ENDBRANCH   4   6
ENDBRANCH   1   2
BRANCH   1  17
ATOM     17  C   UNL     1       0.285   3.400  -1.406  0.00  0.00    +0.024 C 
BRANCH  17  18
ATOM     18  C   UNL     1       0.454   4.459  -0.311  0.00  0.00    +0.002 C 
BRANCH  18  19
ATOM     19  C   UNL     1       1.927   4.686   0.031  0.00  0.00    -0.003 C 
ATOM     20  C   UNL     1       2.079   5.742   1.114  0.00  0.00    +0.004 C 
ENDBRANCH  18  19
ENDBRANCH  17  18
ENDBRANCH   1  17
BRANCH   1  21
ATOM     21  C   UNL     1      -1.941   4.337  -2.306  0.00  0.00    +0.194 C 
BRANCH  21  22
ATOM     22  O   UNL     1      -1.321   4.861  -3.466  0.00  0.00    -0.285 OA
BRANCH  22  23
ATOM     23  P   UNL     1      -1.894   6.234  -4.058  0.00  0.00    +0.475 P 
ATOM     24  O   UNL     1      -1.227   6.757  -5.284  0.00  0.00    -0.227 OA
BRANCH  23  25
ATOM     25  O   UNL     1      -3.444   5.902  -4.304  0.00  0.00    -0.302 OA
ATOM     26  H   UNL     1      -3.559   5.481  -5.178  0.00  0.00    +0.222 HD
ENDBRANCH  23  25
BRANCH  23  27
ATOM     27  O   UNL     1      -1.949   7.232  -2.806  0.00  0.00    -0.284 OA
BRANCH  27  28
ATOM     28  C   UNL     1      -2.091   8.626  -3.043  0.00  0.00    +0.200 C 
BRANCH  28  29
ATOM     29  C   UNL     1      -3.381   8.964  -3.785  0.00  0.00    +0.184 C 
BRANCH  29  30
ATOM     30  O   UNL     1      -4.506   8.451  -3.077  0.00  0.00    -0.393 OA
ATOM     31  H   UNL     1      -4.409   7.479  -3.074  0.00  0.00    +0.209 HD
ENDBRANCH  29  30
ENDBRANCH  28  29
ENDBRANCH  27  28
ENDBRANCH  23  27
ENDBRANCH  22  23
ENDBRANCH  21  22
ENDBRANCH   1  21
TORSDOF 22
