REMARK  Name = 
REMARK  6 active torsions:
REMARK  status: ('A' for Active; 'I' for Inactive)
REMARK    1  A    between atoms: C_2  and  N_25
REMARK    2  A    between atoms: N_5  and  C_6
REMARK    3  A    between atoms: C_6  and  C_7
REMARK    4  A    between atoms: N_9  and  C_10
REMARK    5  A    between atoms: C_14  and  N_17
REMARK    6  A    between atoms: C_26  and  C_28
REMARK                            x       y       z     vdW  Elec       q    Type
REMARK                         _______ _______ _______ _____ _____    ______ ____
ROOT
ATOM      1  C   UNL     1       4.912  -3.100   1.681  0.00  0.00    +0.231 C 
ATOM      2  N   UNL     1       3.662  -3.616   1.397  0.00  0.00    -0.282 N 
ATOM      3  H   UNL     1       3.140  -3.137   0.669  0.00  0.00    +0.155 HD
ATOM      4  O   UNL     1       5.835  -3.730   2.193  0.00  0.00    -0.274 OA
ENDROOT
BRANCH   2   5
ATOM      5  C   UNL     1       3.228  -4.889   1.792  0.00  0.00    +0.069 A 
ATOM      6  C   UNL     1       3.464  -5.378   3.077  0.00  0.00    +0.028 A 
ATOM      7  C   UNL     1       2.935  -6.615   3.453  0.00  0.00    +0.028 A 
ATOM      8  C   UNL     1       2.243  -7.404   2.523  0.00  0.00    +0.052 A 
ATOM      9  C   UNL     1       2.052  -6.932   1.221  0.00  0.00    +0.066 A 
ATOM     10  C   UNL     1       2.494  -5.657   0.889  0.00  0.00    +0.146 A 
ATOM     11  F   UNL     1       2.247  -5.181  -0.343  0.00  0.00    -0.203 F 
BRANCH   8  12
ATOM     12  N   UNL     1       1.711  -8.667   2.908  0.00  0.00    -0.284 N 
ATOM     13  C   UNL     1       0.814  -8.704   3.991  0.00  0.00    +0.256 A 
ATOM     14  O   UNL     1       0.431  -7.738   4.648  0.00  0.00    -0.267 OA
ATOM     15  C   UNL     1       0.247 -10.043   4.320  0.00  0.00    +0.071 A 
ATOM     16  C   UNL     1       0.625 -11.129   3.637  0.00  0.00    +0.007 A 
ATOM     17  C   UNL     1       1.579 -11.021   2.566  0.00  0.00    +0.018 A 
ATOM     18  C   UNL     1       2.065  -9.822   2.221  0.00  0.00    +0.095 A 
ENDBRANCH   8  12
ENDBRANCH   2   5
BRANCH   1  19
ATOM     19  C   UNL     1       5.089  -1.653   1.207  0.00  0.00    +0.180 C 
BRANCH  19  22
ATOM     20  C   UNL     1       3.823   1.478   2.131  0.00  0.00    +0.088 C 
ATOM     21  C   UNL     1       4.009   0.519   0.946  0.00  0.00    +0.107 C 
ATOM     22  N   UNL     1       3.866  -0.858   1.460  0.00  0.00    -0.292 NA
ATOM     23  C   UNL     1       3.580  -0.768   2.903  0.00  0.00    +0.087 C 
ATOM     24  C   UNL     1       3.047   0.634   3.131  0.00  0.00    +0.039 C 
BRANCH  20  25
ATOM     25  N   UNL     1       5.088   1.949   2.687  0.00  0.00    -0.307 N 
ATOM     26  H   UNL     1       5.254   1.848   3.678  0.00  0.00    +0.149 HD
ATOM     27  C   UNL     1       5.911   2.813   1.998  0.00  0.00    +0.251 C 
ATOM     28  O   UNL     1       5.695   3.089   0.818  0.00  0.00    -0.270 OA
BRANCH  27  29
ATOM     29  C   UNL     1       7.018   3.376   2.752  0.00  0.00    +0.075 A 
ATOM     30  S   UNL     1       7.204   3.124   4.442  0.00  0.00    -0.072 S 
ATOM     31  C   UNL     1       8.572   4.115   4.496  0.00  0.00    +0.079 A 
ATOM     32 CL   UNL     1       9.355   4.405   5.996  0.00  0.00    -0.076 Cl
ATOM     33  C   UNL     1       8.934   4.616   3.274  0.00  0.00    +0.028 A 
ATOM     34  C   UNL     1       8.030   4.184   2.258  0.00  0.00    +0.022 A 
ENDBRANCH  27  29
ENDBRANCH  20  25
ENDBRANCH  19  22
ENDBRANCH   1  19
TORSDOF 6
