REMARK  Name = 
REMARK  4 active torsions:
REMARK  status: ('A' for Active; 'I' for Inactive)
REMARK    1  A    between atoms: C_1  and  C_2
REMARK    2  A    between atoms: C_4  and  O_5
REMARK    3  A    between atoms: C_12  and  O_13
REMARK    4  A    between atoms: C_15  and  O_16
REMARK                            x       y       z     vdW  Elec       q    Type
REMARK                         _______ _______ _______ _____ _____    ______ ____
ROOT
ATOM      1  C   UNL     1       0.889   0.093  -0.076  0.00  0.00    +0.044 C 
ATOM      2  C   UNL     1       2.389   0.099  -0.078  0.00  0.00    -0.046 A 
ATOM      3  C   UNL     1       3.091  -1.108  -0.077  0.00  0.00    +0.016 A 
ATOM      4  C   UNL     1       4.497  -1.122  -0.079  0.00  0.00    +0.037 A 
ATOM      5  C   UNL     1       5.227   0.066  -0.081  0.00  0.00    +0.075 A 
ATOM      6  C   UNL     1       6.718   0.011  -0.080  0.00  0.00    +0.202 C 
ATOM      7  C   UNL     1       7.408  -1.313  -0.084  0.00  0.00    +0.075 A 
ATOM      8  C   UNL     1       8.811  -1.438  -0.089  0.00  0.00    +0.132 A 
ATOM      9  C   UNL     1       9.422  -2.697  -0.091  0.00  0.00    +0.091 A 
ATOM     10  C   UNL     1       8.639  -3.842  -0.088  0.00  0.00    +0.121 A 
ATOM     11  C   UNL     1       7.257  -3.750  -0.084  0.00  0.00    +0.058 A 
ATOM     12  C   UNL     1       6.646  -2.483  -0.082  0.00  0.00    +0.040 A 
ATOM     13  O   UNL     1       7.373   1.045  -0.074  0.00  0.00    -0.286 OA
ATOM     14  C   UNL     1       4.512   1.278  -0.083  0.00  0.00    +0.129 A 
ATOM     15  C   UNL     1       5.177  -2.427  -0.078  0.00  0.00    +0.195 C 
ATOM     16  O   UNL     1       4.524  -3.466  -0.074  0.00  0.00    -0.287 OA
ATOM     17  C   UNL     1       3.111   1.294  -0.081  0.00  0.00    +0.049 A 
ENDROOT
BRANCH   8  18
ATOM     18  O   UNL     1       9.620  -0.337  -0.093  0.00  0.00    -0.506 OA
ATOM     19  H   UNL     1      10.554  -0.597  -0.091  0.00  0.00    +0.292 HD
ENDBRANCH   8  18
BRANCH  10  20
ATOM     20  O   UNL     1       9.274  -5.047  -0.090  0.00  0.00    -0.507 OA
ATOM     21  H   UNL     1       8.610  -5.758  -0.087  0.00  0.00    +0.292 HD
ENDBRANCH  10  20
BRANCH  14  22
ATOM     22  O   UNL     1       5.162   2.480  -0.087  0.00  0.00    -0.506 OA
ATOM     23  H   UNL     1       4.532   3.216  -0.089  0.00  0.00    +0.292 HD
ENDBRANCH  14  22
TORSDOF 3
