REMARK  Name = 
REMARK  0 active torsions:
REMARK  status: ('A' for Active; 'I' for Inactive)
REMARK                            x       y       z     vdW  Elec       q    Type
REMARK                         _______ _______ _______ _____ _____    ______ ____
ROOT
ATOM      1  N   UNL     1       1.154   0.313   0.248  0.00  0.00    -0.329 N 
ATOM      2  H   UNL     1       0.535  -0.459   0.031  0.00  0.00    +0.145 HD
ATOM      3  H   UNL     1       0.775   1.217  -0.022  0.00  0.00    +0.145 HD
ATOM      4  C   UNL     1       2.484   0.194   0.157  0.00  0.00    +0.191 A 
ATOM      5  N   UNL     1       3.080  -1.033   0.232  0.00  0.00    -0.326 N 
ATOM      6  H   UNL     1       2.600  -1.908   0.375  0.00  0.00    +0.169 HD
ATOM      7  C   UNL     1       4.428  -0.864   0.056  0.00  0.00    +0.068 A 
ATOM      8  C   UNL     1       5.485  -1.768   0.003  0.00  0.00    +0.043 A 
ATOM      9  C   UNL     1       6.751  -1.214  -0.238  0.00  0.00    +0.067 A 
ATOM     10  C   UNL     1       6.965   0.163  -0.380  0.00  0.00    +0.082 A 
ATOM     11  C   UNL     1       5.872   1.039  -0.288  0.00  0.00    +0.058 A 
ATOM     12  N   UNL     1       8.245   0.695  -0.632  0.00  0.00    -0.216 NA
ATOM     13  C   UNL     1       9.240  -0.122  -0.763  0.00  0.00    +0.194 A 
ATOM     14  N   UNL     1      10.489   0.336  -1.020  0.00  0.00    -0.329 N 
ATOM     15  H   UNL     1      10.491   1.309  -1.310  0.00  0.00    +0.145 HD
ATOM     16  H   UNL     1      11.086  -0.249  -1.588  0.00  0.00    +0.145 HD
ATOM     17  N   UNL     1       9.103  -1.473  -0.666  0.00  0.00    -0.295 N 
ATOM     18  H   UNL     1       9.910  -2.071  -0.737  0.00  0.00    +0.172 HD
ATOM     19  C   UNL     1       7.918  -2.096  -0.380  0.00  0.00    +0.260 A 
ATOM     20  O   UNL     1       7.835  -3.313  -0.258  0.00  0.00    -0.267 OA
ATOM     21  C   UNL     1       4.584   0.511  -0.085  0.00  0.00    +0.093 A 
ATOM     22  N   UNL     1       3.365   1.147  -0.012  0.00  0.00    -0.215 NA
ENDROOT
TORSDOF 0
