REMARK  Name = 
REMARK  8 active torsions:
REMARK  status: ('A' for Active; 'I' for Inactive)
REMARK    1  A    between atoms: C_2  and  N_3
REMARK    2  A    between atoms: C_2  and  C_4
REMARK    3  A    between atoms: C_2  and  C_20
REMARK    4  A    between atoms: C_4  and  O_5
REMARK    5  A    between atoms: O_5  and  C_6
REMARK    6  A    between atoms: C_10  and  C_11
REMARK    7  A    between atoms: C_12  and  C_13
REMARK    8  A    between atoms: C_20  and  C_21
REMARK                            x       y       z     vdW  Elec       q    Type
REMARK                         _______ _______ _______ _____ _____    ______ ____
ROOT
ATOM      1  C   UNL     1       2.539  -1.378   0.123  0.00  0.00    +0.247 C 
ENDROOT
BRANCH   1   2
ATOM      2  C   UNL     1       2.091   0.093   0.059  0.00  0.00    +0.093 C 
BRANCH   2   3
ATOM      3  N   UNL     1       2.541   0.811   1.266  0.00  0.00    -0.324 NA
ATOM      4  H   UNL     1       2.172   1.764   1.238  0.00  0.00    +0.119 HD
ATOM      5  H   UNL     1       2.127   0.365   2.086  0.00  0.00    +0.119 HD
ENDBRANCH   2   3
BRANCH   2   6
ATOM      6  C   UNL     1       2.685   0.702  -1.239  0.00  0.00    +0.059 C 
BRANCH   6   7
ATOM      7  C   UNL     1       2.216   2.093  -1.521  0.00  0.00    -0.021 A 
ATOM      8  C   UNL     1       2.824   3.306  -1.070  0.00  0.00    +0.003 A 
ATOM      9  C   UNL     1       3.988   3.604  -0.331  0.00  0.00    +0.010 A 
ATOM     10  C   UNL     1       4.236   4.924   0.058  0.00  0.00    +0.001 A 
ATOM     11  C   UNL     1       3.351   5.942  -0.287  0.00  0.00    +0.002 A 
ATOM     12  C   UNL     1       2.217   5.680  -1.063  0.00  0.00    +0.026 A 
ATOM     13  C   UNL     1       1.986   4.354  -1.446  0.00  0.00    +0.047 A 
ATOM     14  N   UNL     1       0.975   3.811  -2.203  0.00  0.00    -0.360 N 
ATOM     15  H   UNL     1       0.234   4.345  -2.636  0.00  0.00    +0.165 HD
ATOM     16  C   UNL     1       1.098   2.449  -2.250  0.00  0.00    +0.087 A 
ENDBRANCH   6   7
ENDBRANCH   2   6
ENDBRANCH   1   2
BRANCH   1  17
ATOM     17  O   UNL     1       1.949  -2.097   1.218  0.00  0.00    -0.489 OA
BRANCH  17  18
ATOM     18  C   UNL     1       2.371  -3.404   1.309  0.00  0.00    +0.139 A 
ATOM     19  C   UNL     1       1.888  -4.158   2.383  0.00  0.00    +0.056 A 
ATOM     20  C   UNL     1       2.280  -5.497   2.532  0.00  0.00    -0.003 A 
ATOM     21  C   UNL     1       3.167  -6.009   1.584  0.00  0.00    +0.118 A 
ATOM     22  N   UNL     1       3.653  -5.320   0.532  0.00  0.00    -0.259 NA
ATOM     23  C   UNL     1       3.240  -4.038   0.423  0.00  0.00    +0.156 A 
BRANCH  20  24
ATOM     24  C   UNL     1       1.872  -6.376   3.638  0.00  0.00    +0.010 C 
ATOM     25  C   UNL     1       0.686  -6.328   4.263  0.00  0.00    +0.008 C 
BRANCH  25  26
ATOM     26  C   UNL     1       0.275  -7.283   5.309  0.00  0.00    -0.022 A 
ATOM     27  C   UNL     1      -1.083  -7.578   5.451  0.00  0.00    +0.027 A 
ATOM     28  C   UNL     1      -1.474  -8.466   6.441  0.00  0.00    +0.111 A 
ATOM     29  N   UNL     1      -0.617  -9.067   7.292  0.00  0.00    -0.263 NA
ATOM     30  C   UNL     1       0.689  -8.762   7.147  0.00  0.00    +0.111 A 
ATOM     31  C   UNL     1       1.176  -7.885   6.190  0.00  0.00    +0.027 A 
ENDBRANCH  25  26
ENDBRANCH  20  24
ENDBRANCH  17  18
ENDBRANCH   1  17
TORSDOF 8
