REMARK  Name = 
REMARK  10 active torsions:
REMARK  status: ('A' for Active; 'I' for Inactive)
REMARK    1  A    between atoms: C_2  and  C_28
REMARK    2  A    between atoms: C_7  and  C_10
REMARK    3  A    between atoms: C_11  and  N_12
REMARK    4  A    between atoms: C_17  and  C_18
REMARK    5  A    between atoms: C_18  and  C_19
REMARK    6  A    between atoms: N_20  and  C_21
REMARK    7  A    between atoms: C_21  and  C_22
REMARK    8  A    between atoms: C_22  and  C_23
REMARK    9  A    between atoms: C_23  and  O_24
REMARK   10  A    between atoms: O_24  and  C_25
REMARK                            x       y       z     vdW  Elec       q    Type
REMARK                         _______ _______ _______ _____ _____    ______ ____
ROOT
ATOM      1  C   UNL     1       1.947   0.131  -0.124  0.00  0.00    +0.290 C 
ATOM      2  C   UNL     1       2.463  -1.149   0.557  0.00  0.00    +0.265 C 
ATOM      3  O   UNL     1       1.734  -2.103   0.835  0.00  0.00    -0.271 OA
ATOM      4  N   UNL     1       3.858  -1.190   0.577  0.00  0.00    -0.265 N 
ATOM      5  C   UNL     1       4.571   0.045   0.646  0.00  0.00    +0.079 A 
ATOM      6  C   UNL     1       5.970   0.122   0.697  0.00  0.00    +0.036 A 
ATOM      7  C   UNL     1       6.687   1.294   1.066  0.00  0.00    -0.011 A 
ATOM      8  C   UNL     1       5.892   2.436   1.277  0.00  0.00    +0.012 A 
ATOM      9  C   UNL     1       4.499   2.420   1.070  0.00  0.00    +0.048 A 
ATOM     10  C   UNL     1       3.845   1.232   0.744  0.00  0.00    +0.143 A 
ATOM     11  O   UNL     1       2.494   1.310   0.493  0.00  0.00    -0.473 OA
ENDROOT
BRANCH   7  12
ATOM     12  C   UNL     1       8.183   1.245   1.316  0.00  0.00    +0.043 A 
ATOM     13  C   UNL     1       9.116   2.280   1.118  0.00  0.00    +0.056 A 
ATOM     14  N   UNL     1      10.446   2.135   1.394  0.00  0.00    -0.219 NA
ATOM     15  C   UNL     1      10.885   0.976   1.857  0.00  0.00    +0.214 A 
ATOM     16  N   UNL     1      12.233   0.849   2.110  0.00  0.00    -0.327 N 
ATOM     17  H   UNL     1      12.740   1.532   1.567  0.00  0.00    +0.145 HD
ATOM     18  H   UNL     1      12.514  -0.116   2.009  0.00  0.00    +0.145 HD
ATOM     19  N   UNL     1      10.123  -0.082   2.038  0.00  0.00    -0.199 NA
ATOM     20  C   UNL     1       8.810   0.070   1.798  0.00  0.00    +0.129 A 
BRANCH  20  21
ATOM     21  N   UNL     1       8.122  -1.114   2.068  0.00  0.00    -0.343 N 
ATOM     22  H   UNL     1       8.803  -1.804   2.374  0.00  0.00    +0.144 HD
ATOM     23  H   UNL     1       7.389  -0.974   2.753  0.00  0.00    +0.144 HD
ENDBRANCH  20  21
BRANCH  13  24
ATOM     24  C   UNL     1       8.863   3.620   0.468  0.00  0.00    +0.053 C 
ATOM     25  C   UNL     1       9.393   4.794   1.298  0.00  0.00    +0.010 C 
ENDBRANCH  13  24
ENDBRANCH   7  12
BRANCH   1  26
ATOM     26  C   UNL     1       2.236   0.003  -1.637  0.00  0.00    +0.007 A 
ATOM     27  C   UNL     1       1.908  -1.196  -2.307  0.00  0.00    +0.046 A 
ATOM     28  C   UNL     1       2.410  -1.454  -3.581  0.00  0.00    +0.127 A 
ATOM     29  F   UNL     1       2.158  -2.635  -4.159  0.00  0.00    -0.205 F 
ATOM     30  C   UNL     1       3.210  -0.532  -4.234  0.00  0.00    +0.076 A 
ATOM     31  C   UNL     1       3.471   0.679  -3.611  0.00  0.00    +0.127 A 
ATOM     32  F   UNL     1       4.253   1.578  -4.223  0.00  0.00    -0.205 F 
ATOM     33  C   UNL     1       2.980   0.963  -2.338  0.00  0.00    +0.046 A 
ENDBRANCH   1  26
BRANCH   4  34
ATOM     34  C   UNL     1       4.506  -2.486   0.472  0.00  0.00    +0.116 C 
BRANCH  34  35
ATOM     35  C   UNL     1       4.847  -3.144   1.806  0.00  0.00    +0.047 C 
BRANCH  35  36
ATOM     36  C   UNL     1       5.583  -4.459   1.563  0.00  0.00    +0.161 C 
BRANCH  36  37
ATOM     37  O   UNL     1       6.785  -4.180   0.848  0.00  0.00    -0.383 OA
ATOM     38  C   UNL     1       7.519  -5.353   0.535  0.00  0.00    +0.193 C 
ENDBRANCH  36  37
ENDBRANCH  35  36
ENDBRANCH  34  35
ENDBRANCH   4  34
TORSDOF 8
