REMARK  Name = 
REMARK  2 active torsions:
REMARK  status: ('A' for Active; 'I' for Inactive)
REMARK    1  A    between atoms: C_1  and  C_2
REMARK    2  A    between atoms: C_11  and  O_12
REMARK                            x       y       z     vdW  Elec       q    Type
REMARK                         _______ _______ _______ _____ _____    ______ ____
ROOT
ATOM      1  C   UNL     1       0.864   0.079  -0.023  0.00  0.00    +0.046 C 
ATOM      2  C   UNL     1       2.372   0.175  -0.019  0.00  0.00    -0.019 A 
ATOM      3  C   UNL     1       3.124  -1.100  -0.003  0.00  0.00    +0.023 A 
ATOM      4  C   UNL     1       4.519  -1.070   0.077  0.00  0.00    +0.157 A 
ATOM      5  C   UNL     1       5.287  -2.243   0.109  0.00  0.00    +0.102 A 
ATOM      6  C   UNL     1       4.644  -3.476   0.042  0.00  0.00    +0.134 A 
ATOM      7  C   UNL     1       3.260  -3.539  -0.048  0.00  0.00    +0.047 A 
ATOM      8 BR   UNL     1       7.181  -2.176   0.239  0.00  0.00    -0.043 Br
ATOM      9  O   UNL     1       5.199   0.160   0.110  0.00  0.00    -0.420 OA
ATOM     10  C   UNL     1       4.549   1.379   0.009  0.00  0.00    +0.352 A 
ATOM     11  O   UNL     1       5.193   2.421  -0.035  0.00  0.00    -0.244 OA
ATOM     12  C   UNL     1       2.506  -2.359  -0.065  0.00  0.00    +0.015 A 
ATOM     13  C   UNL     1       3.057   1.339  -0.026  0.00  0.00    +0.106 A 
ATOM     14 BR   UNL     1       2.228   3.032  -0.075  0.00  0.00    -0.043 Br
ENDROOT
BRANCH   6  15
ATOM     15  O   UNL     1       5.319  -4.664   0.056  0.00  0.00    -0.506 OA
ATOM     16  H   UNL     1       6.271  -4.463   0.116  0.00  0.00    +0.292 HD
ENDBRANCH   6  15
TORSDOF 1
