REMARK  Name = 
REMARK  4 active torsions:
REMARK  status: ('A' for Active; 'I' for Inactive)
REMARK    1  A    between atoms: C_7  and  N_8
REMARK    2  A    between atoms: N_8  and  C_9
REMARK    3  A    between atoms: C_9  and  C_10
REMARK    4  A    between atoms: C_14  and  C_16
REMARK                            x       y       z     vdW  Elec       q    Type
REMARK                         _______ _______ _______ _____ _____    ______ ____
ROOT
ATOM      1  C   UNL     1       0.607  -3.937  -0.983  0.00  0.00    -0.030 A 
ATOM      2  C   UNL     1      -0.219  -4.121  -2.106  0.00  0.00    +0.013 A 
ATOM      3  C   UNL     1      -0.609  -5.404  -2.544  0.00  0.00    -0.018 A 
ATOM      4  C   UNL     1      -0.142  -6.504  -1.802  0.00  0.00    +0.008 A 
ATOM      5  C   UNL     1       0.704  -6.338  -0.701  0.00  0.00    +0.001 A 
ATOM      6  C   UNL     1       1.083  -5.061  -0.300  0.00  0.00    +0.005 A 
ENDROOT
BRANCH   3   7
ATOM      7  C   UNL     1      -1.436  -5.582  -3.766  0.00  0.00    -0.016 A 
ATOM      8  C   UNL     1      -2.416  -4.641  -4.131  0.00  0.00    +0.009 A 
ATOM      9  C   UNL     1      -3.143  -4.737  -5.329  0.00  0.00    +0.010 A 
ATOM     10  C   UNL     1      -2.899  -5.814  -6.196  0.00  0.00    -0.000 A 
ATOM     11  C   UNL     1      -3.403  -6.199  -7.469  0.00  0.00    +0.027 A 
ATOM     12  C   UNL     1      -2.775  -7.369  -7.831  0.00  0.00    +0.083 A 
ATOM     13  N   UNL     1      -1.919  -7.715  -6.820  0.00  0.00    -0.361 N 
ATOM     14  H   UNL     1      -1.326  -8.533  -6.811  0.00  0.00    +0.165 HD
ATOM     15  C   UNL     1      -1.960  -6.770  -5.819  0.00  0.00    +0.047 A 
ATOM     16  C   UNL     1      -1.227  -6.682  -4.625  0.00  0.00    +0.034 A 
ENDBRANCH   3   7
BRANCH   1  17
ATOM     17  C   UNL     1       1.014  -2.547  -0.537  0.00  0.00    +0.137 C 
BRANCH  17  18
ATOM     18  N   UNL     1       2.267  -2.185  -1.199  0.00  0.00    -0.337 N 
ATOM     19  H   UNL     1       2.215  -2.427  -2.187  0.00  0.00    +0.146 HD
BRANCH  18  24
ATOM     20  N   UNL     1       2.204  -0.629   1.355  0.00  0.00    -0.342 N 
ATOM     21  H   UNL     1       2.697  -1.493   1.565  0.00  0.00    +0.144 HD
ATOM     22  H   UNL     1       2.387   0.082   2.058  0.00  0.00    +0.144 HD
ATOM     23  C   UNL     1       2.721  -0.117   0.162  0.00  0.00    +0.137 A 
ATOM     24  C   UNL     1       2.743  -0.865  -1.035  0.00  0.00    +0.067 A 
ATOM     25  C   UNL     1       3.436  -0.282  -2.107  0.00  0.00    +0.028 A 
ATOM     26  C   UNL     1       3.991   0.991  -1.992  0.00  0.00    +0.022 A 
ATOM     27  C   UNL     1       3.854   1.652  -0.787  0.00  0.00    +0.113 A 
ATOM     28  N   UNL     1       3.236   1.125   0.287  0.00  0.00    -0.239 NA
ENDBRANCH  18  24
ENDBRANCH  17  18
ENDBRANCH   1  17
TORSDOF 4
