REMARK  Name = 
REMARK  2 active torsions:
REMARK  status: ('A' for Active; 'I' for Inactive)
REMARK    1  A    between atoms: O_1  and  C_2
REMARK    2  A    between atoms: C_4  and  C_8
REMARK                            x       y       z     vdW  Elec       q    Type
REMARK                         _______ _______ _______ _____ _____    ______ ____
ROOT
ATOM      1  C   UNL     1       5.133   2.474  -0.434  0.00  0.00    +0.121 C 
ATOM      2  S   UNL     1       4.372   3.741  -1.326  0.00  0.00    +0.075 S 
ATOM      3  O   UNL     1       4.151   3.360  -2.701  0.00  0.00    -0.150 OA
ATOM      4  O   UNL     1       3.352   4.395  -0.536  0.00  0.00    -0.150 OA
ATOM      5  N   UNL     1       5.709   4.724  -1.301  0.00  0.00    -0.182 N 
ATOM      6  H   UNL     1       5.799   5.512  -1.929  0.00  0.00    +0.177 HD
ATOM      7  C   UNL     1       6.789   4.122  -0.662  0.00  0.00    +0.258 C 
ATOM      8  O   UNL     1       7.910   4.587  -0.613  0.00  0.00    -0.269 OA
ATOM      9  C   UNL     1       6.398   2.798  -0.121  0.00  0.00    +0.098 C 
ENDROOT
BRANCH   1  14
ATOM     10  C   UNL     1       2.324  -0.029   0.040  0.00  0.00    +0.117 A 
ATOM     11  C   UNL     1       3.021  -1.228   0.006  0.00  0.00    +0.045 A 
ATOM     12  C   UNL     1       4.403  -1.210  -0.145  0.00  0.00    +0.004 A 
ATOM     13  C   UNL     1       5.075   0.009  -0.274  0.00  0.00    +0.010 A 
ATOM     14  C   UNL     1       4.380   1.233  -0.252  0.00  0.00    +0.005 A 
ATOM     15  C   UNL     1       2.987   1.194  -0.078  0.00  0.00    +0.055 A 
BRANCH  10  16
ATOM     16  O   UNL     1       0.969  -0.092   0.186  0.00  0.00    -0.507 OA
ATOM     17  H   UNL     1       0.601   0.805   0.118  0.00  0.00    +0.292 HD
ENDBRANCH  10  16
ENDBRANCH   1  14
TORSDOF 2
