REMARK  Name = 
REMARK  5 active torsions:
REMARK  status: ('A' for Active; 'I' for Inactive)
REMARK    1  A    between atoms: N_1  and  S_2
REMARK    2  A    between atoms: S_2  and  C_5
REMARK    3  A    between atoms: C_8  and  C_11
REMARK    4  A    between atoms: N_13  and  C_14
REMARK    5  A    between atoms: C_14  and  C_15
REMARK                            x       y       z     vdW  Elec       q    Type
REMARK                         _______ _______ _______ _____ _____    ______ ____
ROOT
ATOM      1  C   UNL     1       4.055  -1.854  -5.578  0.00  0.00    +0.244 C 
ATOM      2  N   UNL     1       3.922  -3.195  -5.862  0.00  0.00    -0.307 N 
ATOM      3  H   UNL     1       3.575  -3.830  -5.157  0.00  0.00    +0.149 HD
ATOM      4  O   UNL     1       4.316  -1.001  -6.417  0.00  0.00    -0.270 OA
ENDROOT
BRANCH   1   8
ATOM      5  C   UNL     1       3.267  -0.683  -1.542  0.00  0.00    +0.105 A 
ATOM      6  C   UNL     1       3.874  -1.919  -1.788  0.00  0.00    +0.029 A 
ATOM      7  C   UNL     1       4.146  -2.309  -3.100  0.00  0.00    +0.015 A 
ATOM      8  C   UNL     1       3.815  -1.459  -4.164  0.00  0.00    +0.037 A 
ATOM      9  C   UNL     1       3.255  -0.198  -3.904  0.00  0.00    +0.015 A 
ATOM     10  C   UNL     1       2.977   0.193  -2.591  0.00  0.00    +0.029 A 
BRANCH   5  11
ATOM     11  S   UNL     1       2.879  -0.237   0.124  0.00  0.00    +0.056 S 
ATOM     12  O   UNL     1       3.726  -0.984   1.023  0.00  0.00    -0.153 OA
ATOM     13  O   UNL     1       2.721   1.197   0.218  0.00  0.00    -0.153 OA
BRANCH  11  14
ATOM     14  N   UNL     1       1.343  -0.893   0.288  0.00  0.00    -0.204 NA
ATOM     15  H   UNL     1       1.366  -1.707   0.900  0.00  0.00    +0.144 HD
ATOM     16  H   UNL     1       0.688  -0.169   0.585  0.00  0.00    +0.144 HD
ENDBRANCH  11  14
ENDBRANCH   5  11
ENDBRANCH   1   8
BRANCH   2  17
ATOM     17  C   UNL     1       4.054  -3.714  -7.205  0.00  0.00    +0.142 C 
BRANCH  17  18
ATOM     18  C   UNL     1       5.191  -4.690  -7.294  0.00  0.00    +0.008 A 
ATOM     19  C   UNL     1       4.986  -6.050  -7.047  0.00  0.00    +0.163 A 
ATOM     20  F   UNL     1       3.759  -6.491  -6.732  0.00  0.00    -0.202 F 
ATOM     21  C   UNL     1       6.043  -6.953  -7.118  0.00  0.00    +0.159 A 
ATOM     22  F   UNL     1       5.832  -8.255  -6.881  0.00  0.00    -0.202 F 
ATOM     23  C   UNL     1       7.326  -6.517  -7.430  0.00  0.00    +0.041 A 
ATOM     24  C   UNL     1       7.551  -5.161  -7.669  0.00  0.00    +0.003 A 
ATOM     25  C   UNL     1       6.490  -4.252  -7.596  0.00  0.00    +0.008 A 
ENDBRANCH  17  18
ENDBRANCH   2  17
TORSDOF 5
