REMARK  Name = 
REMARK  7 active torsions:
REMARK  status: ('A' for Active; 'I' for Inactive)
REMARK    1  A    between atoms: C_1  and  C_2
REMARK    2  A    between atoms: C_4  and  N_10
REMARK    3  A    between atoms: C_6  and  C_7
REMARK    4  A    between atoms: C_8  and  O_9
REMARK    5  A    between atoms: N_11  and  C_12
REMARK    6  A    between atoms: C_17  and  C_18
REMARK    7  A    between atoms: C_18  and  O_19
REMARK                            x       y       z     vdW  Elec       q    Type
REMARK                         _______ _______ _______ _____ _____    ______ ____
ROOT
ATOM      1  N   UNL     1       5.282   2.572  -0.136  0.00  0.00    -0.149 NA
ATOM      2  N   UNL     1       6.298   2.655   0.587  0.00  0.00    -0.148 NA
ENDROOT
BRANCH   1   9
ATOM      3  C   UNL     1       1.011   0.106   0.087  0.00  0.00    +0.047 C 
ATOM      4  C   UNL     1       2.514   0.103   0.083  0.00  0.00    -0.007 A 
ATOM      5  C   UNL     1       3.228  -1.103   0.101  0.00  0.00    +0.123 A 
ATOM      6  C   UNL     1       4.629  -1.119   0.074  0.00  0.00    -0.007 A 
ATOM      7  C   UNL     1       5.422  -2.394   0.081  0.00  0.00    +0.047 C 
ATOM      8  C   UNL     1       5.311   0.108   0.015  0.00  0.00    +0.036 A 
ATOM      9  C   UNL     1       4.624   1.332  -0.000  0.00  0.00    +0.087 A 
ATOM     10  C   UNL     1       3.225   1.312   0.033  0.00  0.00    +0.036 A 
BRANCH   5  11
ATOM     11  O   UNL     1       2.494  -2.258   0.130  0.00  0.00    -0.506 OA
ATOM     12  H   UNL     1       3.085  -3.024   0.075  0.00  0.00    +0.292 HD
ENDBRANCH   5  11
ENDBRANCH   1   9
BRANCH   2  13
ATOM     13  C   UNL     1       6.994   3.872   0.395  0.00  0.00    +0.100 A 
ATOM     14  C   UNL     1       8.400   3.902   0.416  0.00  0.00    +0.086 A 
ATOM     15  C   UNL     1       9.085   5.121   0.259  0.00  0.00    +0.017 A 
ATOM     16  C   UNL     1       8.383   6.316   0.101  0.00  0.00    +0.001 A 
ATOM     17  C   UNL     1       6.994   6.301   0.088  0.00  0.00    +0.002 A 
ATOM     18  C   UNL     1       6.307   5.093   0.237  0.00  0.00    +0.030 A 
BRANCH  14  19
ATOM     19  C   UNL     1       9.247   2.688   0.566  0.00  0.00    +0.339 C 
ATOM     20  O   UNL     1      10.394   2.636   0.146  0.00  0.00    -0.245 OA
BRANCH  19  21
ATOM     21  O   UNL     1       8.692   1.674   1.261  0.00  0.00    -0.477 OA
ATOM     22  H   UNL     1       7.767   1.832   1.537  0.00  0.00    +0.295 HD
ENDBRANCH  19  21
ENDBRANCH  14  19
ENDBRANCH   2  13
TORSDOF 5
