REMARK  Name = 
REMARK  6 active torsions:
REMARK  status: ('A' for Active; 'I' for Inactive)
REMARK    1  A    between atoms: C_1  and  C_2
REMARK    2  A    between atoms: C_7  and  C_8
REMARK    3  A    between atoms: C_8  and  C_9
REMARK    4  A    between atoms: C_9  and  N_10
REMARK    5  A    between atoms: C_11  and  C_13
REMARK    6  A    between atoms: C_16  and  C_19
REMARK                            x       y       z     vdW  Elec       q    Type
REMARK                         _______ _______ _______ _____ _____    ______ ____
ROOT
ATOM      1  C   UNL     1       4.486  -3.795  -0.032  0.00  0.00    +0.110 C 
ENDROOT
BRANCH   1   2
ATOM      2  N   UNL     1       5.277  -5.011   0.052  0.00  0.00    -0.311 N 
ATOM      3  H   UNL     1       5.565  -5.420  -0.827  0.00  0.00    +0.149 HD
ATOM      4  C   UNL     1       5.640  -5.568   1.257  0.00  0.00    +0.244 C 
ATOM      5  O   UNL     1       5.340  -5.081   2.342  0.00  0.00    -0.270 OA
BRANCH   4   6
ATOM      6  C   UNL     1       6.390  -6.854   1.203  0.00  0.00    +0.037 A 
ATOM      7  C   UNL     1       6.205  -7.762   2.255  0.00  0.00    +0.014 A 
ATOM      8  C   UNL     1       6.856  -8.999   2.247  0.00  0.00    +0.019 A 
ATOM      9  C   UNL     1       7.710  -9.333   1.191  0.00  0.00    +0.052 A 
ATOM     10  C   UNL     1       7.917  -8.418   0.151  0.00  0.00    +0.019 A 
ATOM     11  C   UNL     1       7.260  -7.179   0.155  0.00  0.00    +0.014 A 
BRANCH   9  12
ATOM     12  C   UNL     1       8.366 -10.607   1.174  0.00  0.00    +0.099 C 
ATOM     13  N   UNL     1       8.891 -11.643   1.156  0.00  0.00    -0.191 NA
ENDBRANCH   9  12
ENDBRANCH   4   6
ENDBRANCH   1   2
BRANCH   1  14
ATOM     14  C   UNL     1       5.336  -2.523  -0.043  0.00  0.00    +0.074 C 
BRANCH  14  18
ATOM     15  C   UNL     1       9.589  -0.844  -2.112  0.00  0.00    +0.044 C 
ATOM     16  C   UNL     1       8.294  -1.590  -2.217  0.00  0.00    -0.046 A 
ATOM     17  C   UNL     1       7.441  -1.681  -1.117  0.00  0.00    +0.027 A 
ATOM     18  C   UNL     1       6.262  -2.414  -1.233  0.00  0.00    +0.045 A 
ATOM     19  N   UNL     1       5.890  -3.012  -2.393  0.00  0.00    -0.237 NA
ATOM     20  C   UNL     1       6.715  -2.911  -3.448  0.00  0.00    +0.117 A 
ATOM     21  N   UNL     1       6.338  -3.595  -4.601  0.00  0.00    -0.343 N 
ATOM     22  H   UNL     1       5.396  -3.945  -4.448  0.00  0.00    +0.144 HD
ATOM     23  H   UNL     1       6.396  -3.007  -5.425  0.00  0.00    +0.144 HD
ATOM     24  C   UNL     1       7.922  -2.230  -3.399  0.00  0.00    +0.046 A 
ENDBRANCH  14  18
ENDBRANCH   1  14
TORSDOF 5
