REMARK  Name = 
REMARK  5 active torsions:
REMARK  status: ('A' for Active; 'I' for Inactive)
REMARK    1  A    between atoms: C_15  and  O_16
REMARK    2  A    between atoms: C_17  and  C_18
REMARK    3  A    between atoms: C_18  and  C_19
REMARK    4  A    between atoms: C_23  and  C_24
REMARK    5  A    between atoms: C_23  and  C_25
REMARK                            x       y       z     vdW  Elec       q    Type
REMARK                         _______ _______ _______ _____ _____    ______ ____
ROOT
ATOM      1  C   UNL     1      -0.000  -0.000  -0.000  0.00  0.00    +0.026 C 
ATOM      2  C   UNL     1      -0.000  -0.000  -0.000  0.00  0.00    +0.036 C 
ATOM      3  C   UNL     1      -0.000  -0.000  -0.000  0.00  0.00    +0.032 C 
ATOM      4  C   UNL     1      -0.000  -0.000  -0.000  0.00  0.00    +0.032 C 
ATOM      5  N   UNL     1      -0.000  -0.000   0.000  0.00  0.00    -0.285 N 
ATOM      6  C   UNL     1      -0.000  -0.000   0.000  0.00  0.00    +0.195 C 
ATOM      7  C   UNL     1      -0.000  -0.000   0.000  0.00  0.00    +0.118 C 
ATOM      8  C   UNL     1      -0.000  -0.000   0.000  0.00  0.00    +0.192 C 
ATOM      9  O   UNL     1      -0.000  -0.000  -0.000  0.00  0.00    -0.290 OA
ATOM     10  C   UNL     1      -0.000  -0.000   0.000  0.00  0.00    +0.156 C 
ATOM     11  C   UNL     1      -0.000  -0.000  -0.000  0.00  0.00    +0.055 C 
ATOM     12  C   UNL     1      -0.000  -0.000  -0.000  0.00  0.00    -0.016 A 
ATOM     13  C   UNL     1      -0.000  -0.000   0.000  0.00  0.00    +0.006 A 
ATOM     14  C   UNL     1      -0.000  -0.000   0.000  0.00  0.00    +0.047 A 
ATOM     15  C   UNL     1      -0.000  -0.000  -0.000  0.00  0.00    +0.026 A 
ATOM     16  C   UNL     1      -0.000  -0.000  -0.000  0.00  0.00    +0.002 A 
ATOM     17  C   UNL     1      -0.000  -0.000  -0.000  0.00  0.00    +0.004 A 
ATOM     18  N   UNL     1      -0.000  -0.000   0.000  0.00  0.00    -0.360 N 
ATOM     19  H   UNL     1       0.000   0.000   0.000  0.00  0.00    +0.165 HD
ATOM     20  C   UNL     1      -0.000  -0.000  -0.000  0.00  0.00    -0.038 A 
ATOM     21  C   UNL     1      -0.000  -0.000   0.000  0.00  0.00    +0.087 A 
ATOM     22  C   UNL     1      -0.000  -0.000  -0.000  0.00  0.00    +0.042 C 
ENDROOT
BRANCH   7  23
ATOM     23  C   UNL     1      -0.000  -0.000   0.000  0.00  0.00    +0.168 C 
ATOM     24  O   UNL     1      -0.000  -0.000  -0.000  0.00  0.00    -0.292 OA
ATOM     25  C   UNL     1      -0.000  -0.000   0.000  0.00  0.00    +0.092 C 
ENDBRANCH   7  23
BRANCH   6  26
ATOM     26  O   UNL     1      -0.000  -0.000   0.000  0.00  0.00    -0.495 OA
ATOM     27  H   UNL     1       0.000   0.000   0.000  0.00  0.00    +0.293 HD
ENDBRANCH   6  26
TORSDOF 2
