REMARK  Name = 
REMARK  5 active torsions:
REMARK  status: ('A' for Active; 'I' for Inactive)
REMARK    1  A    between atoms: O_1  and  C_2
REMARK    2  A    between atoms: C_2  and  C_4
REMARK    3  A    between atoms: C_4  and  N_5
REMARK    4  A    between atoms: C_6  and  C_8
REMARK    5  A    between atoms: C_10  and  O_11
REMARK                            x       y       z     vdW  Elec       q    Type
REMARK                         _______ _______ _______ _____ _____    ______ ____
ROOT
ATOM      1  N   UNL     1       4.665   0.045  -1.336  0.00  0.00    -0.301 N 
ATOM      2  H   UNL     1       5.028   0.755  -0.713  0.00  0.00    +0.150 HD
ATOM      3  C   UNL     1       5.506  -0.880  -1.907  0.00  0.00    +0.245 C 
ATOM      4  O   UNL     1       5.075  -1.759  -2.646  0.00  0.00    -0.270 OA
ENDROOT
BRANCH   3   5
ATOM      5  C   UNL     1       6.959  -0.722  -1.661  0.00  0.00    +0.040 A 
ATOM      6  C   UNL     1       7.757  -1.871  -1.595  0.00  0.00    +0.013 A 
ATOM      7  C   UNL     1       9.137  -1.751  -1.428  0.00  0.00    +0.004 A 
ATOM      8  C   UNL     1       9.720  -0.487  -1.342  0.00  0.00    +0.045 A 
ATOM      9  C   UNL     1       8.923   0.650  -1.422  0.00  0.00    +0.118 A 
ATOM     10  C   UNL     1       7.543   0.549  -1.577  0.00  0.00    +0.058 A 
BRANCH   9  11
ATOM     11  O   UNL     1       9.544   1.863  -1.363  0.00  0.00    -0.507 OA
ATOM     12  H   UNL     1       8.899   2.566  -1.547  0.00  0.00    +0.292 HD
ENDBRANCH   9  11
ENDBRANCH   3   5
BRANCH   1  13
ATOM     13  C   UNL     1       3.221  -0.019  -1.524  0.00  0.00    +0.225 C 
BRANCH  13  14
ATOM     14  C   UNL     1       2.791   0.553  -2.869  0.00  0.00    +0.322 C 
ATOM     15  O   UNL     1       1.934   1.418  -2.996  0.00  0.00    -0.249 OA
BRANCH  14  16
ATOM     16  O   UNL     1       3.393  -0.031  -3.935  0.00  0.00    -0.480 OA
ATOM     17  H   UNL     1       3.984  -0.775  -3.667  0.00  0.00    +0.295 HD
ENDBRANCH  14  16
ENDBRANCH  13  14
ENDBRANCH   1  13
TORSDOF 5
