REMARK  Name = 
REMARK  7 active torsions:
REMARK  status: ('A' for Active; 'I' for Inactive)
REMARK    1  A    between atoms: C_2  and  C_3
REMARK    2  A    between atoms: C_2  and  C_6
REMARK    3  A    between atoms: C_2  and  C_27
REMARK    4  A    between atoms: C_3  and  C_4
REMARK    5  A    between atoms: C_4  and  N_5
REMARK    6  A    between atoms: N_8  and  C_9
REMARK    7  A    between atoms: C_17  and  C_19
REMARK                            x       y       z     vdW  Elec       q    Type
REMARK                         _______ _______ _______ _____ _____    ______ ____
ROOT
ATOM      1  C   UNL     1       2.669  -3.817   0.652  0.00  0.00    +0.034 A 
ATOM      2  C   UNL     1       3.908  -3.978  -0.015  0.00  0.00    +0.036 A 
ATOM      3  C   UNL     1       4.380  -5.278  -0.330  0.00  0.00    +0.043 A 
ATOM      4  C   UNL     1       3.591  -6.361   0.052  0.00  0.00    +0.068 A 
ATOM      5  N   UNL     1       4.274  -7.470  -0.346  0.00  0.00    -0.275 N 
ATOM      6  H   UNL     1       4.011  -8.442  -0.225  0.00  0.00    +0.189 HD
ATOM      7  N   UNL     1       5.412  -7.205  -0.977  0.00  0.00    -0.157 NA
ATOM      8  C   UNL     1       2.366  -6.241   0.702  0.00  0.00    +0.029 A 
ATOM      9  C   UNL     1       5.514  -5.874  -0.988  0.00  0.00    +0.155 A 
ATOM     10  N   UNL     1       6.589  -5.213  -1.581  0.00  0.00    -0.264 N 
ATOM     11  H   UNL     1       6.599  -4.209  -1.517  0.00  0.00    +0.157 HD
ATOM     12  C   UNL     1       7.640  -5.894  -2.183  0.00  0.00    +0.249 C 
ATOM     13  O   UNL     1       7.780  -7.113  -2.256  0.00  0.00    -0.270 OA
ATOM     14  C   UNL     1       1.919  -4.949   0.984  0.00  0.00    +0.025 A 
ENDROOT
BRANCH  12  15
ATOM     15  C   UNL     1       8.731  -5.091  -2.805  0.00  0.00    +0.037 A 
ATOM     16  C   UNL     1       8.533  -3.848  -3.415  0.00  0.00    +0.013 A 
ATOM     17  C   UNL     1       9.594  -3.229  -4.091  0.00  0.00    +0.001 A 
ATOM     18  C   UNL     1      10.848  -3.843  -4.161  0.00  0.00    +0.000 A 
ATOM     19  C   UNL     1      11.051  -5.076  -3.547  0.00  0.00    +0.001 A 
ATOM     20  C   UNL     1      10.000  -5.696  -2.879  0.00  0.00    +0.013 A 
ENDBRANCH  12  15
BRANCH   1  22
ATOM     21  C   UNL     1       1.035  -2.122   1.534  0.00  0.00    +0.225 C 
ATOM     22  N   UNL     1       2.231  -2.496   0.934  0.00  0.00    -0.285 N 
ATOM     23  H   UNL     1       2.844  -1.752   0.624  0.00  0.00    +0.155 HD
ATOM     24  O   UNL     1       0.245  -2.902   2.067  0.00  0.00    -0.275 OA
BRANCH  21  25
ATOM     25  C   UNL     1       0.723  -0.611   1.598  0.00  0.00    +0.106 C 
BRANCH  25  26
ATOM     26  C   UNL     1       1.275   0.290   0.486  0.00  0.00    -0.034 A 
ATOM     27  C   UNL     1       1.455  -0.190  -0.826  0.00  0.00    +0.004 A 
ATOM     28  C   UNL     1       1.927   0.636  -1.851  0.00  0.00    +0.002 A 
ATOM     29  C   UNL     1       2.155   1.987  -1.611  0.00  0.00    +0.020 A 
ATOM     30  C   UNL     1       1.900   2.503  -0.347  0.00  0.00    +0.041 A 
ATOM     31 CL   UNL     1       2.090   4.191  -0.062  0.00  0.00    -0.084 Cl
ATOM     32  C   UNL     1       1.470   1.670   0.691  0.00  0.00    +0.024 A 
ENDBRANCH  25  26
BRANCH  25  33
ATOM     33  C   UNL     1       0.935  -0.143   3.063  0.00  0.00    +0.032 C 
BRANCH  33  34
ATOM     34  C   UNL     1       2.372  -0.284   3.568  0.00  0.00    +0.079 C 
BRANCH  34  35
ATOM     35  N   UNL     1       2.465   0.193   4.944  0.00  0.00    -0.330 NA
ATOM     36  H   UNL     1       3.372  -0.054   5.337  0.00  0.00    +0.118 HD
ATOM     37  H   UNL     1       2.406   1.211   4.973  0.00  0.00    +0.118 HD
ENDBRANCH  34  35
ENDBRANCH  33  34
ENDBRANCH  25  33
ENDBRANCH  21  25
ENDBRANCH   1  22
TORSDOF 7
