REMARK  Name = 
REMARK  6 active torsions:
REMARK  status: ('A' for Active; 'I' for Inactive)
REMARK    1  A    between atoms: C_1  and  C_2
REMARK    2  A    between atoms: C_3  and  N_4
REMARK    3  A    between atoms: N_4  and  C_5
REMARK    4  A    between atoms: C_11  and  C_15
REMARK    5  A    between atoms: C_18  and  C_19
REMARK    6  A    between atoms: C_23  and  O_24
REMARK                            x       y       z     vdW  Elec       q    Type
REMARK                         _______ _______ _______ _____ _____    ______ ____
ROOT
ATOM      1  C   UNL     1       3.352   3.688  -0.281  0.00  0.00    +0.042 A 
ATOM      2  C   UNL     1       4.768   3.812  -0.439  0.00  0.00    +0.022 A 
ATOM      3  C   UNL     1       5.335   5.105  -0.565  0.00  0.00    +0.073 A 
ATOM      4  C   UNL     1       6.720   5.240  -0.732  0.00  0.00    +0.038 A 
ATOM      5  C   UNL     1       7.565   4.126  -0.818  0.00  0.00    +0.003 A 
ATOM      6  C   UNL     1       6.992   2.859  -0.727  0.00  0.00    +0.011 A 
ATOM      7  N   UNL     1       4.579   6.219  -0.519  0.00  0.00    -0.255 NA
ATOM      8  C   UNL     1       3.245   6.073  -0.389  0.00  0.00    +0.113 A 
ATOM      9  C   UNL     1       5.634   2.705  -0.484  0.00  0.00    +0.012 A 
ATOM     10  C   UNL     1       2.599   4.854  -0.278  0.00  0.00    +0.043 A 
ENDROOT
BRANCH   5  11
ATOM     11  C   UNL     1       9.021   4.185  -0.916  0.00  0.00    +0.079 A 
ATOM     12  N   UNL     1       9.732   3.029  -1.229  0.00  0.00    -0.236 NA
ATOM     13  C   UNL     1      11.022   3.237  -1.087  0.00  0.00    +0.141 A 
ATOM     14  S   UNL     1      11.474   4.821  -0.639  0.00  0.00    -0.072 S 
ATOM     15  C   UNL     1       9.811   5.273  -0.602  0.00  0.00    +0.075 A 
BRANCH  13  16
ATOM     16  C   UNL     1      11.989   2.175  -1.260  0.00  0.00    +0.285 C 
ATOM     17  O   UNL     1      13.209   2.257  -1.127  0.00  0.00    -0.294 OA
ENDBRANCH  13  16
ENDBRANCH   5  11
BRANCH   1  18
ATOM     18  N   UNL     1       2.751   2.404  -0.158  0.00  0.00    -0.314 N 
ATOM     19  H   UNL     1       3.383   1.673  -0.437  0.00  0.00    +0.152 HD
BRANCH  18  26
ATOM     20  C   UNL     1       2.102  -0.528  -0.222  0.00  0.00    +0.045 C 
ATOM     21  C   UNL     1       1.460   0.483   0.697  0.00  0.00    -0.029 A 
ATOM     22  C   UNL     1       0.495  -0.041   1.585  0.00  0.00    +0.009 A 
ATOM     23  C   UNL     1      -0.206   0.787   2.451  0.00  0.00    +0.046 A 
ATOM     24  C   UNL     1       0.038   2.148   2.421  0.00  0.00    +0.119 A 
ATOM     25  C   UNL     1       0.989   2.691   1.557  0.00  0.00    +0.069 A 
ATOM     26  C   UNL     1       1.751   1.878   0.700  0.00  0.00    +0.038 A 
BRANCH  24  27
ATOM     27  O   UNL     1      -0.672   2.937   3.278  0.00  0.00    -0.507 OA
ATOM     28  H   UNL     1      -0.295   3.832   3.253  0.00  0.00    +0.292 HD
ENDBRANCH  24  27
ENDBRANCH  18  26
ENDBRANCH   1  18
TORSDOF 5
