REMARK  Name = 
REMARK  8 active torsions:
REMARK  status: ('A' for Active; 'I' for Inactive)
REMARK    1  A    between atoms: CA_2  and  C_3
REMARK    2  A    between atoms: CA_2  and  C_5
REMARK    3  A    between atoms: CA_2  and  N_7
REMARK    4  A    between atoms: C_3  and  C_4
REMARK    5  A    between atoms: C_5  and  O_6
REMARK    6  A    between atoms: C_16  and  C_17
REMARK    7  A    between atoms: C_20  and  C_23
REMARK    8  A    between atoms: C_23  and  O_24
REMARK                            x       y       z     vdW  Elec       q    Type
REMARK                         _______ _______ _______ _____ _____    ______ ____
ROOT
ATOM      1  N   UNL     1       2.771  -1.040  -1.104  0.00  0.00    -0.323 N 
ATOM      2  H   UNL     1       2.479  -0.081  -1.260  0.00  0.00    +0.148 HD
ATOM      3  C   UNL     1       4.127  -1.276  -1.250  0.00  0.00    +0.140 A 
ATOM      4  C   UNL     1       5.012  -0.072  -1.388  0.00  0.00    +0.049 A 
ATOM      5  C   UNL     1       6.328  -0.248  -1.532  0.00  0.00    +0.051 A 
ATOM      6  C   UNL     1       6.851  -1.555  -1.536  0.00  0.00    +0.155 A 
ATOM      7  N   UNL     1       8.091  -1.966  -1.652  0.00  0.00    -0.234 NA
ATOM      8  C   UNL     1       8.009  -3.328  -1.595  0.00  0.00    +0.141 A 
ATOM      9  C   UNL     1       6.703  -3.777  -1.444  0.00  0.00    +0.093 A 
ATOM     10  N   UNL     1       5.954  -2.605  -1.404  0.00  0.00    -0.211 N 
ATOM     11  N   UNL     1       4.590  -2.497  -1.267  0.00  0.00    -0.150 NA
ENDROOT
BRANCH   9  12
ATOM     12  C   UNL     1       6.216  -5.158  -1.348  0.00  0.00    +0.002 A 
ATOM     13  C   UNL     1       6.918  -6.190  -1.994  0.00  0.00    +0.011 A 
ATOM     14  C   UNL     1       6.526  -7.527  -1.865  0.00  0.00    +0.015 A 
ATOM     15  C   UNL     1       5.418  -7.859  -1.083  0.00  0.00    +0.059 A 
ATOM     16  C   UNL     1       4.684  -6.841  -0.465  0.00  0.00    +0.015 A 
ATOM     17  C   UNL     1       5.095  -5.507  -0.587  0.00  0.00    +0.011 A 
BRANCH  15  18
ATOM     18  C   UNL     1       5.053  -9.295  -0.962  0.00  0.00    +0.337 C 
ATOM     19  O   UNL     1       5.268 -10.112  -1.839  0.00  0.00    -0.245 OA
BRANCH  18  20
ATOM     20  O   UNL     1       4.522  -9.621   0.236  0.00  0.00    -0.477 OA
ATOM     21  H   UNL     1       4.567  -8.920   0.912  0.00  0.00    +0.295 HD
ENDBRANCH  18  20
ENDBRANCH  15  18
ENDBRANCH   9  12
BRANCH   1  22
ATOM     22  CA  UNL     1       1.752  -2.033  -1.460  0.00  0.00    +0.097 C 
BRANCH  22  23
ATOM     23  C   UNL     1       0.424  -1.318  -1.804  0.00  0.00    +0.021 C 
ATOM     24  C   UNL     1      -0.277  -0.631  -0.635  0.00  0.00    +0.006 C 
ENDBRANCH  22  23
BRANCH  22  25
ATOM     25  C   UNL     1       1.585  -3.100  -0.359  0.00  0.00    +0.178 C 
BRANCH  25  26
ATOM     26  O   UNL     1       0.665  -4.122  -0.742  0.00  0.00    -0.393 OA
ATOM     27  H   UNL     1      -0.232  -3.749  -0.710  0.00  0.00    +0.209 HD
ENDBRANCH  25  26
ENDBRANCH  22  25
ENDBRANCH   1  22
TORSDOF 7
