REMARK  Name = 
REMARK  4 active torsions:
REMARK  status: ('A' for Active; 'I' for Inactive)
REMARK    1  A    between atoms: C_2  and  C_3
REMARK    2  A    between atoms: C_3  and  N_4
REMARK    3  A    between atoms: N_6  and  C_10
REMARK    4  A    between atoms: C_11  and  C_19
REMARK                            x       y       z     vdW  Elec       q    Type
REMARK                         _______ _______ _______ _____ _____    ______ ____
ROOT
ATOM      1  C   UNL     1       1.222  -2.742  -2.138  0.00  0.00    +0.051 A 
ATOM      2  C   UNL     1       1.669  -4.086  -1.936  0.00  0.00    +0.060 A 
ATOM      3  C   UNL     1       2.828  -4.746  -1.439  0.00  0.00    +0.146 A 
ATOM      4  N   UNL     1       2.719  -6.080  -1.404  0.00  0.00    -0.180 NA
ATOM      5  N   UNL     1       1.495  -6.287  -1.919  0.00  0.00    -0.260 N 
ATOM      6  H   UNL     1       1.145  -7.232  -2.001  0.00  0.00    +0.191 HD
ATOM      7  C   UNL     1       0.843  -5.147  -2.280  0.00  0.00    +0.157 A 
ATOM      8  N   UNL     1      -0.372  -5.094  -2.831  0.00  0.00    -0.235 NA
ATOM      9  C   UNL     1      -0.768  -3.821  -3.061  0.00  0.00    +0.123 A 
ATOM     10  C   UNL     1      -0.072  -2.628  -2.774  0.00  0.00    +0.022 A 
ENDROOT
BRANCH   1  15
ATOM     11  C   UNL     1       2.824  -0.524   0.345  0.00  0.00    +0.149 C 
ATOM     12  O   UNL     1       3.097   0.667  -0.425  0.00  0.00    -0.372 OA
ATOM     13  C   UNL     1       2.371   0.772  -1.663  0.00  0.00    +0.179 C 
ATOM     14  C   UNL     1       2.347  -0.522  -2.520  0.00  0.00    +0.133 C 
ATOM     15  N   UNL     1       1.945  -1.648  -1.660  0.00  0.00    -0.324 N 
ATOM     16  C   UNL     1       2.884  -1.786  -0.531  0.00  0.00    +0.138 C 
BRANCH  11  17
ATOM     17  C   UNL     1       1.523  -0.466   1.186  0.00  0.00    +0.111 C 
BRANCH  17  18
ATOM     18  N   UNL     1       1.406  -1.577   2.146  0.00  0.00    -0.328 NA
ATOM     19  H   UNL     1       1.224  -2.447   1.642  0.00  0.00    +0.118 HD
ATOM     20  H   UNL     1       0.581  -1.436   2.729  0.00  0.00    +0.118 HD
ENDBRANCH  17  18
ENDBRANCH  11  17
ENDBRANCH   1  15
BRANCH  10  21
ATOM     21  C   UNL     1      -0.768  -1.347  -3.118  0.00  0.00    -0.015 A 
ATOM     22  C   UNL     1      -0.765  -0.245  -2.256  0.00  0.00    +0.008 A 
ATOM     23  C   UNL     1      -1.269   1.004  -2.634  0.00  0.00    +0.001 A 
ATOM     24  C   UNL     1      -1.906   1.152  -3.857  0.00  0.00    +0.000 A 
ATOM     25  C   UNL     1      -2.048   0.046  -4.687  0.00  0.00    +0.001 A 
ATOM     26  C   UNL     1      -1.471  -1.182  -4.329  0.00  0.00    +0.008 A 
ENDBRANCH  10  21
TORSDOF 4
