REMARK  Name = 
REMARK  3 active torsions:
REMARK  status: ('A' for Active; 'I' for Inactive)
REMARK    1  A    between atoms: C_1  and  C_2
REMARK    2  A    between atoms: N_5  and  C_6
REMARK    3  A    between atoms: C_14  and  C_16
REMARK                            x       y       z     vdW  Elec       q    Type
REMARK                         _______ _______ _______ _____ _____    ______ ____
ROOT
ATOM      1  C   UNL     1       5.678   2.883  -0.077  0.00  0.00    +0.136 A 
ATOM      2  N   UNL     1       4.529   3.487   0.276  0.00  0.00    -0.212 NA
ATOM      3  C   UNL     1       4.500   4.824   0.328  0.00  0.00    +0.162 A 
ATOM      4  N   UNL     1       5.557   5.608   0.067  0.00  0.00    -0.227 NA
ATOM      5  C   UNL     1       6.697   5.007  -0.285  0.00  0.00    +0.077 A 
ATOM      6  C   UNL     1       7.789   5.803  -0.608  0.00  0.00    +0.028 A 
ATOM      7  C   UNL     1       9.004   5.258  -1.032  0.00  0.00    +0.002 A 
ATOM      8  C   UNL     1       9.144   3.879  -1.129  0.00  0.00    +0.001 A 
ATOM      9  C   UNL     1       8.068   3.059  -0.801  0.00  0.00    +0.013 A 
ATOM     10  C   UNL     1       6.834   3.615  -0.377  0.00  0.00    +0.041 A 
ENDROOT
BRANCH   1  17
ATOM     11  C   UNL     1       1.165  -0.125  -1.503  0.00  0.00    +0.065 C 
ATOM     12  C   UNL     1       2.557   0.034  -1.037  0.00  0.00    +0.035 A 
ATOM     13  N   UNL     1       3.268  -0.956  -0.420  0.00  0.00    -0.280 N 
ATOM     14  H   UNL     1       2.969  -1.902  -0.213  0.00  0.00    +0.189 HD
ATOM     15  N   UNL     1       4.510  -0.587  -0.055  0.00  0.00    -0.158 NA
ATOM     16  C   UNL     1       4.588   0.696  -0.417  0.00  0.00    +0.146 A 
ATOM     17  N   UNL     1       5.672   1.474  -0.214  0.00  0.00    -0.282 N 
ATOM     18  H   UNL     1       6.414   1.042   0.323  0.00  0.00    +0.155 HD
ATOM     19  C   UNL     1       3.411   1.109  -1.086  0.00  0.00    +0.068 A 
ENDBRANCH   1  17
BRANCH   3  20
ATOM     20  C   UNL     1       3.202   5.459   0.624  0.00  0.00    +0.019 A 
ATOM     21  C   UNL     1       2.076   4.693   0.995  0.00  0.00    +0.011 A 
ATOM     22  C   UNL     1       0.835   5.288   1.249  0.00  0.00    +0.001 A 
ATOM     23  C   UNL     1       0.688   6.664   1.135  0.00  0.00    +0.000 A 
ATOM     24  C   UNL     1       1.779   7.447   0.772  0.00  0.00    +0.001 A 
ATOM     25  C   UNL     1       3.020   6.851   0.521  0.00  0.00    +0.011 A 
ENDBRANCH   3  20
TORSDOF 2
