REMARK  Name = 
REMARK  10 active torsions:
REMARK  status: ('A' for Active; 'I' for Inactive)
REMARK    1  A    between atoms: C_2  and  N_18
REMARK    2  A    between atoms: C_4  and  C_6
REMARK    3  A    between atoms: C_7  and  O_8
REMARK    4  A    between atoms: O_8  and  C_9
REMARK    5  A    between atoms: C_12  and  C_13
REMARK    6  A    between atoms: C_13  and  C_14
REMARK    7  A    between atoms: C_16  and  O_17
REMARK    8  A    between atoms: N_18  and  C_19
REMARK    9  A    between atoms: C_19  and  N_21
REMARK   10  A    between atoms: C_25  and  C_28
REMARK                            x       y       z     vdW  Elec       q    Type
REMARK                         _______ _______ _______ _____ _____    ______ ____
ROOT
ATOM      1  C   UNL     1       2.027   0.009   0.003  0.00  0.00    +0.080 C 
ATOM      2  C   UNL     1       2.886   0.400  -1.197  0.00  0.00    +0.048 C 
ATOM      3  C   UNL     1       2.654  -1.047  -0.866  0.00  0.00    +0.033 C 
ENDROOT
BRANCH   2   4
ATOM      4  C   UNL     1       4.090   1.294  -0.902  0.00  0.00    +0.041 A 
ATOM      5  C   UNL     1       5.269   0.776  -0.287  0.00  0.00    +0.134 A 
ATOM      6  C   UNL     1       6.295   1.595   0.244  0.00  0.00    +0.059 A 
ATOM      7  C   UNL     1       6.214   2.967   0.047  0.00  0.00    +0.018 A 
ATOM      8  C   UNL     1       5.134   3.498  -0.650  0.00  0.00    +0.047 A 
ATOM      9  C   UNL     1       4.075   2.697  -1.114  0.00  0.00    +0.127 A 
BRANCH   6  10
ATOM     10  C   UNL     1       7.405   0.974   1.040  0.00  0.00    +0.164 C 
ATOM     11  O   UNL     1       7.452  -0.257   1.133  0.00  0.00    -0.292 OA
ATOM     12  C   UNL     1       8.433   1.805   1.763  0.00  0.00    +0.092 C 
ENDBRANCH   6  10
BRANCH   5  13
ATOM     13  O   UNL     1       5.389  -0.596  -0.217  0.00  0.00    -0.506 OA
ATOM     14  H   UNL     1       6.192  -0.821   0.301  0.00  0.00    +0.292 HD
ENDBRANCH   5  13
BRANCH   9  15
ATOM     15  O   UNL     1       3.138   3.504  -1.706  0.00  0.00    -0.495 OA
ATOM     16  C   UNL     1       1.969   2.998  -2.314  0.00  0.00    +0.277 C 
ENDBRANCH   9  15
ENDBRANCH   2   4
BRANCH   1  17
ATOM     17  N   UNL     1       2.448   0.010   1.374  0.00  0.00    -0.323 N 
ATOM     18  H   UNL     1       2.762  -0.889   1.743  0.00  0.00    +0.148 HD
BRANCH  17  19
ATOM     19  C   UNL     1       2.325   0.983   2.323  0.00  0.00    +0.136 C 
ATOM     20  S   UNL     1       1.911   2.577   2.042  0.00  0.00    -0.019 S 
BRANCH  19  21
ATOM     21  N   UNL     1       2.546   0.601   3.625  0.00  0.00    -0.282 N 
ATOM     22  H   UNL     1       2.461   1.351   4.296  0.00  0.00    +0.155 HD
ATOM     23  C   UNL     1       2.761  -0.696   4.120  0.00  0.00    +0.124 A 
ATOM     24  C   UNL     1       2.897  -0.872   5.493  0.00  0.00    +0.045 A 
ATOM     25  C   UNL     1       3.087  -2.164   5.992  0.00  0.00    +0.024 A 
ATOM     26  C   UNL     1       3.130  -3.243   5.111  0.00  0.00    +0.070 A 
ATOM     27  C   UNL     1       2.986  -2.980   3.764  0.00  0.00    +0.131 A 
ATOM     28  N   UNL     1       2.809  -1.735   3.258  0.00  0.00    -0.239 NA
BRANCH  26  29
ATOM     29  C   UNL     1       3.313  -4.584   5.567  0.00  0.00    +0.101 C 
ATOM     30  N   UNL     1       3.459  -5.674   5.929  0.00  0.00    -0.191 NA
ENDBRANCH  26  29
ENDBRANCH  19  21
ENDBRANCH  17  19
ENDBRANCH   1  17
TORSDOF 8
