REMARK  Name = 
REMARK  5 active torsions:
REMARK  status: ('A' for Active; 'I' for Inactive)
REMARK    1  A    between atoms: C_2  and  C_3
REMARK    2  A    between atoms: C_2  and  C_5
REMARK    3  A    between atoms: C_2  and  C_11
REMARK    4  A    between atoms: C_3  and  C_4
REMARK    5  A    between atoms: C_12  and  O_13
REMARK                            x       y       z     vdW  Elec       q    Type
REMARK                         _______ _______ _______ _____ _____    ______ ____
ROOT
ATOM      1  C   UNL     1       2.752  -1.240   0.525  0.00  0.00    +0.086 A 
ATOM      2  C   UNL     1       2.999  -2.142  -0.641  0.00  0.00    +0.344 A 
ATOM      3  O   UNL     1       2.683  -1.818  -1.783  0.00  0.00    -0.245 OA
ATOM      4  O   UNL     1       3.542  -3.375  -0.397  0.00  0.00    -0.427 OA
ATOM      5  C   UNL     1       3.950  -3.757   0.896  0.00  0.00    +0.116 A 
ATOM      6  C   UNL     1       4.551  -5.128   1.000  0.00  0.00    +0.075 C 
ATOM      7  C   UNL     1       3.544  -6.261   1.192  0.00  0.00    +0.008 C 
ATOM      8  C   UNL     1       2.462  -6.221   2.288  0.00  0.00    +0.000 C 
ATOM      9  C   UNL     1       2.211  -4.998   3.173  0.00  0.00    +0.000 C 
ATOM     10  C   UNL     1       3.423  -4.493   3.961  0.00  0.00    +0.005 C 
ATOM     11  C   UNL     1       4.230  -3.342   3.337  0.00  0.00    +0.042 C 
ATOM     12  C   UNL     1       3.798  -2.935   1.947  0.00  0.00    +0.033 A 
ATOM     13  C   UNL     1       3.112  -1.681   1.746  0.00  0.00    +0.134 A 
ENDROOT
BRANCH  13  14
ATOM     14  O   UNL     1       2.805  -1.042   2.922  0.00  0.00    -0.506 OA
ATOM     15  H   UNL     1       2.125  -0.376   2.763  0.00  0.00    +0.292 HD
ENDBRANCH  13  14
BRANCH   1  16
ATOM     16  C   UNL     1       2.082   0.099   0.187  0.00  0.00    +0.059 C 
BRANCH  16  17
ATOM     17  C   UNL     1       2.904   1.316   0.631  0.00  0.00    -0.040 A 
ATOM     18  C   UNL     1       2.699   1.986   1.849  0.00  0.00    +0.004 A 
ATOM     19  C   UNL     1       3.427   3.133   2.174  0.00  0.00    +0.000 A 
ATOM     20  C   UNL     1       4.366   3.640   1.282  0.00  0.00    +0.000 A 
ATOM     21  C   UNL     1       4.601   2.982   0.078  0.00  0.00    +0.000 A 
ATOM     22  C   UNL     1       3.887   1.823  -0.239  0.00  0.00    +0.004 A 
ENDBRANCH  16  17
BRANCH  16  23
ATOM     23  C   UNL     1       0.593   0.124   0.617  0.00  0.00    +0.010 C 
ATOM     24  C   UNL     1      -0.170   1.333   0.080  0.00  0.00    +0.005 C 
ENDBRANCH  16  23
ENDBRANCH   1  16
TORSDOF 4
