REMARK  Name = 
REMARK  7 active torsions:
REMARK  status: ('A' for Active; 'I' for Inactive)
REMARK    1  A    between atoms: C_2  and  C_27
REMARK    2  A    between atoms: C_13  and  C_24
REMARK    3  A    between atoms: C_16  and  C_17
REMARK    4  A    between atoms: C_22  and  C_23
REMARK    5  A    between atoms: C_24  and  O_25
REMARK    6  A    between atoms: C_27  and  C_29
REMARK    7  A    between atoms: C_32  and  O_33
REMARK                            x       y       z     vdW  Elec       q    Type
REMARK                         _______ _______ _______ _____ _____    ______ ____
ROOT
ATOM      1  C   UNL     1      -0.000  -0.000   0.000  0.00  0.00    +0.066 C 
ATOM      2  C   UNL     1      -0.000  -0.000  -0.000  0.00  0.00    -0.019 C 
ATOM      3  C   UNL     1       0.000  -0.000   0.000  0.00  0.00    +0.012 C 
ATOM      4  C   UNL     1      -0.000  -0.000   0.000  0.00  0.00    -0.001 C 
ATOM      5  C   UNL     1      -0.000  -0.000   0.000  0.00  0.00    +0.000 C 
ATOM      6  C   UNL     1      -0.000  -0.000   0.000  0.00  0.00    +0.003 C 
ATOM      7  C   UNL     1      -0.000  -0.000   0.000  0.00  0.00    +0.005 C 
ATOM      8  C   UNL     1      -0.000  -0.000   0.000  0.00  0.00    -0.004 C 
ATOM      9  C   UNL     1      -0.000  -0.000   0.000  0.00  0.00    +0.016 C 
ATOM     10  C   UNL     1      -0.000  -0.000   0.000  0.00  0.00    -0.045 C 
ATOM     11  C   UNL     1      -0.000  -0.000   0.000  0.00  0.00    +0.014 C 
ATOM     12  C   UNL     1      -0.000  -0.000   0.000  0.00  0.00    +0.037 C 
ATOM     13  C   UNL     1      -0.000  -0.000   0.000  0.00  0.00    +0.043 C 
ATOM     14  C   UNL     1      -0.000  -0.000   0.000  0.00  0.00    -0.023 C 
ATOM     15  C   UNL     1      -0.000  -0.000   0.000  0.00  0.00    +0.016 C 
ATOM     16  C   UNL     1      -0.000  -0.000   0.000  0.00  0.00    +0.031 C 
ATOM     17  C   UNL     1      -0.000  -0.000   0.000  0.00  0.00    +0.005 C 
ATOM     18  C   UNL     1      -0.000  -0.000   0.000  0.00  0.00    +0.008 C 
ATOM     19  C   UNL     1      -0.000  -0.000  -0.000  0.00  0.00    +0.012 C 
ENDROOT
BRANCH   1  20
ATOM     20  C   UNL     1      -0.000  -0.000  -0.000  0.00  0.00    +0.167 C 
ATOM     21  O   UNL     1      -0.000  -0.000   0.000  0.00  0.00    -0.292 OA
BRANCH  20  22
ATOM     22  C   UNL     1      -0.000  -0.000   0.000  0.00  0.00    +0.018 A 
ATOM     23  C   UNL     1      -0.000  -0.000   0.000  0.00  0.00    +0.015 A 
ATOM     24  C   UNL     1      -0.000  -0.000   0.000  0.00  0.00    +0.046 A 
ATOM     25  C   UNL     1      -0.000  -0.000   0.000  0.00  0.00    +0.117 A 
ATOM     26  C   UNL     1      -0.000  -0.000   0.000  0.00  0.00    +0.046 A 
ATOM     27  C   UNL     1      -0.000  -0.000   0.000  0.00  0.00    +0.015 A 
BRANCH  25  28
ATOM     28  O   UNL     1      -0.000  -0.000   0.000  0.00  0.00    -0.507 OA
ATOM     29  H   UNL     1      -0.000  -0.000  -0.000  0.00  0.00    +0.292 HD
ENDBRANCH  25  28
ENDBRANCH  20  22
ENDBRANCH   1  20
BRANCH  12  30
ATOM     30  C   UNL     1      -0.000  -0.000   0.000  0.00  0.00    +0.333 C 
ATOM     31  O   UNL     1      -0.000  -0.000  -0.000  0.00  0.00    -0.245 OA
BRANCH  30  32
ATOM     32  O   UNL     1      -0.000  -0.000   0.000  0.00  0.00    -0.477 OA
ATOM     33  H   UNL     1      -0.000  -0.000   0.000  0.00  0.00    +0.295 HD
ENDBRANCH  30  32
ENDBRANCH  12  30
TORSDOF 5
