REMARK  Name = 
REMARK  5 active torsions:
REMARK  status: ('A' for Active; 'I' for Inactive)
REMARK    1  A    between atoms: C_1  and  C_2
REMARK    2  A    between atoms: C_2  and  C_3
REMARK    3  A    between atoms: C_2  and  N_4
REMARK    4  A    between atoms: C_11  and  C_14
REMARK    5  A    between atoms: C_15  and  C_19
REMARK                            x       y       z     vdW  Elec       q    Type
REMARK                         _______ _______ _______ _____ _____    ______ ____
ROOT
ATOM      1  N   UNL     1       3.094   0.100   1.109  0.00  0.00    -0.321 N 
ATOM      2  H   UNL     1       2.613   0.878   0.671  0.00  0.00    +0.148 HD
ATOM      3  C   UNL     1       4.425   0.280   1.256  0.00  0.00    +0.159 A 
ATOM      4  S   UNL     1       5.072   1.811   0.832  0.00  0.00    -0.052 S 
ATOM      5  C   UNL     1       6.620   1.288   1.335  0.00  0.00    +0.041 A 
ATOM      6  C   UNL     1       7.799   2.037   1.394  0.00  0.00    +0.029 A 
ATOM      7  C   UNL     1       8.921   1.495   2.042  0.00  0.00    +0.021 A 
ATOM      8  C   UNL     1       8.880   0.159   2.450  0.00  0.00    +0.014 A 
ATOM      9  C   UNL     1       7.725  -0.627   2.270  0.00  0.00    +0.029 A 
ATOM     10  C   UNL     1       6.553  -0.034   1.760  0.00  0.00    +0.080 A 
ATOM     11  N   UNL     1       5.298  -0.614   1.659  0.00  0.00    -0.225 NA
ENDROOT
BRANCH   7  12
ATOM     12  C   UNL     1      10.012   2.412   2.367  0.00  0.00    +0.163 A 
ATOM     13  O   UNL     1       9.587   3.710   2.539  0.00  0.00    -0.442 OA
ATOM     14  C   UNL     1      10.680   4.394   2.946  0.00  0.00    +0.309 A 
ATOM     15  N   UNL     1      11.776   3.687   3.012  0.00  0.00    -0.215 NA
ATOM     16  C   UNL     1      11.368   2.406   2.665  0.00  0.00    +0.120 A 
BRANCH  16  17
ATOM     17  C   UNL     1      12.263   1.265   2.740  0.00  0.00    +0.039 A 
ATOM     18  C   UNL     1      13.267   1.225   3.717  0.00  0.00    +0.133 A 
ATOM     19  F   UNL     1      13.492   2.270   4.529  0.00  0.00    -0.205 F 
ATOM     20  C   UNL     1      14.042   0.084   3.910  0.00  0.00    +0.039 A 
ATOM     21  C   UNL     1      13.823  -1.044   3.124  0.00  0.00    +0.003 A 
ATOM     22  C   UNL     1      12.876  -1.001   2.102  0.00  0.00    +0.001 A 
ATOM     23  C   UNL     1      12.123   0.159   1.891  0.00  0.00    +0.013 A 
ENDBRANCH  16  17
ENDBRANCH   7  12
BRANCH   1  25
ATOM     24  C   UNL     1       1.057  -1.132   0.730  0.00  0.00    +0.027 C 
ATOM     25  C   UNL     1       2.585  -1.207   0.723  0.00  0.00    +0.066 C 
ATOM     26  C   UNL     1       3.083  -1.575  -0.675  0.00  0.00    +0.027 C 
ENDBRANCH   1  25
TORSDOF 3
