REMARK  Name = 
REMARK  13 active torsions:
REMARK  status: ('A' for Active; 'I' for Inactive)
REMARK    1  A    between atoms: C_1  and  O_2
REMARK    2  A    between atoms: O_2  and  C_3
REMARK    3  A    between atoms: C_3  and  C_5
REMARK    4  A    between atoms: C_6  and  C_7
REMARK    5  A    between atoms: C_7  and  C_8
REMARK    6  A    between atoms: C_8  and  C_9
REMARK    7  A    between atoms: N_11  and  C_12
REMARK    8  A    between atoms: C_13  and  O_14
REMARK    9  A    between atoms: C_16  and  O_17
REMARK   10  A    between atoms: O_17  and  C_18
REMARK   11  A    between atoms: C_19  and  O_20
REMARK   12  A    between atoms: C_24  and  O_25
REMARK   13  A    between atoms: C_27  and  O_28
REMARK                            x       y       z     vdW  Elec       q    Type
REMARK                         _______ _______ _______ _____ _____    ______ ____
ROOT
ATOM      1  C   UNL     1       3.009   3.174   0.841  0.00  0.00    +0.101 C 
ENDROOT
BRANCH   1   2
ATOM      2  C   UNL     1       2.376   4.556   0.794  0.00  0.00    +0.218 C 
ATOM      3  N   UNL     1       1.009   4.512   0.593  0.00  0.00    -0.282 N 
ATOM      4  H   UNL     1       0.661   3.668   0.153  0.00  0.00    +0.155 HD
ATOM      5  O   UNL     1       3.009   5.589   0.989  0.00  0.00    -0.275 OA
BRANCH   3   6
ATOM      6  C   UNL     1       0.170   5.647   0.479  0.00  0.00    +0.079 A 
ATOM      7  C   UNL     1      -0.802   5.602  -0.522  0.00  0.00    +0.076 A 
ATOM      8  C   UNL     1      -1.684   6.666  -0.678  0.00  0.00    +0.160 A 
ATOM      9  C   UNL     1      -1.655   7.782   0.164  0.00  0.00    +0.165 A 
ATOM     10  C   UNL     1      -0.696   7.829   1.172  0.00  0.00    +0.096 A 
ATOM     11  C   UNL     1       0.208   6.767   1.327  0.00  0.00    +0.142 A 
BRANCH   8  12
ATOM     12  O   UNL     1      -2.607   6.589  -1.688  0.00  0.00    -0.503 OA
ATOM     13  H   UNL     1      -3.123   7.416  -1.620  0.00  0.00    +0.292 HD
ENDBRANCH   8  12
BRANCH   9  14
ATOM     14  O   UNL     1      -2.613   8.727  -0.096  0.00  0.00    -0.491 OA
ATOM     15  C   UNL     1      -2.695   9.816   0.817  0.00  0.00    +0.277 C 
ENDBRANCH   9  14
BRANCH  11  16
ATOM     16  O   UNL     1       1.048   6.861   2.403  0.00  0.00    -0.505 OA
ATOM     17  H   UNL     1       1.781   6.236   2.247  0.00  0.00    +0.292 HD
ENDBRANCH  11  16
ENDBRANCH   3   6
ENDBRANCH   1   2
BRANCH   1  18
ATOM     18  C   UNL     1       4.531   3.231   0.697  0.00  0.00    +0.047 C 
BRANCH  18  25
ATOM     19  C   UNL     1       5.544   0.999  -0.099  0.00  0.00    +0.105 A 
ATOM     20  C   UNL     1       6.213  -0.212   0.171  0.00  0.00    +0.135 A 
ATOM     21  C   UNL     1       6.595  -0.542   1.469  0.00  0.00    +0.093 A 
ATOM     22  C   UNL     1       6.268   0.321   2.505  0.00  0.00    +0.139 A 
ATOM     23  C   UNL     1       5.579   1.518   2.264  0.00  0.00    +0.086 A 
ATOM     24 CL   UNL     1       5.182   2.498   3.640  0.00  0.00    -0.079 Cl
ATOM     25  C   UNL     1       5.217   1.896   0.950  0.00  0.00    -0.008 A 
BRANCH  19  26
ATOM     26  C   UNL     1       5.121   1.282  -1.500  0.00  0.00    +0.343 C 
ATOM     27  O   UNL     1       4.000   1.687  -1.787  0.00  0.00    -0.245 OA
BRANCH  26  29
ATOM     28  C   UNL     1       5.815   1.127  -3.748  0.00  0.00    +0.280 C 
ATOM     29  O   UNL     1       6.143   1.064  -2.357  0.00  0.00    -0.464 OA
ENDBRANCH  26  29
ENDBRANCH  19  26
BRANCH  20  30
ATOM     30  O   UNL     1       6.471  -1.110  -0.825  0.00  0.00    -0.506 OA
ATOM     31  H   UNL     1       7.055  -1.810  -0.499  0.00  0.00    +0.292 HD
ENDBRANCH  20  30
BRANCH  22  32
ATOM     32  O   UNL     1       6.647  -0.066   3.765  0.00  0.00    -0.505 OA
ATOM     33  H   UNL     1       6.364   0.638   4.380  0.00  0.00    +0.292 HD
ENDBRANCH  22  32
ENDBRANCH  18  25
ENDBRANCH   1  18
TORSDOF 11
