REMARK  Name = 
REMARK  5 active torsions:
REMARK  status: ('A' for Active; 'I' for Inactive)
REMARK    1  A    between atoms: C_1  and  C_2
REMARK    2  A    between atoms: C_2  and  C_3
REMARK    3  A    between atoms: C_4  and  C_8
REMARK    4  A    between atoms: C_10  and  O_11
REMARK    5  A    between atoms: C_12  and  O_13
REMARK                            x       y       z     vdW  Elec       q    Type
REMARK                         _______ _______ _______ _____ _____    ______ ____
ROOT
ATOM      1  C   UNL     1       3.906   0.977  -2.521  0.00  0.00    -0.007 A 
ATOM      2  C   UNL     1       3.134   2.078  -2.107  0.00  0.00    +0.013 A 
ATOM      3  C   UNL     1       3.520   3.395  -2.385  0.00  0.00    +0.050 A 
ATOM      4  C   UNL     1       4.676   3.622  -3.108  0.00  0.00    +0.158 A 
ATOM      5  C   UNL     1       5.448   2.556  -3.551  0.00  0.00    +0.159 A 
ATOM      6  C   UNL     1       5.079   1.244  -3.256  0.00  0.00    +0.058 A 
ENDROOT
BRANCH   1  11
ATOM      7  C   UNL     1       2.850  -0.962  -1.088  0.00  0.00    -0.033 A 
ATOM      8  C   UNL     1       2.707  -2.390  -1.203  0.00  0.00    +0.012 A 
ATOM      9  C   UNL     1       3.205  -2.888  -2.381  0.00  0.00    +0.046 A 
ATOM     10  S   UNL     1       3.824  -1.655  -3.370  0.00  0.00    -0.096 S 
ATOM     11  C   UNL     1       3.497  -0.419  -2.201  0.00  0.00    +0.023 A 
BRANCH   7  13
ATOM     12  C   UNL     1       0.854   0.062   0.047  0.00  0.00    +0.009 C 
ATOM     13  C   UNL     1       2.348  -0.235   0.132  0.00  0.00    +0.033 C 
ENDBRANCH   7  13
ENDBRANCH   1  11
BRANCH   4  14
ATOM     14  O   UNL     1       5.051   4.903  -3.386  0.00  0.00    -0.503 OA
ATOM     15  H   UNL     1       5.880   4.810  -3.898  0.00  0.00    +0.292 HD
ENDBRANCH   4  14
BRANCH   5  16
ATOM     16  O   UNL     1       6.571   2.845  -4.278  0.00  0.00    -0.503 OA
ATOM     17  H   UNL     1       6.978   2.006  -4.554  0.00  0.00    +0.292 HD
ENDBRANCH   5  16
TORSDOF 4
