REMARK  Name = 
REMARK  18 active torsions:
REMARK  status: ('A' for Active; 'I' for Inactive)
REMARK    1  A    between atoms: C_2  and  O_3
REMARK    2  A    between atoms: C_2  and  C_4
REMARK    3  A    between atoms: C_2  and  C_15
REMARK    4  A    between atoms: N_6  and  C_7
REMARK    5  A    between atoms: C_7  and  C_8
REMARK    6  A    between atoms: C_8  and  C_9
REMARK    7  A    between atoms: N_11  and  C_12
REMARK    8  A    between atoms: C_12  and  C_13
REMARK    9  A    between atoms: C_13  and  S_14
REMARK   10  A    between atoms: C_15  and  C_16
REMARK   11  A    between atoms: C_15  and  C_17
REMARK   12  A    between atoms: C_15  and  C_18
REMARK   13  A    between atoms: C_18  and  O_19
REMARK   14  A    between atoms: O_19  and  C_20
REMARK   15  A    between atoms: C_20  and  C_22
REMARK   16  A    between atoms: C_22  and  C_23
REMARK   17  A    between atoms: C_22  and  C_24
REMARK   18  A    between atoms: C_22  and  C_25
REMARK                            x       y       z     vdW  Elec       q    Type
REMARK                         _______ _______ _______ _____ _____    ______ ____
ROOT
ATOM      1  C   UNL     1       2.064  -0.032  -0.016  0.00  0.00    +0.209 C 
ENDROOT
BRANCH   1   2
ATOM      2  C   UNL     1       0.528  -0.081   0.151  0.00  0.00    +0.242 C 
ATOM      3  N   UNL     1       0.114  -0.609   1.360  0.00  0.00    -0.313 N 
ATOM      4  H   UNL     1       0.799  -0.586   2.111  0.00  0.00    +0.149 HD
ATOM      5  O   UNL     1      -0.269   0.283  -0.707  0.00  0.00    -0.273 OA
BRANCH   3   6
ATOM      6  C   UNL     1      -1.299  -0.624   1.699  0.00  0.00    +0.113 C 
BRANCH   6   7
ATOM      7  C   UNL     1      -2.117  -1.536   0.785  0.00  0.00    +0.114 C 
BRANCH   7   8
ATOM      8  C   UNL     1      -3.584  -1.488   1.142  0.00  0.00    +0.215 C 
ATOM      9  N   UNL     1      -4.365  -2.276   0.323  0.00  0.00    -0.314 N 
ATOM     10  H   UNL     1      -3.951  -2.713  -0.492  0.00  0.00    +0.149 HD
ATOM     11  O   UNL     1      -4.037  -0.824   2.065  0.00  0.00    -0.276 OA
BRANCH   9  12
ATOM     12  C   UNL     1      -5.809  -2.334   0.477  0.00  0.00    +0.114 C 
BRANCH  12  13
ATOM     13  C   UNL     1      -6.546  -1.233  -0.286  0.00  0.00    +0.084 C 
BRANCH  13  14
ATOM     14  S   UNL     1      -6.322  -1.400  -2.088  0.00  0.00    -0.177 S 
ATOM     15  H   UNL     1      -5.008  -1.137  -2.096  0.00  0.00    +0.102 HD
ENDBRANCH  13  14
ENDBRANCH  12  13
ENDBRANCH   9  12
ENDBRANCH   7   8
ENDBRANCH   6   7
ENDBRANCH   3   6
ENDBRANCH   1   2
BRANCH   1  16
ATOM     16  C   UNL     1       2.562   0.537  -1.380  0.00  0.00    +0.034 C 
ATOM     17  C   UNL     1       2.059   1.976  -1.630  0.00  0.00    +0.017 C 
ATOM     18  C   UNL     1       2.086  -0.372  -2.536  0.00  0.00    +0.017 C 
BRANCH  16  19
ATOM     19  C   UNL     1       4.115   0.549  -1.373  0.00  0.00    +0.241 C 
BRANCH  19  20
ATOM     20  O   UNL     1       4.639   1.045  -2.623  0.00  0.00    -0.464 OA
BRANCH  20  21
ATOM     21  C   UNL     1       5.328   2.222  -2.579  0.00  0.00    +0.313 C 
ATOM     22  O   UNL     1       5.524   2.871  -1.560  0.00  0.00    -0.250 OA
BRANCH  21  23
ATOM     23  C   UNL     1       5.801   2.643  -3.974  0.00  0.00    +0.059 C 
ATOM     24  C   UNL     1       6.667   1.539  -4.594  0.00  0.00    +0.022 C 
ATOM     25  C   UNL     1       6.642   3.925  -3.851  0.00  0.00    +0.022 C 
ATOM     26  C   UNL     1       4.584   2.927  -4.865  0.00  0.00    +0.022 C 
ENDBRANCH  21  23
ENDBRANCH  20  21
ENDBRANCH  19  20
ENDBRANCH  16  19
ENDBRANCH   1  16
BRANCH   1  27
ATOM     27  O   UNL     1       2.620   0.674   1.099  0.00  0.00    -0.382 OA
ATOM     28  H   UNL     1       2.339   1.605   1.030  0.00  0.00    +0.210 HD
ENDBRANCH   1  27
TORSDOF 13
