REMARK  Name = 
REMARK  11 active torsions:
REMARK  status: ('A' for Active; 'I' for Inactive)
REMARK    1  A    between atoms: C_1  and  O_2
REMARK    2  A    between atoms: O_2  and  C_3
REMARK    3  A    between atoms: C_5  and  N_6
REMARK    4  A    between atoms: C_9  and  N_13
REMARK    5  A    between atoms: N_13  and  C_14
REMARK    6  A    between atoms: N_13  and  C_15
REMARK    7  A    between atoms: C_21  and  C_22
REMARK    8  A    between atoms: C_26  and  O_27
REMARK    9  A    between atoms: O_27  and  C_28
REMARK   10  A    between atoms: C_29  and  O_30
REMARK   11  A    between atoms: O_30  and  C_31
REMARK                            x       y       z     vdW  Elec       q    Type
REMARK                         _______ _______ _______ _____ _____    ______ ____
ROOT
ATOM      1  N   UNL     1       5.418  -0.925   3.871  0.00  0.00    -0.283 N 
ATOM      2  H   UNL     1       4.709  -1.449   3.376  0.00  0.00    +0.155 HD
ATOM      3  C   UNL     1       6.000  -1.766   4.827  0.00  0.00    +0.221 A 
ATOM      4  N   UNL     1       5.530  -3.016   4.848  0.00  0.00    -0.223 NA
ATOM      5  C   UNL     1       6.097  -3.846   5.732  0.00  0.00    +0.118 A 
ATOM      6  C   UNL     1       7.119  -3.478   6.577  0.00  0.00    +0.064 A 
ATOM      7  C   UNL     1       7.537  -2.159   6.546  0.00  0.00    +0.130 A 
ATOM      8  N   UNL     1       6.975  -1.330   5.646  0.00  0.00    -0.199 NA
ENDROOT
BRANCH   1  13
ATOM      9  C   UNL     1       5.598   2.689   4.836  0.00  0.00    +0.167 A 
ATOM     10  C   UNL     1       4.912   3.301   3.768  0.00  0.00    +0.204 A 
ATOM     11  C   UNL     1       4.385   2.476   2.750  0.00  0.00    +0.167 A 
ATOM     12  C   UNL     1       4.573   1.081   2.808  0.00  0.00    +0.073 A 
ATOM     13  C   UNL     1       5.262   0.469   3.856  0.00  0.00    +0.041 A 
ATOM     14  C   UNL     1       5.813   1.304   4.823  0.00  0.00    +0.073 A 
BRANCH   9  16
ATOM     15  C   UNL     1       6.234   2.778   7.127  0.00  0.00    +0.277 C 
ATOM     16  O   UNL     1       6.032   3.459   5.889  0.00  0.00    -0.491 OA
ENDBRANCH   9  16
BRANCH  10  17
ATOM     17  O   UNL     1       4.666   4.643   3.676  0.00  0.00    -0.488 OA
ATOM     18  C   UNL     1       5.552   5.552   4.309  0.00  0.00    +0.277 C 
ENDBRANCH  10  17
BRANCH  11  19
ATOM     19  O   UNL     1       3.666   2.837   1.636  0.00  0.00    -0.491 OA
ATOM     20  C   UNL     1       3.328   4.201   1.436  0.00  0.00    +0.277 C 
ENDBRANCH  11  19
ENDBRANCH   1  13
BRANCH   7  21
ATOM     21  N   UNL     1       8.529  -1.660   7.437  0.00  0.00    -0.288 N 
ATOM     22  C   UNL     1       8.600  -2.290   8.763  0.00  0.00    +0.137 C 
BRANCH  21  23
ATOM     23  C   UNL     1       9.226  -0.413   7.321  0.00  0.00    +0.037 A 
ATOM     24  C   UNL     1       9.675   0.306   8.452  0.00  0.00    +0.024 A 
ATOM     25  C   UNL     1      10.336   1.544   8.367  0.00  0.00    +0.013 A 
ATOM     26  C   UNL     1      10.580   2.092   7.105  0.00  0.00    +0.023 A 
ATOM     27  C   UNL     1      11.177   3.278   6.602  0.00  0.00    +0.067 A 
ATOM     28  N   UNL     1      11.178   3.303   5.264  0.00  0.00    -0.178 NA
ATOM     29  N   UNL     1      10.566   2.152   4.921  0.00  0.00    -0.277 N 
ATOM     30  H   UNL     1      10.440   1.950   3.936  0.00  0.00    +0.189 HD
ATOM     31  C   UNL     1      11.745   4.411   7.375  0.00  0.00    +0.068 C 
ATOM     32  C   UNL     1      10.177   1.382   5.984  0.00  0.00    +0.068 A 
ATOM     33  C   UNL     1       9.509   0.145   6.055  0.00  0.00    +0.051 A 
ENDBRANCH  21  23
ENDBRANCH   7  21
TORSDOF 6
