REMARK  Name = 
REMARK  9 active torsions:
REMARK  status: ('A' for Active; 'I' for Inactive)
REMARK    1  A    between atoms: C_1  and  C_2
REMARK    2  A    between atoms: C_2  and  O_3
REMARK    3  A    between atoms: O_3  and  C_4
REMARK    4  A    between atoms: C_6  and  N_7
REMARK    5  A    between atoms: C_8  and  N_27
REMARK    6  A    between atoms: C_10  and  C_11
REMARK    7  A    between atoms: N_13  and  C_14
REMARK    8  A    between atoms: N_17  and  C_18
REMARK    9  A    between atoms: C_18  and  C_19
REMARK                            x       y       z     vdW  Elec       q    Type
REMARK                         _______ _______ _______ _____ _____    ______ ____
ROOT
ATOM      1  C   UNL     1       3.867  -1.113   0.212  0.00  0.00    +0.248 C 
ATOM      2  N   UNL     1       3.689  -2.303   0.889  0.00  0.00    -0.308 N 
ATOM      3  H   UNL     1       4.303  -2.469   1.679  0.00  0.00    +0.149 HD
ATOM      4  O   UNL     1       3.169  -0.766  -0.735  0.00  0.00    -0.270 OA
ENDROOT
BRANCH   1   6
ATOM      5  C   UNL     1       5.639  -0.398   1.945  0.00  0.00    +0.135 A 
ATOM      6  C   UNL     1       4.963  -0.210   0.722  0.00  0.00    +0.085 A 
ATOM      7  C   UNL     1       5.294   0.906  -0.070  0.00  0.00    +0.103 A 
ATOM      8  C   UNL     1       6.257   1.840   0.364  0.00  0.00    +0.294 A 
ATOM      9  C   UNL     1       6.870   1.710   1.620  0.00  0.00    +0.106 A 
ATOM     10  C   UNL     1       6.561   0.571   2.373  0.00  0.00    +0.076 A 
BRANCH   8  11
ATOM     11  N   UNL     1       6.556   2.995  -0.502  0.00  0.00    +0.082 N 
ATOM     12  O   UNL     1       6.101   2.984  -1.654  0.00  0.00    +0.042 OA
ATOM     13  O   UNL     1       7.229   3.927  -0.032  0.00  0.00    -0.576 OA
ENDBRANCH   8  11
BRANCH   9  14
ATOM     14  N   UNL     1       7.938   2.496   2.085  0.00  0.00    -0.353 N 
ATOM     15  H   UNL     1       7.996   3.420   1.644  0.00  0.00    +0.143 HD
ATOM     16  H   UNL     1       8.027   2.555   3.096  0.00  0.00    +0.143 HD
ENDBRANCH   9  14
BRANCH   5  17
ATOM     17  O   UNL     1       5.352  -1.501   2.720  0.00  0.00    -0.491 OA
BRANCH  17  19
ATOM     18  C   UNL     1       5.982  -3.208   4.307  0.00  0.00    +0.048 C 
ATOM     19  C   UNL     1       6.425  -1.974   3.547  0.00  0.00    +0.226 C 
ENDBRANCH  17  19
ENDBRANCH   5  17
ENDBRANCH   1   6
BRANCH   2  20
ATOM     20  C   UNL     1       2.480  -3.118   0.808  0.00  0.00    +0.076 C 
ATOM     21  C   UNL     1       1.817  -3.179   2.191  0.00  0.00    +0.037 C 
ATOM     22  C   UNL     1       2.542  -4.151   3.123  0.00  0.00    +0.086 C 
ATOM     23  N   UNL     1       2.672  -5.509   2.578  0.00  0.00    -0.302 NA
ATOM     24  C   UNL     1       3.386  -5.465   1.296  0.00  0.00    +0.086 C 
ATOM     25  C   UNL     1       2.778  -4.518   0.259  0.00  0.00    +0.037 C 
BRANCH  23  26
ATOM     26  C   UNL     1       1.366  -6.191   2.545  0.00  0.00    +0.088 C 
BRANCH  26  27
ATOM     27  C   UNL     1       1.388  -7.704   2.205  0.00  0.00    +0.007 C 
ATOM     28  C   UNL     1       2.421  -8.462   3.059  0.00  0.00    +0.031 C 
ATOM     29  C   UNL     1       1.978  -9.732   3.700  0.00  0.00    -0.031 C 
ATOM     30  C   UNL     1       0.720 -10.178   3.695  0.00  0.00    -0.031 C 
ATOM     31  C   UNL     1      -0.408  -9.474   3.033  0.00  0.00    +0.027 C 
ATOM     32  C   UNL     1      -0.062  -8.242   2.198  0.00  0.00    +0.009 C 
ENDBRANCH  26  27
ENDBRANCH  23  26
ENDBRANCH   2  20
TORSDOF 8
