REMARK  Name = 
REMARK  3 active torsions:
REMARK  status: ('A' for Active; 'I' for Inactive)
REMARK    1  A    between atoms: C_2  and  C_5
REMARK    2  A    between atoms: C_9  and  C_11
REMARK    3  A    between atoms: N_18  and  C_19
REMARK                            x       y       z     vdW  Elec       q    Type
REMARK                         _______ _______ _______ _____ _____    ______ ____
ROOT
ATOM      1  C   UNL     1       2.585  -4.888  -1.108  0.00  0.00    +0.185 A 
ATOM      2  N   UNL     1       2.997  -6.054  -1.734  0.00  0.00    -0.191 N 
ATOM      3  C   UNL     1       2.313  -7.064  -1.089  0.00  0.00    +0.178 A 
ATOM      4  C   UNL     1       2.392  -8.358  -1.637  0.00  0.00    +0.053 A 
ATOM      5  C   UNL     1       3.146  -8.549  -2.727  0.00  0.00    +0.049 A 
ATOM      6  C   UNL     1       3.949  -7.406  -3.264  0.00  0.00    +0.140 A 
ATOM      7  N   UNL     1       4.808  -7.667  -4.303  0.00  0.00    -0.325 N 
ATOM      8  H   UNL     1       4.443  -8.159  -5.112  0.00  0.00    +0.148 HD
ATOM      9  N   UNL     1       1.666  -6.580  -0.057  0.00  0.00    -0.128 NA
ATOM     10  N   UNL     1       3.874  -6.196  -2.780  0.00  0.00    -0.148 NA
ATOM     11  N   UNL     1       1.853  -5.219  -0.054  0.00  0.00    -0.127 NA
ENDROOT
BRANCH   1  14
ATOM     12  C   UNL     1       2.884  -1.126  -0.967  0.00  0.00    +0.055 A 
ATOM     13  C   UNL     1       2.748  -2.475  -0.597  0.00  0.00    +0.024 A 
ATOM     14  C   UNL     1       2.846  -3.510  -1.542  0.00  0.00    +0.022 A 
ATOM     15  C   UNL     1       3.087  -3.168  -2.878  0.00  0.00    +0.011 A 
ATOM     16  C   UNL     1       3.234  -1.832  -3.259  0.00  0.00    +0.001 A 
ATOM     17  C   UNL     1       3.134  -0.815  -2.310  0.00  0.00    +0.012 A 
BRANCH  12  19
ATOM     18  F   UNL     1       2.830   1.215  -0.429  0.00  0.00    -0.166 F 
ATOM     19  C   UNL     1       2.731  -0.047   0.076  0.00  0.00    +0.417 C 
ATOM     20  F   UNL     1       1.526  -0.098   0.709  0.00  0.00    -0.166 F 
ATOM     21  F   UNL     1       3.673  -0.129   1.055  0.00  0.00    -0.166 F 
ENDBRANCH  12  19
ENDBRANCH   1  14
BRANCH   7  22
ATOM     22  C   UNL     1       6.153  -7.112  -4.410  0.00  0.00    +0.072 C 
ATOM     23  C   UNL     1       6.178  -5.797  -5.191  0.00  0.00    +0.022 C 
ATOM     24  C   UNL     1       6.122  -5.943  -6.713  0.00  0.00    +0.002 C 
ATOM     25  C   UNL     1       7.024  -7.039  -7.269  0.00  0.00    +0.000 C 
ATOM     26  C   UNL     1       6.868  -8.354  -6.519  0.00  0.00    +0.002 C 
ATOM     27  C   UNL     1       7.097  -8.157  -5.023  0.00  0.00    +0.022 C 
ENDBRANCH   7  22
TORSDOF 3
