REMARK  Name = 
REMARK  7 active torsions:
REMARK  status: ('A' for Active; 'I' for Inactive)
REMARK    1  A    between atoms: C_7  and  C_8
REMARK    2  A    between atoms: C_13  and  C_15
REMARK    3  A    between atoms: C_15  and  C_16
REMARK    4  A    between atoms: C_16  and  C_17
REMARK    5  A    between atoms: C_18  and  O_19
REMARK    6  A    between atoms: C_20  and  O_21
REMARK    7  A    between atoms: C_24  and  C_25
REMARK                            x       y       z     vdW  Elec       q    Type
REMARK                         _______ _______ _______ _____ _____    ______ ____
ROOT
ATOM      1  C   UNL     1       2.523   0.551  -0.008  0.00  0.00    +0.016 C 
ENDROOT
BRANCH   1   3
ATOM      2  C   UNL     1      -0.178  -0.025  -0.000  0.00  0.00    +0.013 C 
ATOM      3  C   UNL     1      -0.178  -0.025  -0.000  0.00  0.00    +0.060 C 
ATOM      4  C   UNL     1      -0.178  -0.025  -0.000  0.00  0.00    +0.137 C 
ATOM      5  O   UNL     1      -0.178  -0.025  -0.000  0.00  0.00    -0.297 OA
ATOM      6  C   UNL     1      -0.178  -0.025  -0.000  0.00  0.00    +0.075 C 
ATOM      7  C   UNL     1      -0.178  -0.025  -0.000  0.00  0.00    +0.022 C 
ATOM      8  C   UNL     1      -0.178  -0.025  -0.000  0.00  0.00    +0.030 C 
ATOM      9  C   UNL     1      -0.178  -0.025  -0.000  0.00  0.00    +0.019 C 
ATOM     10  C   UNL     1      -0.178  -0.025  -0.000  0.00  0.00    +0.139 C 
ATOM     11  O   UNL     1      -0.178  -0.025  -0.000  0.00  0.00    -0.297 OA
ATOM     12  C   UNL     1      -0.178  -0.025  -0.000  0.00  0.00    +0.075 C 
ATOM     13  C   UNL     1      -0.178  -0.025  -0.000  0.00  0.00    +0.012 C 
ENDBRANCH   1   3
BRANCH   1  14
ATOM     14  C   UNL     1      -0.178  -0.025  -0.000  0.00  0.00    +0.040 C 
BRANCH  14  15
ATOM     15  C   UNL     1       0.008   1.234  -0.870  0.00  0.00    +0.001 A 
ATOM     16  C   UNL     1      -0.178  -0.025   0.000  0.00  0.00    -0.044 A 
ATOM     17  C   UNL     1      -1.806  -0.562  -0.310  0.00  0.00    +0.044 C 
ATOM     18  C   UNL     1      -0.178  -0.025   0.000  0.00  0.00    +0.007 A 
ATOM     19  C   UNL     1      -0.178  -0.025   0.000  0.00  0.00    +0.049 A 
ATOM     20  C   UNL     1      -0.178  -0.025   0.000  0.00  0.00    +0.159 A 
ATOM     21  C   UNL     1      -0.178  -0.025   0.000  0.00  0.00    +0.162 A 
BRANCH  20  22
ATOM     22  O   UNL     1      -0.178  -0.025   0.000  0.00  0.00    -0.503 OA
ATOM     23  H   UNL     1      -0.352  -0.069  -0.010  0.00  0.00    +0.292 HD
ENDBRANCH  20  22
BRANCH  21  24
ATOM     24  O   UNL     1      -0.178  -0.025   0.000  0.00  0.00    -0.503 OA
ATOM     25  H   UNL     1      -0.352  -0.069  -0.010  0.00  0.00    +0.292 HD
ENDBRANCH  21  24
ENDBRANCH  14  15
ENDBRANCH   1  14
TORSDOF 5
