REMARK  Name = 
REMARK  5 active torsions:
REMARK  status: ('A' for Active; 'I' for Inactive)
REMARK    1  A    between atoms: C_2  and  C_8
REMARK    2  A    between atoms: N_10  and  C_11
REMARK    3  A    between atoms: C_11  and  C_12
REMARK    4  A    between atoms: C_11  and  C_13
REMARK    5  A    between atoms: C_11  and  C_14
REMARK                            x       y       z     vdW  Elec       q    Type
REMARK                         _______ _______ _______ _____ _____    ______ ____
ROOT
ATOM      1  C   UNL     1       2.492   0.343   1.522  0.00  0.00    +0.230 C 
ATOM      2  N   UNL     1       3.844   0.429   1.787  0.00  0.00    -0.309 N 
ATOM      3  H   UNL     1       4.443   0.376   0.966  0.00  0.00    +0.149 HD
ATOM      4  O   UNL     1       1.615   0.479   2.372  0.00  0.00    -0.274 OA
ENDROOT
BRANCH   1   5
ATOM      5  C   UNL     1       2.136  -0.003   0.067  0.00  0.00    +0.140 C 
ATOM      6  N   UNL     1       3.143   0.554  -0.876  0.00  0.00    -0.306 NA
ATOM      7  H   UNL     1       3.161   1.569  -0.749  0.00  0.00    +0.123 HD
ATOM      8  C   UNL     1       2.732   0.274  -2.259  0.00  0.00    +0.081 C 
ATOM      9  C   UNL     1       2.591  -1.225  -2.520  0.00  0.00    +0.015 C 
ATOM     10  C   UNL     1       1.644  -1.883  -1.521  0.00  0.00    +0.003 C 
ATOM     11  C   UNL     1       2.037  -1.521  -0.093  0.00  0.00    +0.028 C 
ENDBRANCH   1   5
BRANCH   2  12
ATOM     12  C   UNL     1       4.418   0.762   3.098  0.00  0.00    +0.026 C 
ATOM     13  C   UNL     1       3.963   2.159   3.552  0.00  0.00    +0.031 C 
ATOM     14  C   UNL     1       5.953   0.771   2.984  0.00  0.00    +0.031 C 
ATOM     15  C   UNL     1       4.025  -0.288   4.151  0.00  0.00    +0.031 C 
ENDBRANCH   2  12
TORSDOF 2
