REMARK  Name = 
REMARK  6 active torsions:
REMARK  status: ('A' for Active; 'I' for Inactive)
REMARK    1  A    between atoms: O_1  and  C_2
REMARK    2  A    between atoms: C_2  and  C_21
REMARK    3  A    between atoms: N_3  and  C_4
REMARK    4  A    between atoms: N_7  and  C_8
REMARK    5  A    between atoms: C_8  and  C_9
REMARK    6  A    between atoms: C_9  and  C_10
REMARK                            x       y       z     vdW  Elec       q    Type
REMARK                         _______ _______ _______ _____ _____    ______ ____
ROOT
ATOM      1  C   UNL     1       2.341  -1.606   1.286  0.00  0.00    +0.111 C 
ATOM      2  C   UNL     1       2.358  -2.955   0.560  0.00  0.00    +0.042 C 
ATOM      3  C   UNL     1       1.613  -2.895  -0.782  0.00  0.00    +0.086 C 
ATOM      4  N   UNL     1       0.250  -2.331  -0.715  0.00  0.00    -0.302 NA
ATOM      5  C   UNL     1       0.265  -1.043  -0.006  0.00  0.00    +0.086 C 
ATOM      6  C   UNL     1       0.891  -1.126   1.389  0.00  0.00    +0.042 C 
ENDROOT
BRANCH   1   8
ATOM      7  C   UNL     1       3.548   0.460   0.962  0.00  0.00    +0.215 C 
ATOM      8  N   UNL     1       3.112  -0.646   0.494  0.00  0.00    -0.247 NA
BRANCH   7   9
ATOM      9  C   UNL     1       4.139   1.527   0.135  0.00  0.00    +0.036 A 
ATOM     10  C   UNL     1       3.603   1.764  -1.136  0.00  0.00    +0.013 A 
ATOM     11  C   UNL     1       4.019   2.875  -1.871  0.00  0.00    +0.001 A 
ATOM     12  C   UNL     1       4.985   3.734  -1.346  0.00  0.00    +0.000 A 
ATOM     13  C   UNL     1       5.554   3.472  -0.098  0.00  0.00    +0.001 A 
ATOM     14  C   UNL     1       5.133   2.368   0.645  0.00  0.00    +0.013 A 
ENDBRANCH   7   9
BRANCH   7  15
ATOM     15  O   UNL     1       3.411   0.874   2.234  0.00  0.00    -0.492 OA
ATOM     16  H   UNL     1       2.888   0.251   2.756  0.00  0.00    +0.294 HD
ENDBRANCH   7  15
ENDBRANCH   1   8
BRANCH   4  17
ATOM     17  C   UNL     1      -0.711  -3.297  -0.162  0.00  0.00    +0.089 C 
BRANCH  17  18
ATOM     18  C   UNL     1      -2.173  -2.815  -0.214  0.00  0.00    +0.052 C 
BRANCH  18  19
ATOM     19  C   UNL     1      -3.090  -3.833   0.377  0.00  0.00    -0.021 A 
ATOM     20  C   UNL     1      -3.402  -4.000   1.761  0.00  0.00    +0.003 A 
ATOM     21  C   UNL     1      -4.237  -5.112   1.859  0.00  0.00    +0.047 A 
ATOM     22  C   UNL     1      -4.711  -5.592   3.088  0.00  0.00    +0.026 A 
ATOM     23  C   UNL     1      -4.326  -4.911   4.246  0.00  0.00    +0.002 A 
ATOM     24  C   UNL     1      -3.504  -3.789   4.178  0.00  0.00    +0.001 A 
ATOM     25  N   UNL     1      -4.452  -5.577   0.587  0.00  0.00    -0.360 N 
ATOM     26  H   UNL     1      -5.025  -6.378   0.358  0.00  0.00    +0.165 HD
ATOM     27  C   UNL     1      -3.036  -3.323   2.944  0.00  0.00    +0.010 A 
ATOM     28  C   UNL     1      -3.761  -4.821  -0.316  0.00  0.00    +0.087 A 
ENDBRANCH  18  19
ENDBRANCH  17  18
ENDBRANCH   4  17
TORSDOF 6
