REMARK  Name = 
REMARK  8 active torsions:
REMARK  status: ('A' for Active; 'I' for Inactive)
REMARK    1  A    between atoms: CA_2  and  N_3
REMARK    2  A    between atoms: CA_2  and  C_4
REMARK    3  A    between atoms: CA_2  and  C_23
REMARK    4  A    between atoms: C_4  and  C_5
REMARK    5  A    between atoms: C_12  and  N_13
REMARK    6  A    between atoms: N_13  and  N_14
REMARK    7  A    between atoms: N_14  and  C_15
REMARK    8  A    between atoms: C_21  and  O_22
REMARK                            x       y       z     vdW  Elec       q    Type
REMARK                         _______ _______ _______ _____ _____    ______ ____
ROOT
ATOM      1  C   UNL     1       2.119   2.526  -0.164  0.00  0.00    -0.020 A 
ATOM      2  C   UNL     1       2.489   3.876   0.141  0.00  0.00    +0.007 A 
ATOM      3  C   UNL     1       3.231   4.485   1.173  0.00  0.00    +0.012 A 
ATOM      4  C   UNL     1       3.414   5.873   1.168  0.00  0.00    +0.029 A 
ATOM      5  C   UNL     1       2.868   6.673   0.162  0.00  0.00    +0.088 A 
ATOM      6  C   UNL     1       2.156   6.070  -0.888  0.00  0.00    +0.163 A 
ATOM      7  C   UNL     1       1.968   4.687  -0.866  0.00  0.00    +0.091 A 
ATOM      8  N   UNL     1       1.318   3.869  -1.757  0.00  0.00    -0.358 N 
ATOM      9  H   UNL     1       0.864   4.206  -2.597  0.00  0.00    +0.165 HD
ATOM     10  C   UNL     1       1.391   2.567  -1.340  0.00  0.00    +0.087 A 
ENDROOT
BRANCH   6  11
ATOM     11  O   UNL     1       1.691   6.815  -1.941  0.00  0.00    -0.503 OA
ATOM     12  H   UNL     1       2.018   7.721  -1.745  0.00  0.00    +0.292 HD
ENDBRANCH   6  11
BRANCH   5  13
ATOM     13  N   UNL     1       3.170   8.064   0.183  0.00  0.00    -0.263 N 
ATOM     14  H   UNL     1       4.152   8.153  -0.110  0.00  0.00    +0.170 HD
BRANCH  13  15
ATOM     15  N   UNL     1       2.363   8.997  -0.445  0.00  0.00    -0.266 N 
ATOM     16  H   UNL     1       1.420   8.994  -0.024  0.00  0.00    +0.170 HD
BRANCH  15  17
ATOM     17  C   UNL     1       2.775  10.360  -0.441  0.00  0.00    +0.044 A 
ATOM     18  C   UNL     1       3.578  10.889   0.579  0.00  0.00    +0.024 A 
ATOM     19  C   UNL     1       3.933  12.240   0.577  0.00  0.00    +0.002 A 
ATOM     20  C   UNL     1       3.474  13.076  -0.438  0.00  0.00    +0.000 A 
ATOM     21  C   UNL     1       2.644  12.569  -1.436  0.00  0.00    +0.002 A 
ATOM     22  C   UNL     1       2.281  11.220  -1.428  0.00  0.00    +0.024 A 
ENDBRANCH  15  17
ENDBRANCH  13  15
ENDBRANCH   5  13
BRANCH   1  23
ATOM     23  C   UNL     1       2.469   1.292   0.617  0.00  0.00    +0.063 C 
BRANCH  23  24
ATOM     24  CA  UNL     1       1.912   1.280   2.047  0.00  0.00    +0.119 C 
BRANCH  24  25
ATOM     25  N   UNL     1       2.397   0.089   2.784  0.00  0.00    -0.321 NA
ATOM     26  H1  UNL     1       1.932   0.079   3.697  0.00  0.00    +0.119 HD
ATOM     27  H2  UNL     1       2.019  -0.744   2.324  0.00  0.00    +0.119 HD
ENDBRANCH  24  25
BRANCH  24  28
ATOM     28  C   UNL     1       0.385   1.284   2.022  0.00  0.00    +0.242 C 
ATOM     29  O   UNL     1      -0.312   0.408   2.533  0.00  0.00    -0.299 OA
ENDBRANCH  24  28
ENDBRANCH  23  24
ENDBRANCH   1  23
TORSDOF 8
