REMARK  Name = 
REMARK  8 active torsions:
REMARK  status: ('A' for Active; 'I' for Inactive)
REMARK    1  A    between atoms: C_1  and  N_2
REMARK    2  A    between atoms: N_2  and  C_3
REMARK    3  A    between atoms: C_3  and  C_4
REMARK    4  A    between atoms: C_4  and  C_6
REMARK    5  A    between atoms: C_9  and  C_11
REMARK    6  A    between atoms: C_11  and  C_12
REMARK    7  A    between atoms: C_11  and  C_13
REMARK    8  A    between atoms: C_11  and  C_14
REMARK                            x       y       z     vdW  Elec       q    Type
REMARK                         _______ _______ _______ _____ _____    ______ ____
ROOT
ATOM      1  C   UNL     1       5.357  -2.793  -0.341  0.00  0.00    +0.285 A 
ATOM      2  O   UNL     1       4.636  -3.957  -0.245  0.00  0.00    -0.417 OA
ATOM      3  C   UNL     1       5.616  -4.905  -0.406  0.00  0.00    +0.223 A 
ATOM      4  N   UNL     1       6.807  -4.373  -0.591  0.00  0.00    -0.111 NA
ATOM      5  N   UNL     1       6.641  -3.006  -0.550  0.00  0.00    -0.104 NA
ENDROOT
BRANCH   3   6
ATOM      6  C   UNL     1       5.213  -6.350  -0.338  0.00  0.00    +0.040 C 
ATOM      7  C   UNL     1       4.248  -6.684  -1.486  0.00  0.00    +0.020 C 
ATOM      8  C   UNL     1       4.531  -6.642   1.009  0.00  0.00    +0.020 C 
ATOM      9  C   UNL     1       6.460  -7.246  -0.462  0.00  0.00    +0.020 C 
ENDBRANCH   3   6
BRANCH   1  10
ATOM     10  C   UNL     1       4.711  -1.510  -0.191  0.00  0.00    +0.233 C 
ATOM     11  O   UNL     1       3.499  -1.371  -0.004  0.00  0.00    -0.286 OA
BRANCH  10  12
ATOM     12  C   UNL     1       5.643  -0.294  -0.268  0.00  0.00    +0.166 C 
BRANCH  12  14
ATOM     13  C   UNL     1       6.695   1.312  -1.723  0.00  0.00    +0.101 C 
ATOM     14  N   UNL     1       5.830   0.139  -1.665  0.00  0.00    -0.312 NA
ATOM     15  H   UNL     1       6.270  -0.613  -2.199  0.00  0.00    +0.122 HD
ENDBRANCH  12  14
ENDBRANCH  10  12
ENDBRANCH   1  10
TORSDOF 4
