REMARK  Name = 
REMARK  12 active torsions:
REMARK  status: ('A' for Active; 'I' for Inactive)
REMARK    1  A    between atoms: C_1  and  O_2
REMARK    2  A    between atoms: O_2  and  C_3
REMARK    3  A    between atoms: C_13  and  C_14
REMARK    4  A    between atoms: C_14  and  C_16
REMARK    5  A    between atoms: C_14  and  C_22
REMARK    6  A    between atoms: C_22  and  O_23
REMARK    7  A    between atoms: C_22  and  C_24
REMARK    8  A    between atoms: C_22  and  C_29
REMARK    9  A    between atoms: C_24  and  C_25
REMARK   10  A    between atoms: C_25  and  N_26
REMARK   11  A    between atoms: N_26  and  C_27
REMARK   12  A    between atoms: N_26  and  C_28
REMARK                            x       y       z     vdW  Elec       q    Type
REMARK                         _______ _______ _______ _____ _____    ______ ____
ROOT
ATOM      1  C   UNL     1       4.062   0.740  -2.205  0.00  0.00    +0.090 C 
ENDROOT
BRANCH   1   3
ATOM      2  C   UNL     1       3.773   0.529  -4.777  0.00  0.00    +0.219 A 
ATOM      3  C   UNL     1       3.461   1.184  -3.572  0.00  0.00    +0.025 A 
ATOM      4  C   UNL     1       2.491   2.187  -3.689  0.00  0.00    +0.019 A 
ATOM      5  C   UNL     1       1.946   2.531  -4.936  0.00  0.00    +0.002 A 
ATOM      6  C   UNL     1       0.855   3.403  -5.052  0.00  0.00    +0.025 A 
ATOM      7  C   UNL     1       0.338   3.696  -6.311  0.00  0.00    +0.019 A 
ATOM      8  C   UNL     1       0.956   3.199  -7.455  0.00  0.00    +0.017 A 
ATOM      9  C   UNL     1       2.044   2.335  -7.325  0.00  0.00    +0.029 A 
ATOM     10 BR   UNL     1      -1.246   4.712  -6.465  0.00  0.00    -0.050 Br
ATOM     11  C   UNL     1       2.502   1.936  -6.077  0.00  0.00    +0.075 A 
ATOM     12  N   UNL     1       3.398   0.956  -6.000  0.00  0.00    -0.213 NA
BRANCH   2  14
ATOM     13  C   UNL     1       4.634  -1.399  -5.906  0.00  0.00    +0.279 C 
ATOM     14  O   UNL     1       4.383  -0.700  -4.695  0.00  0.00    -0.479 OA
ENDBRANCH   2  14
ENDBRANCH   1   3
BRANCH   1  15
ATOM     15  C   UNL     1       5.496   0.182  -2.370  0.00  0.00    -0.037 A 
ATOM     16  C   UNL     1       5.748  -1.181  -2.096  0.00  0.00    +0.004 A 
ATOM     17  C   UNL     1       6.970  -1.776  -2.433  0.00  0.00    +0.000 A 
ATOM     18  C   UNL     1       7.989  -1.015  -2.999  0.00  0.00    +0.000 A 
ATOM     19  C   UNL     1       7.775   0.331  -3.260  0.00  0.00    +0.000 A 
ATOM     20  C   UNL     1       6.529   0.905  -2.995  0.00  0.00    +0.004 A 
ENDBRANCH   1  15
BRANCH   1  21
ATOM     21  C   UNL     1       3.683   1.683  -0.898  0.00  0.00    +0.104 C 
BRANCH  21  22
ATOM     22  C   UNL     1       3.902   3.226  -1.012  0.00  0.00    -0.007 A 
ATOM     23  C   UNL     1       3.016   4.231  -0.487  0.00  0.00    -0.012 A 
ATOM     24  C   UNL     1       1.936   4.005   0.404  0.00  0.00    +0.009 A 
ATOM     25  C   UNL     1       1.106   5.028   0.875  0.00  0.00    +0.001 A 
ATOM     26  C   UNL     1       1.326   6.337   0.473  0.00  0.00    +0.001 A 
ATOM     27  C   UNL     1       2.378   6.616  -0.386  0.00  0.00    +0.008 A 
ATOM     28  C   UNL     1       3.226   5.603  -0.850  0.00  0.00    -0.018 A 
ATOM     29  C   UNL     1       4.300   5.961  -1.665  0.00  0.00    +0.008 A 
ATOM     30  C   UNL     1       5.222   5.016  -2.060  0.00  0.00    +0.001 A 
ATOM     31  C   UNL     1       5.037   3.685  -1.693  0.00  0.00    +0.007 A 
ENDBRANCH  21  22
BRANCH  21  32
ATOM     32  O   UNL     1       2.245   1.459  -0.705  0.00  0.00    -0.383 OA
ATOM     33  H   UNL     1       1.864   1.009  -1.473  0.00  0.00    +0.211 HD
ENDBRANCH  21  32
BRANCH  21  34
ATOM     34  C   UNL     1       4.246   1.180   0.471  0.00  0.00    +0.056 C 
BRANCH  34  35
ATOM     35  C   UNL     1       5.765   1.155   0.634  0.00  0.00    +0.087 C 
BRANCH  35  36
ATOM     36  N   UNL     1       6.268   0.776   1.972  0.00  0.00    -0.308 NA
ATOM     37  C   UNL     1       7.734   0.708   1.899  0.00  0.00    +0.104 C 
ATOM     38  C   UNL     1       5.749  -0.516   2.430  0.00  0.00    +0.104 C 
ENDBRANCH  35  36
ENDBRANCH  34  35
ENDBRANCH  21  34
ENDBRANCH   1  21
TORSDOF 9
