REMARK  Name = 
REMARK  3 active torsions:
REMARK  status: ('A' for Active; 'I' for Inactive)
REMARK    1  A    between atoms: N_1  and  S_2
REMARK    2  A    between atoms: S_2  and  C_5
REMARK    3  A    between atoms: C_10  and  O_11
REMARK                            x       y       z     vdW  Elec       q    Type
REMARK                         _______ _______ _______ _____ _____    ______ ____
ROOT
ATOM      1  C   UNL     1       3.276  -1.578  -0.332  0.00  0.00    +0.113 A 
ATOM      2  C   UNL     1       4.660  -1.802  -0.252  0.00  0.00    +0.029 A 
ATOM      3  C   UNL     1       5.159  -3.094  -0.275  0.00  0.00    +0.003 A 
ATOM      4  C   UNL     1       4.276  -4.165  -0.360  0.00  0.00    +0.012 A 
ATOM      5  C   UNL     1       2.884  -3.974  -0.474  0.00  0.00    +0.025 A 
ATOM      6  C   UNL     1       2.011  -5.080  -0.565  0.00  0.00    +0.125 A 
ATOM      7  C   UNL     1       0.638  -4.921  -0.730  0.00  0.00    +0.046 A 
ATOM      8  C   UNL     1       0.111  -3.641  -0.805  0.00  0.00    +0.004 A 
ATOM      9  C   UNL     1       0.951  -2.529  -0.678  0.00  0.00    +0.010 A 
ATOM     10  C   UNL     1       2.355  -2.655  -0.495  0.00  0.00    +0.012 A 
ENDROOT
BRANCH   1  11
ATOM     11  S   UNL     1       2.748   0.106  -0.123  0.00  0.00    +0.057 S 
ATOM     12  O   UNL     1       3.900   0.951   0.112  0.00  0.00    -0.153 OA
ATOM     13  O   UNL     1       1.755   0.448  -1.113  0.00  0.00    -0.153 OA
BRANCH  11  14
ATOM     14  N   UNL     1       1.963   0.053   1.363  0.00  0.00    -0.203 NA
ATOM     15  H   UNL     1       2.525   0.529   2.070  0.00  0.00    +0.144 HD
ATOM     16  H   UNL     1       1.015   0.417   1.270  0.00  0.00    +0.144 HD
ENDBRANCH  11  14
ENDBRANCH   1  11
BRANCH   6  17
ATOM     17  O   UNL     1       2.529  -6.349  -0.484  0.00  0.00    -0.506 OA
ATOM     18  H   UNL     1       1.800  -6.990  -0.509  0.00  0.00    +0.292 HD
ENDBRANCH   6  17
TORSDOF 3
