REMARK  Name = 
REMARK  5 active torsions:
REMARK  status: ('A' for Active; 'I' for Inactive)
REMARK    1  A    between atoms: N_5  and  C_6
REMARK    2  A    between atoms: C_6  and  C_7
REMARK    3  A    between atoms: C_7  and  C_8
REMARK    4  A    between atoms: C_11  and  O_12
REMARK    5  A    between atoms: C_18  and  C_21
REMARK                            x       y       z     vdW  Elec       q    Type
REMARK                         _______ _______ _______ _____ _____    ______ ____
ROOT
ATOM      1  N   UNL     1       1.243  -0.425  -0.021  0.00  0.00    -0.327 N 
ATOM      2  H   UNL     1       0.877  -1.354   0.168  0.00  0.00    +0.145 HD
ATOM      3  H   UNL     1       0.659   0.368   0.211  0.00  0.00    +0.145 HD
ATOM      4  C   UNL     1       2.600  -0.233   0.008  0.00  0.00    +0.220 A 
ATOM      5  N   UNL     1       3.459  -1.332  -0.014  0.00  0.00    -0.164 N 
ATOM      6  C   UNL     1       4.810  -1.146  -0.008  0.00  0.00    +0.259 A 
ATOM      7  N   UNL     1       5.386  -2.320   0.006  0.00  0.00    -0.186 NA
ATOM      8  C   UNL     1       4.330  -3.210   0.011  0.00  0.00    +0.219 A 
ATOM      9  N   UNL     1       5.336   0.097  -0.015  0.00  0.00    -0.177 NA
ATOM     10  C   UNL     1       4.493   1.095   0.019  0.00  0.00    +0.221 A 
ATOM     11  N   UNL     1       5.042   2.347   0.001  0.00  0.00    -0.313 N 
ATOM     12  H   UNL     1       6.055   2.299   0.027  0.00  0.00    +0.149 HD
ATOM     13  N   UNL     1       3.110  -2.639   0.004  0.00  0.00    -0.137 NA
ATOM     14  N   UNL     1       3.121   0.959   0.058  0.00  0.00    -0.181 NA
ENDROOT
BRANCH   8  15
ATOM     15  C   UNL     1       4.602  -4.683   0.026  0.00  0.00    +0.173 A 
ATOM     16  O   UNL     1       3.684  -5.700   0.022  0.00  0.00    -0.460 OA
ATOM     17  C   UNL     1       4.381  -6.869   0.034  0.00  0.00    +0.196 A 
ATOM     18  C   UNL     1       5.734  -6.632   0.049  0.00  0.00    +0.042 A 
ATOM     19  C   UNL     1       5.877  -5.226   0.044  0.00  0.00    +0.053 A 
ENDBRANCH   8  15
BRANCH  11  20
ATOM     20  C   UNL     1       4.456   3.466   0.721  0.00  0.00    +0.109 C 
BRANCH  20  21
ATOM     21  C   UNL     1       5.383   4.690   0.648  0.00  0.00    +0.054 C 
BRANCH  21  22
ATOM     22  C   UNL     1       4.776   5.908   1.303  0.00  0.00    -0.046 A 
ATOM     23  C   UNL     1       3.933   6.753   0.568  0.00  0.00    +0.007 A 
ATOM     24  C   UNL     1       3.329   7.854   1.176  0.00  0.00    +0.045 A 
ATOM     25  C   UNL     1       3.561   8.112   2.521  0.00  0.00    +0.117 A 
ATOM     26  C   UNL     1       4.409   7.298   3.265  0.00  0.00    +0.045 A 
ATOM     27  C   UNL     1       5.016   6.196   2.656  0.00  0.00    +0.007 A 
BRANCH  25  28
ATOM     28  O   UNL     1       2.924   9.179   3.081  0.00  0.00    -0.507 OA
ATOM     29  H   UNL     1       3.092   9.173   4.038  0.00  0.00    +0.292 HD
ENDBRANCH  25  28
ENDBRANCH  21  22
ENDBRANCH  20  21
ENDBRANCH  11  20
TORSDOF 5
