REMARK  Name = 
REMARK  6 active torsions:
REMARK  status: ('A' for Active; 'I' for Inactive)
REMARK    1  A    between atoms: O_1  and  C_2
REMARK    2  A    between atoms: C_2  and  O_3
REMARK    3  A    between atoms: C_2  and  C_4
REMARK    4  A    between atoms: C_2  and  C_26
REMARK    5  A    between atoms: C_7  and  C_9
REMARK    6  A    between atoms: C_19  and  C_20
REMARK                            x       y       z     vdW  Elec       q    Type
REMARK                         _______ _______ _______ _____ _____    ______ ____
ROOT
ATOM      1  C   UNL     1       4.413   2.123  -4.307  0.00  0.00    +0.254 C 
ATOM      2  N   UNL     1       4.870   1.088  -5.138  0.00  0.00    -0.288 N 
ATOM      3  C   UNL     1       4.232  -0.224  -5.278  0.00  0.00    +0.182 C 
ATOM      4  C   UNL     1       5.144  -1.303  -4.778  0.00  0.00    +0.128 A 
ATOM      5  N   UNL     1       4.826  -2.565  -4.597  0.00  0.00    -0.238 NA
ATOM      6  C   UNL     1       5.961  -3.157  -4.109  0.00  0.00    +0.139 A 
ATOM      7  C   UNL     1       7.011  -2.257  -3.989  0.00  0.00    +0.069 A 
ATOM      8  N   UNL     1       6.465  -1.079  -4.463  0.00  0.00    -0.325 N 
ATOM      9  C   UNL     1       7.099   0.218  -4.629  0.00  0.00    +0.142 C 
ATOM     10  C   UNL     1       6.273   1.114  -5.552  0.00  0.00    +0.130 C 
ATOM     11  O   UNL     1       5.201   3.013  -3.977  0.00  0.00    -0.269 OA
ENDROOT
BRANCH   7  12
ATOM     12  C   UNL     1       8.369  -2.486  -3.480  0.00  0.00    +0.000 A 
ATOM     13  C   UNL     1       9.069  -1.514  -2.755  0.00  0.00    +0.010 A 
ATOM     14  C   UNL     1      10.348  -1.771  -2.250  0.00  0.00    +0.001 A 
ATOM     15  C   UNL     1      10.937  -3.017  -2.439  0.00  0.00    +0.000 A 
ATOM     16  C   UNL     1      10.251  -4.003  -3.140  0.00  0.00    +0.001 A 
ATOM     17  C   UNL     1       8.981  -3.738  -3.660  0.00  0.00    +0.010 A 
ENDBRANCH   7  12
BRANCH   1  20
ATOM     18  C   UNL     1       1.041   2.432  -2.366  0.00  0.00    +0.082 A 
ATOM     19  S   UNL     1       2.699   2.859  -2.317  0.00  0.00    -0.081 S 
ATOM     20  C   UNL     1       3.029   2.119  -3.829  0.00  0.00    +0.075 A 
ATOM     21  C   UNL     1       1.866   1.672  -4.422  0.00  0.00    +0.021 A 
ATOM     22  C   UNL     1       0.737   1.799  -3.560  0.00  0.00    +0.020 A 
BRANCH  18  23
ATOM     23  C   UNL     1       0.102   2.773  -1.221  0.00  0.00    +0.370 C 
BRANCH  23  24
ATOM     24  C   UNL     1      -0.580   4.185  -1.407  0.00  0.00    +0.473 C 
ATOM     25  F   UNL     1      -0.180   4.825  -2.532  0.00  0.00    -0.163 F 
ATOM     26  F   UNL     1      -0.339   5.022  -0.369  0.00  0.00    -0.163 F 
ATOM     27  F   UNL     1      -1.930   4.044  -1.504  0.00  0.00    -0.163 F 
ENDBRANCH  23  24
BRANCH  23  28
ATOM     28  O   UNL     1      -0.835   1.684  -1.207  0.00  0.00    -0.495 OA
ATOM     29  H   UNL     1      -1.629   1.990  -1.677  0.00  0.00    +0.288 HD
ENDBRANCH  23  28
BRANCH  23  30
ATOM     30  O   UNL     1       0.818   2.700   0.018  0.00  0.00    -0.495 OA
ATOM     31  H   UNL     1       1.755   2.863  -0.181  0.00  0.00    +0.288 HD
ENDBRANCH  23  30
ENDBRANCH  18  23
ENDBRANCH   1  20
TORSDOF 6
