REMARK  Name = 
REMARK  5 active torsions:
REMARK  status: ('A' for Active; 'I' for Inactive)
REMARK    1  A    between atoms: C_2  and  N_18
REMARK    2  A    between atoms: N_5  and  C_6
REMARK    3  A    between atoms: C_6  and  C_7
REMARK    4  A    between atoms: N_18  and  S_19
REMARK    5  A    between atoms: S_19  and  C_22
REMARK                            x       y       z     vdW  Elec       q    Type
REMARK                         _______ _______ _______ _____ _____    ______ ____
ROOT
ATOM      1  C   UNL     1       2.112   0.239   0.126  0.00  0.00    +0.164 C 
ATOM      2  C   UNL     1       2.580  -1.070   0.742  0.00  0.00    +0.235 C 
ATOM      3  O   UNL     1       2.106  -2.176   0.553  0.00  0.00    -0.274 OA
ATOM      4  N   UNL     1       3.662  -0.808   1.562  0.00  0.00    -0.294 N 
ATOM      5  C   UNL     1       4.125   0.543   1.406  0.00  0.00    +0.110 C 
ATOM      6  C   UNL     1       2.873   1.278   0.965  0.00  0.00    +0.049 C 
ENDROOT
BRANCH   1   7
ATOM      7  N   UNL     1       0.666   0.518   0.192  0.00  0.00    -0.178 NA
ATOM      8  H   UNL     1       0.292   0.674   1.127  0.00  0.00    +0.149 HD
BRANCH   7   9
ATOM      9  S   UNL     1      -0.369  -0.501  -0.684  0.00  0.00    +0.065 S 
ATOM     10  O   UNL     1       0.332  -0.982  -1.850  0.00  0.00    -0.153 OA
ATOM     11  O   UNL     1      -1.634   0.195  -0.785  0.00  0.00    -0.153 OA
BRANCH   9  12
ATOM     12  C   UNL     1      -0.726  -1.924   0.313  0.00  0.00    +0.145 A 
ATOM     13  S   UNL     1      -1.369  -1.601   1.867  0.00  0.00    -0.067 S 
ATOM     14  C   UNL     1      -1.321  -3.259   2.312  0.00  0.00    +0.039 A 
ATOM     15  C   UNL     1      -1.677  -3.847   3.534  0.00  0.00    +0.019 A 
ATOM     16  C   UNL     1      -1.502  -5.222   3.651  0.00  0.00    +0.021 A 
ATOM     17  C   UNL     1      -1.005  -5.927   2.570  0.00  0.00    +0.111 A 
ATOM     18  N   UNL     1      -0.674  -5.394   1.379  0.00  0.00    -0.254 NA
ATOM     19  C   UNL     1      -0.842  -4.048   1.267  0.00  0.00    +0.080 A 
ATOM     20  C   UNL     1      -0.542  -3.277   0.110  0.00  0.00    +0.064 A 
ENDBRANCH   9  12
ENDBRANCH   7   9
ENDBRANCH   1   7
BRANCH   4  21
ATOM     21  C   UNL     1       4.478  -1.851   2.144  0.00  0.00    +0.160 C 
BRANCH  21  22
ATOM     22  C   UNL     1       4.119  -2.038   3.575  0.00  0.00    +0.035 A 
ATOM     23  N   UNL     1       2.896  -2.539   3.968  0.00  0.00    -0.355 N 
ATOM     24  H   UNL     1       2.137  -2.762   3.334  0.00  0.00    +0.166 HD
ATOM     25  C   UNL     1       2.894  -2.790   5.322  0.00  0.00    +0.065 A 
ATOM     26  C   UNL     1       1.926  -3.361   6.139  0.00  0.00    +0.136 A 
ATOM     27  N   UNL     1       2.191  -3.540   7.452  0.00  0.00    -0.261 NA
ATOM     28  C   UNL     1       3.394  -3.154   7.937  0.00  0.00    +0.111 A 
ATOM     29  C   UNL     1       4.397  -2.562   7.183  0.00  0.00    +0.029 A 
ATOM     30  C   UNL     1       4.130  -2.380   5.821  0.00  0.00    +0.003 A 
ATOM     31  C   UNL     1       4.876  -1.874   4.721  0.00  0.00    +0.032 A 
ENDBRANCH  21  22
ENDBRANCH   4  21
TORSDOF 5
