REMARK  Name = 
REMARK  7 active torsions:
REMARK  status: ('A' for Active; 'I' for Inactive)
REMARK    1  A    between atoms: C_1  and  C_2
REMARK    2  A    between atoms: C_5  and  C_27
REMARK    3  A    between atoms: C_7  and  C_8
REMARK    4  A    between atoms: N_16  and  C_17
REMARK    5  A    between atoms: C_17  and  C_18
REMARK    6  A    between atoms: C_18  and  N_19
REMARK    7  A    between atoms: N_29  and  C_30
REMARK                            x       y       z     vdW  Elec       q    Type
REMARK                         _______ _______ _______ _____ _____    ______ ____
ROOT
ATOM      1  C   UNL     1       2.586  -2.490  -0.146  0.00  0.00    -0.017 A 
ATOM      2  C   UNL     1       3.274  -3.712  -0.278  0.00  0.00    +0.010 A 
ATOM      3  C   UNL     1       2.611  -4.957  -0.231  0.00  0.00    +0.029 A 
ATOM      4  C   UNL     1       1.233  -5.051  -0.093  0.00  0.00    +0.076 A 
ATOM      5  N   UNL     1       0.609  -6.244  -0.062  0.00  0.00    -0.215 NA
ATOM      6  C   UNL     1      -0.726  -6.249   0.073  0.00  0.00    +0.216 A 
ATOM      7  N   UNL     1      -1.472  -5.141   0.139  0.00  0.00    -0.222 NA
ATOM      8  C   UNL     1      -0.828  -3.966   0.109  0.00  0.00    +0.124 A 
ATOM      9  N   UNL     1      -1.347  -7.485   0.180  0.00  0.00    -0.312 N 
ATOM     10  H   UNL     1      -0.724  -8.181  -0.220  0.00  0.00    +0.149 HD
ATOM     11  C   UNL     1       0.544  -3.850   0.016  0.00  0.00    +0.019 A 
ATOM     12  C   UNL     1       1.203  -2.603   0.028  0.00  0.00    +0.020 A 
ENDROOT
BRANCH   1  15
ATOM     13  C   UNL     1       1.412   0.176  -1.330  0.00  0.00    +0.044 C 
ATOM     14  C   UNL     1       2.764   0.043  -0.674  0.00  0.00    -0.043 A 
ATOM     15  C   UNL     1       3.301  -1.170  -0.152  0.00  0.00    -0.014 A 
ATOM     16  C   UNL     1       4.611  -1.105   0.391  0.00  0.00    +0.021 A 
ATOM     17  C   UNL     1       5.372   0.079   0.396  0.00  0.00    +0.037 A 
ATOM     18  C   UNL     1       4.801   1.255  -0.080  0.00  0.00    +0.013 A 
ATOM     19  C   UNL     1       3.514   1.238  -0.600  0.00  0.00    +0.005 A 
BRANCH  17  20
ATOM     20  C   UNL     1       6.770   0.148   0.895  0.00  0.00    +0.244 C 
ATOM     21  N   UNL     1       7.536  -0.995   0.753  0.00  0.00    -0.308 N 
ATOM     22  H   UNL     1       7.164  -1.785   0.244  0.00  0.00    +0.149 HD
ATOM     23  O   UNL     1       7.201   1.201   1.352  0.00  0.00    -0.270 OA
BRANCH  21  24
ATOM     24  C   UNL     1       8.931  -1.006   1.081  0.00  0.00    +0.073 C 
ATOM     25  C   UNL     1       9.971  -1.032  -0.006  0.00  0.00    +0.024 C 
ATOM     26  C   UNL     1       9.767  -2.235   0.867  0.00  0.00    +0.024 C 
ENDBRANCH  21  24
ENDBRANCH  17  20
ENDBRANCH   1  15
BRANCH   9  27
ATOM     27  C   UNL     1      -2.709  -7.540  -0.333  0.00  0.00    +0.119 C 
BRANCH  27  28
ATOM     28  C   UNL     1      -2.726  -7.910  -1.833  0.00  0.00    +0.103 C 
BRANCH  28  29
ATOM     29  N   UNL     1      -2.158  -9.242  -2.152  0.00  0.00    -0.297 NA
ATOM     30  C   UNL     1      -2.193  -9.486  -3.615  0.00  0.00    +0.112 C 
ATOM     31  C   UNL     1      -3.605  -9.752  -4.175  0.00  0.00    +0.175 C 
ATOM     32  O   UNL     1      -4.266 -10.817  -3.478  0.00  0.00    -0.377 OA
ATOM     33  C   UNL     1      -4.304 -10.570  -2.067  0.00  0.00    +0.175 C 
ATOM     34  C   UNL     1      -2.888 -10.359  -1.507  0.00  0.00    +0.112 C 
ENDBRANCH  28  29
ENDBRANCH  27  28
ENDBRANCH   9  27
TORSDOF 6
