REMARK  Name = 
REMARK  8 active torsions:
REMARK  status: ('A' for Active; 'I' for Inactive)
REMARK    1  A    between atoms: C_1  and  N_2
REMARK    2  A    between atoms: N_2  and  C_3
REMARK    3  A    between atoms: N_2  and  C_4
REMARK    4  A    between atoms: C_4  and  C_5
REMARK    5  A    between atoms: C_13  and  C_14
REMARK    6  A    between atoms: C_14  and  C_15
REMARK    7  A    between atoms: C_15  and  C_16
REMARK    8  A    between atoms: C_16  and  O_17
REMARK                            x       y       z     vdW  Elec       q    Type
REMARK                         _______ _______ _______ _____ _____    ______ ____
ROOT
ATOM      1  C   UNL     1       4.497  -1.244  -0.518  0.00  0.00    -0.008 A 
ATOM      2  C   UNL     1       5.348  -1.767   0.513  0.00  0.00    +0.004 A 
ATOM      3  C   UNL     1       5.101  -2.404   1.746  0.00  0.00    +0.010 A 
ATOM      4  C   UNL     1       6.175  -2.804   2.543  0.00  0.00    +0.001 A 
ATOM      5  C   UNL     1       7.485  -2.587   2.124  0.00  0.00    +0.006 A 
ATOM      6  C   UNL     1       7.779  -1.973   0.891  0.00  0.00    -0.023 A 
ATOM      7  C   UNL     1       6.672  -1.567   0.117  0.00  0.00    +0.050 A 
ATOM      8  N   UNL     1       6.626  -0.940  -1.108  0.00  0.00    -0.360 N 
ATOM      9  H   UNL     1       7.438  -0.680  -1.649  0.00  0.00    +0.165 HD
ATOM     10  C   UNL     1       5.332  -0.730  -1.493  0.00  0.00    +0.088 A 
ENDROOT
BRANCH   1  11
ATOM     11  C   UNL     1       2.997  -1.252  -0.528  0.00  0.00    +0.121 C 
BRANCH  11  13
ATOM     12  C   UNL     1       2.850  -3.409  -1.650  0.00  0.00    +0.104 C 
ATOM     13  N   UNL     1       2.467  -1.994  -1.687  0.00  0.00    -0.304 NA
ATOM     14  C   UNL     1       1.007  -1.883  -1.708  0.00  0.00    +0.104 C 
ENDBRANCH  11  13
ENDBRANCH   1  11
BRANCH   6  15
ATOM     15  C   UNL     1       9.215  -1.777   0.474  0.00  0.00    +0.039 C 
BRANCH  15  16
ATOM     16  C   UNL     1       9.760  -0.421   0.916  0.00  0.00    +0.032 C 
BRANCH  16  17
ATOM     17  C   UNL     1      11.203  -0.236   0.465  0.00  0.00    +0.156 C 
BRANCH  17  18
ATOM     18  O   UNL     1      11.694   1.025   0.900  0.00  0.00    -0.395 OA
ATOM     19  H   UNL     1      11.109   1.713   0.540  0.00  0.00    +0.209 HD
ENDBRANCH  17  18
ENDBRANCH  16  17
ENDBRANCH  15  16
ENDBRANCH   6  15
TORSDOF 6
