REMARK  Name = 
REMARK  3 active torsions:
REMARK  status: ('A' for Active; 'I' for Inactive)
REMARK    1  A    between atoms: C_5  and  C_6
REMARK    2  A    between atoms: C_6  and  C_7
REMARK    3  A    between atoms: C_19  and  C_20
REMARK                            x       y       z     vdW  Elec       q    Type
REMARK                         _______ _______ _______ _____ _____    ______ ____
ROOT
ATOM      1  F   UNL     1       1.011   0.598  -0.751  0.00  0.00    -0.205 F 
ATOM      2  C   UNL     1       2.300   0.419  -0.429  0.00  0.00    +0.135 A 
ATOM      3  C   UNL     1       2.834  -0.850  -0.224  0.00  0.00    +0.072 A 
ATOM      4  C   UNL     1       4.237  -0.958  -0.132  0.00  0.00    +0.020 A 
ATOM      5  C   UNL     1       5.077   0.168  -0.210  0.00  0.00    -0.041 A 
ATOM      6  C   UNL     1       4.493   1.437  -0.263  0.00  0.00    +0.007 A 
ATOM      7  C   UNL     1       3.107   1.558  -0.376  0.00  0.00    +0.039 A 
ENDROOT
BRANCH   3   8
ATOM      8  C   UNL     1       2.072  -2.136  -0.257  0.00  0.00    +0.249 C 
ATOM      9  N   UNL     1       0.784  -2.300   0.281  0.00  0.00    -0.296 N 
ATOM     10  C   UNL     1       0.146  -3.615   0.089  0.00  0.00    +0.123 C 
ATOM     11  C   UNL     1      -0.174  -4.322   1.417  0.00  0.00    +0.100 C 
ATOM     12  N   UNL     1      -1.471  -4.013   2.030  0.00  0.00    -0.314 NA
ATOM     13  H   UNL     1      -2.192  -4.623   1.643  0.00  0.00    +0.122 HD
ATOM     14  C   UNL     1      -1.911  -2.628   1.922  0.00  0.00    +0.082 C 
ATOM     15  C   UNL     1      -0.815  -1.587   2.129  0.00  0.00    +0.034 C 
ATOM     16  C   UNL     1      -0.042  -1.242   0.862  0.00  0.00    +0.109 C 
ATOM     17  O   UNL     1       2.680  -3.090  -0.753  0.00  0.00    -0.270 OA
ENDBRANCH   3   8
BRANCH   5  18
ATOM     18  C   UNL     1       6.554  -0.022  -0.470  0.00  0.00    +0.093 C 
BRANCH  18  19
ATOM     19  C   UNL     1       7.509   0.739   0.427  0.00  0.00    +0.074 A 
ATOM     20  C   UNL     1       7.989   0.121   1.685  0.00  0.00    +0.011 A 
ATOM     21  C   UNL     1       9.019   0.768   2.359  0.00  0.00    +0.050 A 
ATOM     22  C   UNL     1       9.545   0.233   3.542  0.00  0.00    +0.014 A 
ATOM     23  C   UNL     1       9.013  -0.953   4.058  0.00  0.00    +0.001 A 
ATOM     24  C   UNL     1       7.978  -1.598   3.390  0.00  0.00    +0.001 A 
ATOM     25  C   UNL     1       9.546   2.030   1.821  0.00  0.00    +0.272 A 
ATOM     26  O   UNL     1      10.496   2.604   2.343  0.00  0.00    -0.266 OA
ATOM     27  N   UNL     1       8.896   2.532   0.718  0.00  0.00    -0.242 N 
ATOM     28  H   UNL     1       9.253   3.400   0.328  0.00  0.00    +0.192 HD
ATOM     29  C   UNL     1       7.459  -1.069   2.205  0.00  0.00    +0.010 A 
ATOM     30  N   UNL     1       7.938   1.892  -0.002  0.00  0.00    -0.175 NA
ENDBRANCH  18  19
ENDBRANCH   5  18
TORSDOF 3
