REMARK  Name = 
REMARK  5 active torsions:
REMARK  status: ('A' for Active; 'I' for Inactive)
REMARK    1  A    between atoms: CA_2  and  CB_3
REMARK    2  A    between atoms: CA_2  and  N_4
REMARK    3  A    between atoms: CA_2  and  C_13
REMARK    4  A    between atoms: C_5  and  C_7
REMARK    5  A    between atoms: C_13  and  O_14
REMARK                            x       y       z     vdW  Elec       q    Type
REMARK                         _______ _______ _______ _____ _____    ______ ____
ROOT
ATOM      1  N   ALA A   1       2.359   1.312  -0.832  0.00  0.00    -0.299 N 
ATOM      2  H   ALA A   1       2.922   1.988  -0.330  0.00  0.00    +0.150 HD
ATOM      3  C   UNK A   0       2.367   1.370  -2.206  0.00  0.00    +0.245 C 
ATOM      4  O   UNK A   0       2.149   0.368  -2.881  0.00  0.00    -0.270 OA
ENDROOT
BRANCH   3   5
ATOM      5  C   UNK A   0       2.773   2.667  -2.814  0.00  0.00    +0.037 A 
ATOM      6  C   UNK A   0       2.702   3.872  -2.099  0.00  0.00    +0.013 A 
ATOM      7  C   UNK A   0       3.155   5.058  -2.679  0.00  0.00    +0.001 A 
ATOM      8  C   UNK A   0       3.663   5.050  -3.977  0.00  0.00    +0.000 A 
ATOM      9  C   UNK A   0       3.700   3.861  -4.706  0.00  0.00    +0.001 A 
ATOM     10  C   UNK A   0       3.250   2.671  -4.130  0.00  0.00    +0.013 A 
ENDBRANCH   3   5
BRANCH   1  11
ATOM     11  CA  ALA A   1       1.987   0.098  -0.105  0.00  0.00    +0.179 C 
ATOM     12  CB  ALA A   1       1.414   0.473   1.253  0.00  0.00    +0.040 C 
BRANCH  11  13
ATOM     13  C   ALA A   1       3.196  -0.843   0.017  0.00  0.00    +0.325 C 
ATOM     14  OXT ALA A   1       3.641  -1.277   1.071  0.00  0.00    -0.249 OA
BRANCH  13  15
ATOM     15  O   ALA A   1       3.715  -1.197  -1.185  0.00  0.00    -0.479 OA
ATOM     16  H   ALA A   1       3.202  -0.819  -1.940  0.00  0.00    +0.295 HD
ENDBRANCH  13  15
ENDBRANCH  11  13
ENDBRANCH   1  11
TORSDOF 4
