REMARK  Name = 
REMARK  9 active torsions:
REMARK  status: ('A' for Active; 'I' for Inactive)
REMARK    1  A    between atoms: C_7  and  C_30
REMARK    2  A    between atoms: C_13  and  N_15
REMARK    3  A    between atoms: C_16  and  C_18
REMARK    4  A    between atoms: C_18  and  C_19
REMARK    5  A    between atoms: C_18  and  C_20
REMARK    6  A    between atoms: C_18  and  O_21
REMARK    7  A    between atoms: O_21  and  C_22
REMARK    8  A    between atoms: C_25  and  O_26
REMARK    9  A    between atoms: O_26  and  C_27
REMARK                            x       y       z     vdW  Elec       q    Type
REMARK                         _______ _______ _______ _____ _____    ______ ____
ROOT
ATOM      1  N   UNL     1       3.868   0.047   3.258  0.00  0.00    -0.309 N 
ATOM      2  H   UNL     1       3.240   0.806   3.474  0.00  0.00    +0.149 HD
ATOM      3  C   UNL     1       4.142  -0.854   4.264  0.00  0.00    +0.257 C 
ATOM      4  O   UNL     1       4.912  -1.796   4.080  0.00  0.00    -0.271 OA
ENDROOT
BRANCH   1   8
ATOM      5  C   UNL     1       1.977  -0.062   0.307  0.00  0.00    -0.009 C 
ATOM      6  C   UNL     1       2.401   1.231   1.022  0.00  0.00    +0.009 C 
ATOM      7  C   UNL     1       3.938   1.285   1.148  0.00  0.00    +0.011 C 
ATOM      8  C   UNL     1       4.443   0.032   1.910  0.00  0.00    +0.079 C 
ATOM      9  C   UNL     1       4.062  -1.232   1.098  0.00  0.00    +0.011 C 
ATOM     10  C   UNL     1       4.650  -1.152  -0.339  0.00  0.00    +0.021 C 
ATOM     11  C   UNL     1       4.098   0.088  -1.079  0.00  0.00    +0.048 C 
ATOM     12  C   UNL     1       4.536   1.328  -0.266  0.00  0.00    +0.021 C 
ATOM     13  C   UNL     1       2.550  -0.016  -1.109  0.00  0.00    +0.019 C 
ATOM     14  C   UNL     1       2.528  -1.311   1.012  0.00  0.00    +0.009 C 
BRANCH  11  15
ATOM     15  C   UNL     1       4.584   0.222  -2.528  0.00  0.00    +0.217 C 
ATOM     16  O   UNL     1       3.830   0.287  -3.496  0.00  0.00    -0.275 OA
ATOM     17  N   UNL     1       5.924   0.318  -2.728  0.00  0.00    -0.329 N 
ATOM     18  H   UNL     1       6.226   0.500  -3.676  0.00  0.00    +0.145 HD
ATOM     19  H   UNL     1       6.604   0.349  -1.985  0.00  0.00    +0.145 HD
ENDBRANCH  11  15
ENDBRANCH   1   8
BRANCH   3  20
ATOM     20  C   UNL     1       3.405  -0.592   5.640  0.00  0.00    +0.180 C 
ATOM     21  C   UNL     1       3.303   0.931   5.857  0.00  0.00    +0.065 C 
ATOM     22  C   UNL     1       4.289  -1.286   6.693  0.00  0.00    +0.065 C 
BRANCH  20  23
ATOM     23  O   UNL     1       2.089  -1.185   5.541  0.00  0.00    -0.477 OA
BRANCH  23  24
ATOM     24  C   UNL     1       1.199  -1.200   6.585  0.00  0.00    +0.122 A 
ATOM     25  C   UNL     1      -0.015  -1.858   6.345  0.00  0.00    +0.049 A 
ATOM     26  C   UNL     1      -0.999  -1.973   7.349  0.00  0.00    +0.049 A 
ATOM     27  C   UNL     1      -0.772  -1.436   8.609  0.00  0.00    +0.120 A 
ATOM     28  C   UNL     1       0.425  -0.770   8.855  0.00  0.00    +0.049 A 
ATOM     29  C   UNL     1       1.383  -0.644   7.849  0.00  0.00    +0.049 A 
BRANCH  27  30
ATOM     30  O   UNL     1      -1.584  -1.553   9.706  0.00  0.00    -0.495 OA
ATOM     31  C   UNL     1      -2.985  -1.527   9.454  0.00  0.00    +0.277 C 
ENDBRANCH  27  30
ENDBRANCH  23  24
ENDBRANCH  20  23
ENDBRANCH   3  20
TORSDOF 6
