REMARK  Name = 
REMARK  8 active torsions:
REMARK  status: ('A' for Active; 'I' for Inactive)
REMARK    1  A    between atoms: C_2  and  C_3
REMARK    2  A    between atoms: C_3  and  O_4
REMARK    3  A    between atoms: O_4  and  C_5
REMARK    4  A    between atoms: C_9  and  N_10
REMARK    5  A    between atoms: C_11  and  C_13
REMARK    6  A    between atoms: C_13  and  C_14
REMARK    7  A    between atoms: C_14  and  C_15
REMARK    8  A    between atoms: N_17  and  C_18
REMARK                            x       y       z     vdW  Elec       q    Type
REMARK                         _______ _______ _______ _____ _____    ______ ____
ROOT
ATOM      1  C   UNL     1       8.934  -0.651  -7.776  0.00  0.00    +0.218 C 
ATOM      2  N   UNL     1       9.707  -1.793  -7.893  0.00  0.00    -0.285 N 
ATOM      3  H   UNL     1       9.646  -2.472  -7.138  0.00  0.00    +0.155 HD
ATOM      4  O   UNL     1       8.733   0.165  -8.668  0.00  0.00    -0.275 OA
ENDROOT
BRANCH   2   5
ATOM      5  C   UNL     1      10.525  -2.126  -8.992  0.00  0.00    +0.034 A 
ATOM      6  C   UNL     1      11.052  -3.420  -9.062  0.00  0.00    +0.036 A 
ATOM      7  C   UNL     1      11.872  -3.786 -10.141  0.00  0.00    +0.041 A 
ATOM      8  C   UNL     1      12.201  -2.859 -11.128  0.00  0.00    +0.048 A 
ATOM      9  C   UNL     1      13.119  -3.214 -12.231  0.00  0.00    +0.251 C 
ATOM     10  N   UNL     1      13.700  -4.452 -12.187  0.00  0.00    -0.246 N 
ATOM     11  H   UNL     1      14.200  -4.695 -13.033  0.00  0.00    +0.158 HD
ATOM     12  C   UNL     1      13.138  -5.517 -11.534  0.00  0.00    +0.291 C 
ATOM     13  O   UNL     1      13.179  -6.659 -11.963  0.00  0.00    -0.266 OA
ATOM     14  O   UNL     1      13.314  -2.448 -13.168  0.00  0.00    -0.270 OA
ATOM     15  C   UNL     1      11.676  -1.571 -11.063  0.00  0.00    +0.015 A 
ATOM     16  C   UNL     1      12.376  -5.163 -10.260  0.00  0.00    +0.248 C 
ATOM     17  O   UNL     1      12.197  -5.989  -9.380  0.00  0.00    -0.282 OA
ATOM     18  C   UNL     1      10.847  -1.208  -9.998  0.00  0.00    +0.024 A 
ENDBRANCH   2   5
BRANCH   1  19
ATOM     19  C   UNL     1       8.270  -0.504  -6.432  0.00  0.00    +0.105 C 
BRANCH  19  20
ATOM     20  C   UNL     1       7.905   0.960  -6.195  0.00  0.00    +0.105 C 
BRANCH  20  23
ATOM     21  N   UNL     1       5.988   1.654  -4.883  0.00  0.00    -0.285 N 
ATOM     22  H   UNL     1       5.556   1.786  -5.788  0.00  0.00    +0.155 HD
ATOM     23  C   UNL     1       7.259   1.105  -4.845  0.00  0.00    +0.218 C 
ATOM     24  O   UNL     1       7.860   0.715  -3.846  0.00  0.00    -0.275 OA
BRANCH  21  27
ATOM     25  C   UNL     1       3.004   2.544  -2.845  0.00  0.00    +0.122 A 
ATOM     26  C   UNL     1       3.828   2.254  -3.943  0.00  0.00    +0.069 A 
ATOM     27  C   UNL     1       5.189   1.956  -3.756  0.00  0.00    +0.037 A 
ATOM     28  C   UNL     1       5.715   1.985  -2.463  0.00  0.00    +0.023 A 
ATOM     29  C   UNL     1       4.902   2.276  -1.373  0.00  0.00    +0.005 A 
ATOM     30  C   UNL     1       3.552   2.548  -1.560  0.00  0.00    +0.046 A 
BRANCH  25  31
ATOM     31  O   UNL     1       1.682   2.802  -3.125  0.00  0.00    -0.489 OA
BRANCH  31  32
ATOM     32  C   UNL     1       0.870   3.113  -1.986  0.00  0.00    +0.262 C 
BRANCH  32  34
ATOM     33  F   UNL     1      -1.281   3.691  -1.277  0.00  0.00    -0.246 F 
ATOM     34  C   UNL     1      -0.561   3.400  -2.395  0.00  0.00    +0.254 C 
ENDBRANCH  32  34
ENDBRANCH  31  32
ENDBRANCH  25  31
ENDBRANCH  21  27
ENDBRANCH  20  23
ENDBRANCH  19  20
ENDBRANCH   1  19
TORSDOF 8
