REMARK  Name = 
REMARK  2 active torsions:
REMARK  status: ('A' for Active; 'I' for Inactive)
REMARK    1  A    between atoms: O_1  and  C_2
REMARK    2  A    between atoms: C_4  and  O_5
REMARK                            x       y       z     vdW  Elec       q    Type
REMARK                         _______ _______ _______ _____ _____    ______ ____
ROOT
ATOM      1  C   UNL     1       0.048  -0.768   0.274  0.00  0.00    +0.139 A 
ATOM      2  C   UNL     1       0.841  -1.818   0.616  0.00  0.00    +0.087 A 
ATOM      3 CL   UNL     1       2.462  -1.525   1.181  0.00  0.00    -0.079 Cl
ATOM      4  C   UNL     1       0.320  -3.127   0.479  0.00  0.00    -0.001 A 
ATOM      5  C   UNL     1       1.251  -4.200   0.469  0.00  0.00    +0.112 C 
ATOM      6  C   UNL     1       2.565  -4.225  -0.149  0.00  0.00    +0.138 C 
ATOM      7  C   UNL     1       2.920  -5.603   0.010  0.00  0.00    +0.075 C 
ATOM      8  C   UNL     1       4.308  -6.053  -0.241  0.00  0.00    +0.012 C 
ATOM      9  C   UNL     1       3.851  -7.463  -0.303  0.00  0.00    +0.027 C 
ATOM     10  C   UNL     1       4.320  -8.807  -0.591  0.00  0.00    -0.031 C 
ATOM     11  C   UNL     1       3.145  -9.515  -0.523  0.00  0.00    -0.028 C 
ATOM     12  C   UNL     1       1.792  -9.129   0.384  0.00  0.00    +0.068 C 
ATOM     13  C   UNL     1       0.307  -8.120   0.177  0.00  0.00    +0.236 C 
ATOM     14  O   UNL     1       0.035  -6.448   0.371  0.00  0.00    -0.461 OA
ATOM     15  C   UNL     1      -1.206  -5.442   0.189  0.00  0.00    +0.343 C 
ATOM     16  O   UNL     1      -2.268  -5.948  -0.094  0.00  0.00    -0.245 OA
ATOM     17  O   UNL     1       3.042  -3.441  -0.938  0.00  0.00    -0.297 OA
ATOM     18  C   UNL     1      -0.994  -3.654   0.251  0.00  0.00    +0.105 A 
ATOM     19  C   UNL     1      -1.807  -2.506   0.025  0.00  0.00    +0.135 A 
ATOM     20  C   UNL     1      -1.280  -1.089  -0.005  0.00  0.00    +0.093 A 
ENDROOT
BRANCH   1  21
ATOM     21  O   UNL     1       0.614   0.471   0.254  0.00  0.00    -0.505 OA
ATOM     22  H   UNL     1       0.105   1.132  -0.233  0.00  0.00    +0.292 HD
ENDBRANCH   1  21
BRANCH  19  23
ATOM     23  O   UNL     1      -3.183  -2.563  -0.200  0.00  0.00    -0.506 OA
ATOM     24  H   UNL     1      -3.524  -1.628  -0.158  0.00  0.00    +0.292 HD
ENDBRANCH  19  23
TORSDOF 2
