REMARK  Name = 
REMARK  10 active torsions:
REMARK  status: ('A' for Active; 'I' for Inactive)
REMARK    1  A    between atoms: C_1  and  C_2
REMARK    2  A    between atoms: C_2  and  C_3
REMARK    3  A    between atoms: C_3  and  C_4
REMARK    4  A    between atoms: C_4  and  C_5
REMARK    5  A    between atoms: C_5  and  C_6
REMARK    6  A    between atoms: C_6  and  C_7
REMARK    7  A    between atoms: C_7  and  C_8
REMARK    8  A    between atoms: C_8  and  C_9
REMARK    9  A    between atoms: C_9  and  C_10
REMARK   10  A    between atoms: C_10  and  C_11
REMARK                            x       y       z     vdW  Elec       q    Type
REMARK                         _______ _______ _______ _____ _____    ______ ____
ROOT
ATOM      1  C   UNL     1       6.644  -2.211   1.923  0.00  0.00    +0.000 C 
ENDROOT
BRANCH   1   2
ATOM      2  C   UNL     1       5.116  -2.191   1.906  0.00  0.00    +0.000 C 
BRANCH   2   3
ATOM      3  C   UNL     1       4.591  -1.101   0.970  0.00  0.00    -0.000 C 
BRANCH   3   4
ATOM      4  C   UNL     1       3.062  -1.075   0.951  0.00  0.00    -0.000 C 
BRANCH   4   6
ATOM      5  C   UNL     1       1.015   0.037  -0.001  0.00  0.00    +0.004 C 
ATOM      6  C   UNL     1       2.535   0.013   0.016  0.00  0.00    -0.003 C 
ENDBRANCH   4   6
ENDBRANCH   3   4
ENDBRANCH   2   3
ENDBRANCH   1   2
BRANCH   1   7
ATOM      7  C   UNL     1       7.188  -3.297   2.854  0.00  0.00    +0.000 C 
BRANCH   7   8
ATOM      8  C   UNL     1       8.717  -3.292   2.851  0.00  0.00    +0.007 C 
BRANCH   8   9
ATOM      9  C   UNL     1       9.298  -4.364   3.769  0.00  0.00    +0.074 C 
BRANCH   9  10
ATOM     10  C   UNL     1      10.817  -4.355   3.762  0.00  0.00    +0.130 C 
ATOM     11  O   UNL     1      11.475  -3.566   3.083  0.00  0.00    -0.298 OA
ATOM     12  C   UNL     1      11.509  -5.370   4.632  0.00  0.00    +0.086 C 
ENDBRANCH   9  10
ENDBRANCH   8   9
ENDBRANCH   7   8
ENDBRANCH   1   7
TORSDOF 8
