REMARK  Name = 
REMARK  7 active torsions:
REMARK  status: ('A' for Active; 'I' for Inactive)
REMARK    1  A    between atoms: C_2  and  C_3
REMARK    2  A    between atoms: C_2  and  N_4
REMARK    3  A    between atoms: C_2  and  C_21
REMARK    4  A    between atoms: C_5  and  C_6
REMARK    5  A    between atoms: C_9  and  O_10
REMARK    6  A    between atoms: O_10  and  C_11
REMARK    7  A    between atoms: C_11  and  C_12
REMARK                            x       y       z     vdW  Elec       q    Type
REMARK                         _______ _______ _______ _____ _____    ______ ____
ROOT
ATOM      1  C   UNL     1       2.644   3.208   1.954  0.00  0.00    -0.007 A 
ATOM      2  C   UNL     1       3.531   2.892   2.987  0.00  0.00    +0.013 A 
ATOM      3  C   UNL     1       3.888   3.877   3.913  0.00  0.00    +0.046 A 
ATOM      4  C   UNL     1       3.369   5.169   3.804  0.00  0.00    +0.121 A 
ATOM      5  C   UNL     1       2.519   5.485   2.738  0.00  0.00    +0.046 A 
ATOM      6  C   UNL     1       2.139   4.501   1.826  0.00  0.00    +0.013 A 
ENDROOT
BRANCH   1   8
ATOM      7  N   UNL     1       2.912   1.143   0.727  0.00  0.00    -0.279 NA
ATOM      8  C   UNL     1       2.214   2.200   0.973  0.00  0.00    +0.113 C 
BRANCH   7   9
ATOM      9  C   UNL     1       2.301   0.269  -0.308  0.00  0.00    +0.187 C 
ATOM     10  C   UNL     1       3.419  -0.336  -1.145  0.00  0.00    +0.042 C 
BRANCH   9  11
ATOM     11  C   UNL     1       1.519  -0.838   0.406  0.00  0.00    +0.235 C 
ATOM     12  O   UNL     1       0.457  -1.295  -0.001  0.00  0.00    -0.274 OA
ATOM     13  N   UNL     1       2.122  -1.322   1.534  0.00  0.00    -0.328 N 
ATOM     14  H   UNL     1       1.609  -1.972   2.110  0.00  0.00    +0.145 HD
ATOM     15  H   UNL     1       2.857  -0.755   1.945  0.00  0.00    +0.145 HD
ENDBRANCH   9  11
ENDBRANCH   7   9
ENDBRANCH   1   8
BRANCH   4  16
ATOM     16  O   UNL     1       3.751   6.044   4.784  0.00  0.00    -0.487 OA
BRANCH  16  17
ATOM     17  C   UNL     1       2.915   7.194   4.934  0.00  0.00    +0.264 C 
BRANCH  17  18
ATOM     18  C   UNL     1       3.145   7.813   6.287  0.00  0.00    -0.008 A 
ATOM     19  C   UNL     1       4.380   8.393   6.612  0.00  0.00    +0.007 A 
ATOM     20  C   UNL     1       4.576   8.993   7.859  0.00  0.00    +0.003 A 
ATOM     21  C   UNL     1       3.540   9.016   8.790  0.00  0.00    +0.038 A 
ATOM     22  C   UNL     1       2.320   8.434   8.471  0.00  0.00    +0.124 A 
ATOM     23  F   UNL     1       1.322   8.458   9.365  0.00  0.00    -0.205 F 
ATOM     24  C   UNL     1       2.113   7.834   7.236  0.00  0.00    +0.045 A 
ENDBRANCH  17  18
ENDBRANCH  16  17
ENDBRANCH   4  16
TORSDOF 6
