REMARK  Name = 
REMARK  8 active torsions:
REMARK  status: ('A' for Active; 'I' for Inactive)
REMARK    1  A    between atoms: C_1  and  C_2
REMARK    2  A    between atoms: C_2  and  C_3
REMARK    3  A    between atoms: C_2  and  O_4
REMARK    4  A    between atoms: C_2  and  C_23
REMARK    5  A    between atoms: O_4  and  C_5
REMARK    6  A    between atoms: C_8  and  N_9
REMARK    7  A    between atoms: N_12  and  C_13
REMARK    8  A    between atoms: C_23  and  O_24
REMARK                            x       y       z     vdW  Elec       q    Type
REMARK                         _______ _______ _______ _____ _____    ______ ____
ROOT
ATOM      1  C   UNL     1       2.787   1.126   2.329  0.00  0.00    +0.122 A 
ATOM      2  C   UNL     1       3.501   2.320   2.282  0.00  0.00    +0.047 A 
ATOM      3  C   UNL     1       3.148   3.397   3.103  0.00  0.00    +0.027 A 
ATOM      4  C   UNL     1       2.126   3.264   4.044  0.00  0.00    +0.035 A 
ATOM      5  C   UNL     1       1.483   2.030   4.157  0.00  0.00    +0.027 A 
ATOM      6  C   UNL     1       1.810   0.968   3.307  0.00  0.00    +0.047 A 
ENDROOT
BRANCH   4   7
ATOM      7  N   UNL     1       1.812   4.394   4.831  0.00  0.00    -0.269 N 
ATOM      8  H   UNL     1       2.233   5.271   4.563  0.00  0.00    +0.156 HD
ATOM      9  C   UNL     1       1.001   4.392   5.948  0.00  0.00    +0.308 C 
ATOM     10  N   UNL     1       0.941   5.643   6.553  0.00  0.00    -0.269 N 
ATOM     11  H   UNL     1       1.770   6.209   6.442  0.00  0.00    +0.156 HD
ATOM     12  O   UNL     1       0.443   3.403   6.407  0.00  0.00    -0.252 OA
BRANCH  10  13
ATOM     13  C   UNL     1       0.235   5.791   7.771  0.00  0.00    +0.038 A 
ATOM     14  C   UNL     1      -1.036   5.229   7.949  0.00  0.00    +0.043 A 
ATOM     15  C   UNL     1      -1.647   5.269   9.200  0.00  0.00    +0.044 A 
ATOM     16 CL   UNL     1      -3.197   4.554   9.416  0.00  0.00    -0.083 Cl
ATOM     17  C   UNL     1      -1.003   5.865  10.279  0.00  0.00    +0.040 A 
ATOM     18  C   UNL     1       0.244   6.455  10.086  0.00  0.00    +0.044 A 
ATOM     19 CL   UNL     1       1.070   7.153  11.425  0.00  0.00    -0.083 Cl
ATOM     20  C   UNL     1       0.855   6.450   8.831  0.00  0.00    +0.043 A 
ENDBRANCH  10  13
ENDBRANCH   4   7
BRANCH   1  21
ATOM     21  O   UNL     1       2.963   0.065   1.488  0.00  0.00    -0.475 OA
BRANCH  21  23
ATOM     22  C   UNL     1       2.496   1.506  -0.526  0.00  0.00    +0.067 C 
ATOM     23  C   UNL     1       3.221   0.294   0.080  0.00  0.00    +0.200 C 
ATOM     24  C   UNL     1       4.730   0.287  -0.178  0.00  0.00    +0.067 C 
BRANCH  23  25
ATOM     25  C   UNL     1       2.660  -0.941  -0.663  0.00  0.00    +0.348 C 
ATOM     26  O   UNL     1       2.676  -1.084  -1.880  0.00  0.00    -0.247 OA
BRANCH  25  27
ATOM     27  O   UNL     1       2.144  -1.884   0.164  0.00  0.00    -0.478 OA
ATOM     28  H   UNL     1       2.229  -1.583   1.091  0.00  0.00    +0.295 HD
ENDBRANCH  25  27
ENDBRANCH  23  25
ENDBRANCH  21  23
ENDBRANCH   1  21
TORSDOF 6
