REMARK  Name = 
REMARK  12 active torsions:
REMARK  status: ('A' for Active; 'I' for Inactive)
REMARK    1  A    between atoms: C_6  and  C_15
REMARK    2  A    between atoms: C_7  and  C_8
REMARK    3  A    between atoms: C_11  and  O_12
REMARK    4  A    between atoms: C_18  and  O_19
REMARK    5  A    between atoms: C_22  and  C_24
REMARK    6  A    between atoms: C_24  and  O_26
REMARK    7  A    between atoms: O_26  and  C_27
REMARK    8  A    between atoms: C_27  and  C_28
REMARK    9  A    between atoms: C_29  and  C_31
REMARK   10  A    between atoms: C_31  and  O_33
REMARK   11  A    between atoms: O_33  and  C_34
REMARK   12  A    between atoms: C_34  and  C_35
REMARK                            x       y       z     vdW  Elec       q    Type
REMARK                         _______ _______ _______ _____ _____    ______ ____
ROOT
ATOM      1  C   UNL     1       2.095  -0.198   0.285  0.00  0.00    +0.165 C 
ATOM      2  C   UNL     1       2.617   1.100   0.909  0.00  0.00    +0.147 C 
ATOM      3  C   UNL     1       4.108   1.062   0.507  0.00  0.00    +0.147 C 
ATOM      4  C   UNL     1       4.144  -0.158  -0.437  0.00  0.00    +0.165 C 
ATOM      5  C   UNL     1       4.013  -1.463   0.313  0.00  0.00    -0.005 C 
ATOM      6  C   UNL     1       2.761  -1.444   0.821  0.00  0.00    -0.005 C 
ATOM      7  O   UNL     1       2.796  -0.090  -0.995  0.00  0.00    -0.362 OA
ENDROOT
BRANCH   5   8
ATOM      8  C   UNL     1       5.142  -2.393   0.420  0.00  0.00    -0.019 A 
ATOM      9  C   UNL     1       5.389  -3.117   1.592  0.00  0.00    +0.012 A 
ATOM     10  C   UNL     1       6.570  -3.850   1.751  0.00  0.00    +0.046 A 
ATOM     11  C   UNL     1       7.505  -3.882   0.727  0.00  0.00    +0.117 A 
ATOM     12  C   UNL     1       7.262  -3.228  -0.471  0.00  0.00    +0.046 A 
ATOM     13  C   UNL     1       6.082  -2.492  -0.621  0.00  0.00    +0.012 A 
BRANCH  11  14
ATOM     14  O   UNL     1       8.664  -4.566   0.942  0.00  0.00    -0.507 OA
ATOM     15  H   UNL     1       9.226  -4.480   0.155  0.00  0.00    +0.292 HD
ENDBRANCH  11  14
ENDBRANCH   5   8
BRANCH   6  16
ATOM     16  C   UNL     1       2.047  -2.368   1.688  0.00  0.00    -0.019 A 
ATOM     17  C   UNL     1       1.245  -3.380   1.154  0.00  0.00    +0.012 A 
ATOM     18  C   UNL     1       0.537  -4.238   2.002  0.00  0.00    +0.046 A 
ATOM     19  C   UNL     1       0.634  -4.086   3.381  0.00  0.00    +0.117 A 
ATOM     20  C   UNL     1       1.427  -3.086   3.930  0.00  0.00    +0.046 A 
ATOM     21  C   UNL     1       2.133  -2.230   3.081  0.00  0.00    +0.012 A 
BRANCH  19  22
ATOM     22  O   UNL     1      -0.072  -4.944   4.170  0.00  0.00    -0.507 OA
ATOM     23  H   UNL     1       0.096  -4.718   5.100  0.00  0.00    +0.292 HD
ENDBRANCH  19  22
ENDBRANCH   6  16
BRANCH   2  24
ATOM     24  C   UNL     1       2.189   1.295   2.330  0.00  0.00    +0.314 C 
ATOM     25  O   UNL     1       1.179   0.804   2.812  0.00  0.00    -0.250 OA
BRANCH  24  26
ATOM     26  O   UNL     1       2.940   2.267   2.921  0.00  0.00    -0.465 OA
BRANCH  26  27
ATOM     27  C   UNL     1       2.331   2.905   4.056  0.00  0.00    +0.229 C 
ATOM     28  C   UNL     1       1.644   4.160   3.553  0.00  0.00    +0.048 C 
ENDBRANCH  26  27
ENDBRANCH  24  26
ENDBRANCH   2  24
BRANCH   3  29
ATOM     29  C   UNL     1       5.160   1.037   1.592  0.00  0.00    +0.314 C 
ATOM     30  O   UNL     1       6.120   1.798   1.599  0.00  0.00    -0.250 OA
BRANCH  29  31
ATOM     31  O   UNL     1       4.924   0.083   2.527  0.00  0.00    -0.465 OA
BRANCH  31  32
ATOM     32  C   UNL     1       5.929  -0.088   3.539  0.00  0.00    +0.229 C 
ATOM     33  C   UNL     1       5.591   0.781   4.729  0.00  0.00    +0.048 C 
ENDBRANCH  31  32
ENDBRANCH  29  31
ENDBRANCH   3  29
TORSDOF 10
