REMARK  Name = 
REMARK  8 active torsions:
REMARK  status: ('A' for Active; 'I' for Inactive)
REMARK    1  A    between atoms: O_1  and  C_2
REMARK    2  A    between atoms: C_2  and  C_3
REMARK    3  A    between atoms: C_3  and  N_4
REMARK    4  A    between atoms: N_4  and  C_5
REMARK    5  A    between atoms: C_5  and  C_6
REMARK    6  A    between atoms: C_6  and  O_7
REMARK    7  A    between atoms: C_10  and  C_19
REMARK    8  A    between atoms: C_11  and  C_13
REMARK                            x       y       z     vdW  Elec       q    Type
REMARK                         _______ _______ _______ _____ _____    ______ ____
ROOT
ATOM      1  N   UNL     1       4.407  -0.068  -1.985  0.00  0.00    -0.281 N 
ATOM      2  C   UNL     1       5.138  -0.542  -3.019  0.00  0.00    +0.291 A 
ATOM      3  O   UNL     1       4.965  -1.852  -3.351  0.00  0.00    -0.424 OA
ATOM      4  C   UNL     1       5.754  -2.060  -4.447  0.00  0.00    +0.165 A 
ATOM      5  C   UNL     1       6.402  -0.864  -4.709  0.00  0.00    +0.119 A 
ATOM      6  N   UNL     1       6.013   0.084  -3.777  0.00  0.00    -0.195 NA
ENDROOT
BRANCH   4   7
ATOM      7  C   UNL     1       5.631  -3.387  -5.029  0.00  0.00    +0.020 A 
ATOM      8  C   UNL     1       5.559  -3.564  -6.416  0.00  0.00    +0.011 A 
ATOM      9  C   UNL     1       5.431  -4.842  -6.966  0.00  0.00    +0.001 A 
ATOM     10  C   UNL     1       5.355  -5.955  -6.134  0.00  0.00    +0.000 A 
ATOM     11  C   UNL     1       5.408  -5.793  -4.752  0.00  0.00    +0.001 A 
ATOM     12  C   UNL     1       5.546  -4.518  -4.201  0.00  0.00    +0.011 A 
ENDBRANCH   4   7
BRANCH   5  13
ATOM     13  C   UNL     1       7.323  -0.564  -5.795  0.00  0.00    +0.004 A 
ATOM     14  C   UNL     1       7.355   0.732  -6.329  0.00  0.00    +0.010 A 
ATOM     15  C   UNL     1       8.211   1.048  -7.389  0.00  0.00    +0.001 A 
ATOM     16  C   UNL     1       9.044   0.070  -7.929  0.00  0.00    +0.000 A 
ATOM     17  C   UNL     1       9.030  -1.218  -7.402  0.00  0.00    +0.001 A 
ATOM     18  C   UNL     1       8.186  -1.529  -6.331  0.00  0.00    +0.010 A 
ENDBRANCH   5  13
BRANCH   1  19
ATOM     19  C   UNL     1       4.685   1.263  -1.447  0.00  0.00    +0.137 C 
BRANCH  19  20
ATOM     20  C   UNL     1       4.330   2.398  -2.419  0.00  0.00    +0.175 C 
BRANCH  20  21
ATOM     21  O   UNL     1       2.928   2.421  -2.697  0.00  0.00    -0.393 OA
ATOM     22  H   UNL     1       2.783   3.146  -3.326  0.00  0.00    +0.209 HD
ENDBRANCH  20  21
ENDBRANCH  19  20
ENDBRANCH   1  19
BRANCH   1  23
ATOM     23  C   UNL     1       3.311  -0.858  -1.415  0.00  0.00    +0.137 C 
BRANCH  23  24
ATOM     24  C   UNL     1       1.927  -0.405  -1.905  0.00  0.00    +0.175 C 
BRANCH  24  25
ATOM     25  O   UNL     1       1.849  -0.323  -3.325  0.00  0.00    -0.393 OA
ATOM     26  H   UNL     1       2.409   0.446  -3.552  0.00  0.00    +0.209 HD
ENDBRANCH  24  25
ENDBRANCH  23  24
ENDBRANCH   1  23
TORSDOF 8
