REMARK  Name = 
REMARK  9 active torsions:
REMARK  status: ('A' for Active; 'I' for Inactive)
REMARK    1  A    between atoms: O_1  and  C_2
REMARK    2  A    between atoms: C_2  and  C_3
REMARK    3  A    between atoms: C_3  and  N_4
REMARK    4  A    between atoms: N_4  and  C_5
REMARK    5  A    between atoms: N_4  and  S_10
REMARK    6  A    between atoms: C_5  and  C_6
REMARK    7  A    between atoms: N_8  and  O_9
REMARK    8  A    between atoms: S_10  and  C_13
REMARK    9  A    between atoms: C_16  and  C_19
REMARK                            x       y       z     vdW  Elec       q    Type
REMARK                         _______ _______ _______ _____ _____    ______ ____
ROOT
ATOM      1  S   UNL     1       4.988  -1.387   2.883  0.00  0.00    +0.061 S 
ATOM      2  O   UNL     1       4.602  -2.684   3.396  0.00  0.00    -0.153 OA
ATOM      3  O   UNL     1       4.701  -0.159   3.593  0.00  0.00    -0.153 OA
ENDROOT
BRANCH   1   4
ATOM      4  C   UNL     1       6.763  -1.411   2.662  0.00  0.00    +0.106 A 
ATOM      5  C   UNL     1       7.458  -2.615   2.563  0.00  0.00    +0.029 A 
ATOM      6  C   UNL     1       8.854  -2.600   2.432  0.00  0.00    +0.010 A 
ATOM      7  C   UNL     1       9.589  -1.395   2.391  0.00  0.00    -0.018 A 
ATOM      8  C   UNL     1       8.858  -0.203   2.568  0.00  0.00    +0.010 A 
ATOM      9  C   UNL     1       7.465  -0.207   2.706  0.00  0.00    +0.029 A 
BRANCH   7  10
ATOM     10  C   UNL     1      11.050  -1.364   2.109  0.00  0.00    -0.018 A 
ATOM     11  C   UNL     1      11.645  -2.307   1.251  0.00  0.00    +0.008 A 
ATOM     12  C   UNL     1      12.995  -2.227   0.890  0.00  0.00    +0.001 A 
ATOM     13  C   UNL     1      13.788  -1.196   1.379  0.00  0.00    +0.000 A 
ATOM     14  C   UNL     1      13.237  -0.262   2.249  0.00  0.00    +0.001 A 
ATOM     15  C   UNL     1      11.890  -0.353   2.619  0.00  0.00    +0.008 A 
ENDBRANCH   7  10
ENDBRANCH   1   4
BRANCH   1  16
ATOM     16  N   UNL     1       4.411  -1.244   1.260  0.00  0.00    -0.166 NA
BRANCH  16  17
ATOM     17  C   UNL     1       4.213  -2.565   0.571  0.00  0.00    +0.137 C 
BRANCH  17  18
ATOM     18  C   UNL     1       3.921  -2.453  -0.933  0.00  0.00    +0.173 C 
BRANCH  18  19
ATOM     19  O   UNL     1       2.600  -1.957  -1.188  0.00  0.00    -0.394 OA
ATOM     20  H   UNL     1       2.504  -1.941  -2.160  0.00  0.00    +0.209 HD
ENDBRANCH  18  19
ENDBRANCH  17  18
ENDBRANCH  16  17
BRANCH  16  21
ATOM     21  C   UNL     1       3.265  -0.297   1.135  0.00  0.00    +0.207 C 
BRANCH  21  22
ATOM     22  C   UNL     1       1.951  -0.752   1.752  0.00  0.00    +0.251 C 
ATOM     23  N   UNL     1       0.919  -0.899   0.849  0.00  0.00    -0.196 N 
ATOM     24  H   UNL     1       1.149  -1.254  -0.081  0.00  0.00    +0.182 HD
ATOM     25  O   UNL     1       1.788  -0.968   2.948  0.00  0.00    -0.272 OA
BRANCH  23  26
ATOM     26  O   UNL     1      -0.284  -1.396   1.417  0.00  0.00    -0.295 OA
ATOM     27  H   UNL     1      -0.068  -1.426   2.376  0.00  0.00    +0.241 HD
ENDBRANCH  23  26
ENDBRANCH  21  22
ENDBRANCH  16  21
ENDBRANCH   1  16
TORSDOF 9
