REMARK  Name = 
REMARK  5 active torsions:
REMARK  status: ('A' for Active; 'I' for Inactive)
REMARK    1  A    between atoms: C_1  and  C_2
REMARK    2  A    between atoms: C_2  and  C_3
REMARK    3  A    between atoms: C_2  and  C_6
REMARK    4  A    between atoms: C_3  and  O_4
REMARK    5  A    between atoms: C_9  and  N_12
REMARK                            x       y       z     vdW  Elec       q    Type
REMARK                         _______ _______ _______ _____ _____    ______ ____
ROOT
ATOM      1  C   UNL     1       2.946  -1.459  -0.680  0.00  0.00    -0.034 A 
ATOM      2  C   UNL     1       2.652  -2.722  -0.148  0.00  0.00    +0.006 A 
ATOM      3  C   UNL     1       2.905  -3.886  -0.884  0.00  0.00    +0.024 A 
ATOM      4  C   UNL     1       3.422  -3.831  -2.186  0.00  0.00    +0.037 A 
ATOM      5  C   UNL     1       3.710  -2.566  -2.710  0.00  0.00    +0.024 A 
ATOM      6  C   UNL     1       3.484  -1.398  -1.971  0.00  0.00    +0.006 A 
ENDROOT
BRANCH   4   7
ATOM      7  N   UNL     1       3.633  -5.017  -2.941  0.00  0.00    -0.263 N 
ATOM      8  C   UNL     1       4.052  -5.083  -4.274  0.00  0.00    +0.251 C 
ATOM      9  O   UNL     1       4.297  -4.208  -5.084  0.00  0.00    -0.270 OA
ATOM     10  C   UNL     1       4.177  -6.503  -4.616  0.00  0.00    +0.042 A 
ATOM     11  C   UNL     1       3.821  -7.259  -3.506  0.00  0.00    -0.018 A 
ATOM     12  C   UNL     1       3.876  -8.641  -3.561  0.00  0.00    +0.006 A 
ATOM     13  C   UNL     1       4.302  -9.239  -4.754  0.00  0.00    +0.000 A 
ATOM     14  C   UNL     1       4.658  -8.459  -5.870  0.00  0.00    +0.001 A 
ATOM     15  C   UNL     1       4.595  -7.068  -5.807  0.00  0.00    +0.013 A 
ATOM     16  C   UNL     1       3.426  -6.352  -2.388  0.00  0.00    +0.149 C 
ENDBRANCH   4   7
BRANCH   1  18
ATOM     17  C   UNL     1       1.135   0.181  -0.270  0.00  0.00    +0.024 C 
ATOM     18  C   UNL     1       2.595  -0.164   0.044  0.00  0.00    +0.124 C 
BRANCH  18  19
ATOM     19  C   UNL     1       2.828  -0.145   1.553  0.00  0.00    +0.312 C 
ATOM     20  O   UNL     1       2.171   0.533   2.333  0.00  0.00    -0.250 OA
BRANCH  19  21
ATOM     21  O   UNL     1       3.879  -0.876   1.990  0.00  0.00    -0.480 OA
ATOM     22  H   UNL     1       4.360  -1.348   1.283  0.00  0.00    +0.295 HD
ENDBRANCH  19  21
ENDBRANCH  18  19
ENDBRANCH   1  18
TORSDOF 4
