REMARK  Name = 
REMARK  6 active torsions:
REMARK  status: ('A' for Active; 'I' for Inactive)
REMARK    1  A    between atoms: C_2  and  C_5
REMARK    2  A    between atoms: C_5  and  N_6
REMARK    3  A    between atoms: N_6  and  C_7
REMARK    4  A    between atoms: N_6  and  C_12
REMARK    5  A    between atoms: C_7  and  C_8
REMARK    6  A    between atoms: C_20  and  C_21
REMARK                            x       y       z     vdW  Elec       q    Type
REMARK                         _______ _______ _______ _____ _____    ______ ____
ROOT
ATOM      1  C   UNL     1       4.805   2.093   1.639  0.00  0.00    +0.031 A 
ATOM      2  C   UNL     1       4.595   3.471   1.525  0.00  0.00    +0.025 A 
ATOM      3  C   UNL     1       5.141   4.360   2.454  0.00  0.00    +0.028 A 
ATOM      4  C   UNL     1       5.914   3.876   3.509  0.00  0.00    +0.050 A 
ATOM      5  N   UNL     1       6.400   4.786   4.450  0.00  0.00    -0.322 N 
ATOM      6  H   UNL     1       6.184   5.771   4.375  0.00  0.00    +0.169 HD
ATOM      7  C   UNL     1       7.144   4.425   5.532  0.00  0.00    +0.250 A 
ATOM      8  C   UNL     1       7.458   2.992   5.663  0.00  0.00    +0.083 A 
ATOM      9  C   UNL     1       7.026   2.060   4.789  0.00  0.00    +0.069 A 
ATOM     10  O   UNL     1       7.544   5.236   6.360  0.00  0.00    -0.268 OA
ATOM     11  C   UNL     1       6.192   2.504   3.645  0.00  0.00    +0.012 A 
ATOM     12  C   UNL     1       5.631   1.644   2.689  0.00  0.00    +0.033 A 
ENDROOT
BRANCH   9  13
ATOM     13  C   UNL     1       7.431   0.635   5.048  0.00  0.00    +0.418 C 
ATOM     14  F   UNL     1       6.995   0.221   6.267  0.00  0.00    -0.166 F 
ATOM     15  F   UNL     1       8.786   0.512   5.068  0.00  0.00    -0.166 F 
ATOM     16  F   UNL     1       6.984  -0.283   4.158  0.00  0.00    -0.166 F 
ENDBRANCH   9  13
BRANCH   1  17
ATOM     17  N   UNL     1       4.134   1.209   0.779  0.00  0.00    -0.313 N 
BRANCH  17  18
ATOM     18  C   UNL     1       3.862  -0.169   1.304  0.00  0.00    +0.218 C 
BRANCH  18  20
ATOM     19  F   UNL     1       2.066  -0.320  -0.313  0.00  0.00    -0.169 F 
ATOM     20  C   UNL     1       2.644  -0.928   0.743  0.00  0.00    +0.405 C 
ATOM     21  F   UNL     1       3.015  -2.167   0.337  0.00  0.00    -0.169 F 
ATOM     22  F   UNL     1       1.692  -1.088   1.692  0.00  0.00    -0.169 F 
ENDBRANCH  18  20
ENDBRANCH  17  18
BRANCH  17  23
ATOM     23  C   UNL     1       4.447   1.357  -0.680  0.00  0.00    +0.218 C 
BRANCH  23  24
ATOM     24  C   UNL     1       5.769   0.756  -1.201  0.00  0.00    +0.405 C 
ATOM     25  F   UNL     1       6.674   1.719  -1.485  0.00  0.00    -0.169 F 
ATOM     26  F   UNL     1       5.546   0.065  -2.347  0.00  0.00    -0.169 F 
ATOM     27  F   UNL     1       6.341  -0.103  -0.330  0.00  0.00    -0.169 F 
ENDBRANCH  23  24
ENDBRANCH  17  23
ENDBRANCH   1  17
TORSDOF 6
