REMARK  Name = 
REMARK  5 active torsions:
REMARK  status: ('A' for Active; 'I' for Inactive)
REMARK    1  A    between atoms: C_1  and  C_2
REMARK    2  A    between atoms: C_5  and  C_7
REMARK    3  A    between atoms: N_11  and  S_12
REMARK    4  A    between atoms: S_12  and  C_15
REMARK    5  A    between atoms: C_18  and  C_19
REMARK                            x       y       z     vdW  Elec       q    Type
REMARK                         _______ _______ _______ _____ _____    ______ ____
ROOT
ATOM      1  C   UNL     1       5.570  -1.718  -0.039  0.00  0.00    +0.066 C 
ATOM      2  C   UNL     1       5.265  -3.019   0.049  0.00  0.00    +0.082 C 
ATOM      3  C   UNL     1       6.280  -4.097  -0.179  0.00  0.00    +0.276 C 
ATOM      4  O   UNL     1       7.482  -3.884  -0.219  0.00  0.00    -0.267 OA
ATOM      5  N   UNL     1       5.681  -5.329  -0.356  0.00  0.00    -0.153 NA
ATOM      6  C   UNL     1       4.418  -5.264  -0.140  0.00  0.00    +0.171 C 
ATOM      7  N   UNL     1       3.495  -6.284  -0.252  0.00  0.00    -0.196 N 
ATOM      8  H   UNL     1       2.538  -6.126   0.048  0.00  0.00    +0.176 HD
ATOM      9  S   UNL     1       3.738  -3.756   0.348  0.00  0.00    -0.050 S 
ENDROOT
BRANCH   1  13
ATOM     10  C   UNL     1       1.225   0.237  -0.894  0.00  0.00    +0.086 C 
ATOM     11  C   UNL     1       2.619   0.280  -0.407  0.00  0.00    +0.103 A 
ATOM     12  O   UNL     1       3.312  -0.876  -0.526  0.00  0.00    -0.461 OA
ATOM     13  C   UNL     1       4.583  -0.695  -0.031  0.00  0.00    +0.129 A 
ATOM     14  C   UNL     1       4.676   0.630   0.380  0.00  0.00    +0.049 A 
ATOM     15  C   UNL     1       3.418   1.246   0.154  0.00  0.00    +0.045 A 
ENDBRANCH   1  13
BRANCH   7  16
ATOM     16  S   UNL     1       3.628  -7.562  -1.304  0.00  0.00    +0.074 S 
ATOM     17  O   UNL     1       4.113  -7.050  -2.567  0.00  0.00    -0.150 OA
ATOM     18  O   UNL     1       2.371  -8.274  -1.217  0.00  0.00    -0.150 OA
BRANCH  16  19
ATOM     19  C   UNL     1       4.866  -8.565  -0.549  0.00  0.00    +0.109 A 
ATOM     20  C   UNL     1       6.071  -8.802  -1.211  0.00  0.00    +0.029 A 
ATOM     21  C   UNL     1       7.075  -9.517  -0.561  0.00  0.00    +0.005 A 
ATOM     22  C   UNL     1       6.881  -9.985   0.747  0.00  0.00    -0.050 A 
ATOM     23  C   UNL     1       8.000 -10.683   1.461  0.00  0.00    +0.044 C 
ATOM     24  C   UNL     1       5.647  -9.780   1.378  0.00  0.00    +0.005 A 
ATOM     25  C   UNL     1       4.636  -9.073   0.732  0.00  0.00    +0.029 A 
ENDBRANCH  16  19
ENDBRANCH   7  16
TORSDOF 3
