REMARK  Name = 
REMARK  3 active torsions:
REMARK  status: ('A' for Active; 'I' for Inactive)
REMARK    1  A    between atoms: N_1  and  S_2
REMARK    2  A    between atoms: S_2  and  C_5
REMARK    3  A    between atoms: C_11  and  O_12
REMARK                            x       y       z     vdW  Elec       q    Type
REMARK                         _______ _______ _______ _____ _____    ______ ____
ROOT
ATOM      1  C   UNL     1       3.205  -0.967  -1.424  0.00  0.00    +0.233 A 
ATOM      2  S   UNL     1       3.934  -0.073  -2.678  0.00  0.00    -0.047 S 
ATOM      3  C   UNL     1       4.063  -1.517  -3.612  0.00  0.00    +0.044 A 
ATOM      4  C   UNL     1       4.576  -1.686  -4.910  0.00  0.00    +0.062 A 
ATOM      5  C   UNL     1       4.549  -2.972  -5.450  0.00  0.00    +0.118 A 
ATOM      6  C   UNL     1       4.049  -4.053  -4.739  0.00  0.00    +0.047 A 
ATOM      7  C   UNL     1       3.552  -3.874  -3.445  0.00  0.00    +0.032 A 
ATOM      8  C   UNL     1       3.553  -2.587  -2.869  0.00  0.00    +0.081 A 
ATOM      9  N   UNL     1       3.081  -2.267  -1.608  0.00  0.00    -0.221 NA
ENDROOT
BRANCH   1  10
ATOM     10  S   UNL     1       2.706  -0.080   0.029  0.00  0.00    +0.080 S 
ATOM     11  O   UNL     1       3.923   0.268   0.729  0.00  0.00    -0.151 OA
ATOM     12  O   UNL     1       1.741   0.914  -0.385  0.00  0.00    -0.151 OA
BRANCH  10  13
ATOM     13  N   UNL     1       1.890  -1.149   1.053  0.00  0.00    -0.202 NA
ATOM     14  H   UNL     1       2.534  -1.858   1.405  0.00  0.00    +0.144 HD
ATOM     15  H   UNL     1       1.430  -0.628   1.798  0.00  0.00    +0.144 HD
ENDBRANCH  10  13
ENDBRANCH   1  10
BRANCH   5  16
ATOM     16  O   UNL     1       5.014  -3.213  -6.711  0.00  0.00    -0.507 OA
ATOM     17  H   UNL     1       5.310  -2.376  -7.106  0.00  0.00    +0.292 HD
ENDBRANCH   5  16
TORSDOF 3
