REMARK  Name = 
REMARK  3 active torsions:
REMARK  status: ('A' for Active; 'I' for Inactive)
REMARK    1  A    between atoms: C_1  and  C_2
REMARK    2  A    between atoms: N_11  and  C_12
REMARK    3  A    between atoms: C_12  and  C_13
REMARK                            x       y       z     vdW  Elec       q    Type
REMARK                         _______ _______ _______ _____ _____    ______ ____
ROOT
ATOM      1  C   UNL     1       0.971  -0.117  -0.061  0.00  0.00    +0.065 C 
ATOM      2  C   UNL     1       2.450  -0.058  -0.047  0.00  0.00    +0.040 A 
ATOM      3  N   UNL     1       3.268  -1.165  -0.045  0.00  0.00    -0.300 N 
ATOM      4  C   UNL     1       3.020  -2.523  -0.065  0.00  0.00    +0.113 A 
ATOM      5  C   UNL     1       4.075  -3.357  -0.074  0.00  0.00    +0.131 A 
ATOM      6  N   UNL     1       5.397  -2.943  -0.064  0.00  0.00    -0.235 NA
ATOM      7  C   UNL     1       5.661  -1.654  -0.028  0.00  0.00    +0.162 A 
ATOM      8  N   UNL     1       6.959  -1.192   0.009  0.00  0.00    -0.322 N 
ATOM      9  H   UNL     1       7.022  -0.185  -0.115  0.00  0.00    +0.148 HD
ATOM     10  C   UNL     1       4.557  -0.705  -0.024  0.00  0.00    +0.178 A 
ATOM     11  N   UNL     1       4.631   0.610  -0.023  0.00  0.00    -0.233 NA
ATOM     12  C   UNL     1       3.320   1.018  -0.039  0.00  0.00    +0.134 A 
ENDROOT
BRANCH   8  13
ATOM     13  C   UNL     1       8.086  -1.942  -0.488  0.00  0.00    +0.138 C 
BRANCH  13  14
ATOM     14  C   UNL     1       8.329  -1.621  -1.941  0.00  0.00    -0.028 A 
ATOM     15  C   UNL     1       7.688  -2.352  -2.946  0.00  0.00    +0.025 A 
ATOM     16  C   UNL     1       7.938  -2.024  -4.269  0.00  0.00    +0.111 A 
ATOM     17  N   UNL     1       8.765  -1.029  -4.654  0.00  0.00    -0.263 NA
ATOM     18  C   UNL     1       9.359  -0.322  -3.669  0.00  0.00    +0.111 A 
ATOM     19  C   UNL     1       9.174  -0.573  -2.318  0.00  0.00    +0.025 A 
ENDBRANCH  13  14
ENDBRANCH   8  13
TORSDOF 2
