REMARK  Name = 
REMARK  14 active torsions:
REMARK  status: ('A' for Active; 'I' for Inactive)
REMARK    1  A    between atoms: C_2  and  C_3
REMARK    2  A    between atoms: C_2  and  N_8
REMARK    3  A    between atoms: C_2  and  C_27
REMARK    4  A    between atoms: C_3  and  C_4
REMARK    5  A    between atoms: C_4  and  C_5
REMARK    6  A    between atoms: C_5  and  O_6
REMARK    7  A    between atoms: N_8  and  S_9
REMARK    8  A    between atoms: S_9  and  C_12
REMARK    9  A    between atoms: C_19  and  O_20
REMARK   10  A    between atoms: O_20  and  C_21
REMARK   11  A    between atoms: C_21  and  C_22
REMARK   12  A    between atoms: C_22  and  C_23
REMARK   13  A    between atoms: C_23  and  C_24
REMARK   14  A    between atoms: C_27  and  O_28
REMARK                            x       y       z     vdW  Elec       q    Type
REMARK                         _______ _______ _______ _____ _____    ______ ____
ROOT
ATOM      1  S   UNL     1       2.052   1.146  -2.395  0.00  0.00    +0.059 S 
ATOM      2  O   UNL     1       0.616   1.238  -2.313  0.00  0.00    -0.153 OA
ATOM      3  O   UNL     1       2.706   0.054  -3.079  0.00  0.00    -0.153 OA
ENDROOT
BRANCH   1   4
ATOM      4  C   UNL     1       2.661   2.672  -3.053  0.00  0.00    +0.106 A 
ATOM      5  C   UNL     1       2.238   3.889  -2.514  0.00  0.00    +0.029 A 
ATOM      6  C   UNL     1       2.589   5.086  -3.142  0.00  0.00    +0.010 A 
ATOM      7  C   UNL     1       3.308   5.075  -4.348  0.00  0.00    -0.014 A 
ATOM      8  C   UNL     1       3.580   6.261  -5.047  0.00  0.00    +0.054 A 
ATOM      9  C   UNL     1       4.199   6.227  -6.299  0.00  0.00    +0.121 A 
ATOM     10  C   UNL     1       4.608   5.007  -6.831  0.00  0.00    +0.046 A 
ATOM     11  C   UNL     1       4.382   3.821  -6.129  0.00  0.00    +0.012 A 
ATOM     12  C   UNL     1       3.721   3.838  -4.895  0.00  0.00    -0.016 A 
ATOM     13  C   UNL     1       3.422   2.644  -4.224  0.00  0.00    +0.037 A 
BRANCH   9  14
ATOM     14  O   UNL     1       4.380   7.444  -6.900  0.00  0.00    -0.492 OA
BRANCH  14  15
ATOM     15  C   UNL     1       4.350   7.424  -8.330  0.00  0.00    +0.229 C 
BRANCH  15  16
ATOM     16  C   UNL     1       4.507   8.856  -8.835  0.00  0.00    +0.041 C 
BRANCH  16  17
ATOM     17  C   UNL     1       4.485   8.901 -10.360  0.00  0.00    -0.000 C 
ATOM     18  C   UNL     1       4.688  10.312 -10.885  0.00  0.00    +0.004 C 
ENDBRANCH  16  17
ENDBRANCH  15  16
ENDBRANCH  14  15
ENDBRANCH   9  14
ENDBRANCH   1   4
BRANCH   1  19
ATOM     19  N   UNL     1       2.662   1.050  -0.829  0.00  0.00    -0.176 NA
ATOM     20  H   UNL     1       3.271   0.246  -0.672  0.00  0.00    +0.149 HD
BRANCH  19  21
ATOM     21  C   UNL     1       1.871   1.618   0.285  0.00  0.00    +0.185 C 
BRANCH  21  22
ATOM     22  C   UNL     1       0.543   0.908   0.550  0.00  0.00    +0.324 C 
ATOM     23  O   UNL     1      -0.390   1.438   1.138  0.00  0.00    -0.249 OA
BRANCH  22  24
ATOM     24  O   UNL     1       0.511  -0.390   0.170  0.00  0.00    -0.479 OA
ATOM     25  H   UNL     1       1.268  -0.645  -0.388  0.00  0.00    +0.295 HD
ENDBRANCH  22  24
ENDBRANCH  21  22
BRANCH  21  26
ATOM     26  C   UNL     1       2.693   1.588   1.580  0.00  0.00    +0.043 C 
BRANCH  26  27
ATOM     27  C   UNL     1       3.989   2.403   1.507  0.00  0.00    +0.122 C 
BRANCH  27  28
ATOM     28  C   UNL     1       4.706   2.402   2.837  0.00  0.00    +0.305 C 
ATOM     29  O   UNL     1       4.308   1.849   3.849  0.00  0.00    -0.251 OA
BRANCH  28  30
ATOM     30  O   UNL     1       5.874   3.084   2.800  0.00  0.00    -0.481 OA
ATOM     31  H   UNL     1       6.086   3.480   1.931  0.00  0.00    +0.295 HD
ENDBRANCH  28  30
ENDBRANCH  27  28
ENDBRANCH  26  27
ENDBRANCH  21  26
ENDBRANCH  19  21
ENDBRANCH   1  19
TORSDOF 13
