REMARK  Name = 
REMARK  5 active torsions:
REMARK  status: ('A' for Active; 'I' for Inactive)
REMARK    1  A    between atoms: C_2  and  C_3
REMARK    2  A    between atoms: C_8  and  N_10
REMARK    3  A    between atoms: N_10  and  C_11
REMARK    4  A    between atoms: C_21  and  C_23
REMARK    5  A    between atoms: C_23  and  C_24
REMARK                            x       y       z     vdW  Elec       q    Type
REMARK                         _______ _______ _______ _____ _____    ______ ____
ROOT
ATOM      1  C   UNL     1       2.144  -0.118   0.026  0.00  0.00    +0.009 C 
ATOM      2  C   UNL     1       2.817   0.909  -0.919  0.00  0.00    +0.095 C 
ATOM      3  C   UNL     1       2.412   0.592  -2.378  0.00  0.00    +0.130 C 
ATOM      4  N   UNL     1       2.703  -0.798  -2.750  0.00  0.00    -0.299 N 
ATOM      5  C   UNL     1       3.492  -1.187  -3.827  0.00  0.00    +0.229 C 
ATOM      6  O   UNL     1       3.774  -2.374  -4.001  0.00  0.00    -0.274 OA
ATOM      7  C   UNL     1       2.142  -1.822  -1.852  0.00  0.00    +0.108 C 
ATOM      8  C   UNL     1       2.456  -1.567  -0.372  0.00  0.00    +0.024 C 
ATOM      9  C   UNL     1       2.433   0.146   1.505  0.00  0.00    +0.009 C 
ENDROOT
BRANCH   2  10
ATOM     10  N   UNL     1       4.277   0.998  -0.722  0.00  0.00    -0.313 N 
ATOM     11  C   UNL     1       4.833   2.229  -0.387  0.00  0.00    +0.134 A 
ATOM     12  C   UNL     1       5.964   2.372   0.455  0.00  0.00    +0.059 A 
ATOM     13  C   UNL     1       6.781   1.517   1.258  0.00  0.00    +0.032 A 
ATOM     14  C   UNL     1       7.769   2.286   1.833  0.00  0.00    +0.085 A 
ATOM     15  N   UNL     1       7.569   3.579   1.432  0.00  0.00    -0.346 N 
ATOM     16  H   UNL     1       8.128   4.377   1.692  0.00  0.00    +0.167 HD
ATOM     17  C   UNL     1       6.471   3.652   0.620  0.00  0.00    +0.143 A 
ATOM     18  N   UNL     1       5.998   4.784   0.085  0.00  0.00    -0.218 NA
ATOM     19  C   UNL     1       4.903   4.546  -0.656  0.00  0.00    +0.225 A 
ATOM     20  N   UNL     1       4.303   3.362  -0.911  0.00  0.00    -0.220 NA
ATOM     21  C   UNL     1       5.226  -0.060  -1.024  0.00  0.00    +0.131 C 
ENDBRANCH   2  10
BRANCH   5  22
ATOM     22  C   UNL     1       4.008  -0.100  -4.764  0.00  0.00    +0.214 C 
BRANCH  22  23
ATOM     23  C   UNL     1       4.921  -0.718  -5.811  0.00  0.00    +0.072 C 
ATOM     24  N   UNL     1       5.678  -1.231  -6.680  0.00  0.00    -0.196 NA
ENDBRANCH  22  23
ENDBRANCH   5  22
TORSDOF 3
