REMARK  Name = 
REMARK  12 active torsions:
REMARK  status: ('A' for Active; 'I' for Inactive)
REMARK    1  A    between atoms: C_2  and  C_3
REMARK    2  A    between atoms: C_3  and  O_4
REMARK    3  A    between atoms: O_4  and  C_5
REMARK    4  A    between atoms: C_5  and  C_7
REMARK    5  A    between atoms: C_7  and  C_8
REMARK    6  A    between atoms: C_19  and  C_21
REMARK    7  A    between atoms: C_21  and  N_22
REMARK    8  A    between atoms: C_23  and  O_25
REMARK    9  A    between atoms: O_25  and  C_26
REMARK   10  A    between atoms: C_26  and  C_27
REMARK   11  A    between atoms: C_26  and  C_28
REMARK   12  A    between atoms: C_26  and  C_29
REMARK                            x       y       z     vdW  Elec       q    Type
REMARK                         _______ _______ _______ _____ _____    ______ ____
ROOT
ATOM      1  C   UNL     1       2.081  -0.021  -0.060  0.00  0.00    +0.114 C 
ATOM      2  N   UNL     1       2.576  -1.205   0.651  0.00  0.00    -0.294 N 
ATOM      3  C   UNL     1       2.087  -2.498   0.613  0.00  0.00    +0.233 C 
ATOM      4  O   UNL     1       2.531  -3.369   1.369  0.00  0.00    -0.274 OA
ATOM      5  C   UNL     1       3.703  -0.881   1.512  0.00  0.00    +0.108 C 
ATOM      6  C   UNL     1       3.950   0.610   1.331  0.00  0.00    +0.021 C 
ATOM      7  C   UNL     1       2.621   1.130   0.800  0.00  0.00    +0.027 C 
ENDROOT
BRANCH   3   8
ATOM      8  C   UNL     1       0.912  -2.820  -0.313  0.00  0.00    +0.203 C 
BRANCH   8   9
ATOM      9  N   UNL     1      -0.369  -2.601   0.333  0.00  0.00    -0.273 N 
ATOM     10  H   UNL     1      -0.606  -3.109   1.173  0.00  0.00    +0.153 HD
ATOM     11  C   UNL     1      -1.281  -1.727  -0.171  0.00  0.00    +0.401 C 
ATOM     12  O   UNL     1      -1.078  -1.044  -1.163  0.00  0.00    -0.226 OA
BRANCH  11  13
ATOM     13  O   UNL     1      -2.401  -1.700   0.594  0.00  0.00    -0.445 OA
BRANCH  13  14
ATOM     14  C   UNL     1      -3.468  -0.776   0.241  0.00  0.00    +0.107 C 
ATOM     15  C   UNL     1      -2.984   0.679   0.326  0.00  0.00    +0.055 C 
ATOM     16  C   UNL     1      -4.570  -0.968   1.297  0.00  0.00    +0.055 C 
ATOM     17  C   UNL     1      -4.068  -1.107  -1.133  0.00  0.00    +0.055 C 
ENDBRANCH  13  14
ENDBRANCH  11  13
ENDBRANCH   8   9
ENDBRANCH   3   8
BRANCH   1  18
ATOM     18  C   UNL     1       2.548   0.076  -1.530  0.00  0.00    +0.254 C 
BRANCH  18  19
ATOM     19  O   UNL     1       3.980   0.049  -1.645  0.00  0.00    -0.463 OA
BRANCH  19  20
ATOM     20  C   UNL     1       4.533  -1.194  -1.752  0.00  0.00    +0.312 C 
ATOM     21  O   UNL     1       3.911  -2.245  -1.823  0.00  0.00    -0.250 OA
BRANCH  20  22
ATOM     22  C   UNL     1       6.038  -1.091  -1.836  0.00  0.00    +0.155 C 
BRANCH  22  23
ATOM     23  C   UNL     1       6.467  -1.172  -3.274  0.00  0.00    -0.035 A 
ATOM     24  C   UNL     1       6.580  -2.422  -3.899  0.00  0.00    +0.004 A 
ATOM     25  C   UNL     1       6.797  -2.504  -5.272  0.00  0.00    +0.002 A 
ATOM     26  C   UNL     1       6.908  -1.338  -6.031  0.00  0.00    +0.020 A 
ATOM     27  C   UNL     1       6.815  -0.094  -5.410  0.00  0.00    +0.041 A 
ATOM     28 CL   UNL     1       6.922   1.343  -6.350  0.00  0.00    -0.084 Cl
ATOM     29  C   UNL     1       6.600  -0.004  -4.038  0.00  0.00    +0.024 A 
ENDBRANCH  22  23
ENDBRANCH  20  22
ENDBRANCH  19  20
ENDBRANCH  18  19
ENDBRANCH   1  18
TORSDOF 9
