REMARK  Name = 
REMARK  21 active torsions:
REMARK  status: ('A' for Active; 'I' for Inactive)
REMARK    1  A    between atoms: C_4  and  C_5
REMARK    2  A    between atoms: C_5  and  O_6
REMARK    3  A    between atoms: O_6  and  C_7
REMARK    4  A    between atoms: C_10  and  C_11
REMARK    5  A    between atoms: C_11  and  C_12
REMARK    6  A    between atoms: C_12  and  C_13
REMARK    7  A    between atoms: C_12  and  N_30
REMARK    8  A    between atoms: C_13  and  N_14
REMARK    9  A    between atoms: N_14  and  C_15
REMARK   10  A    between atoms: N_14  and  C_26
REMARK   11  A    between atoms: C_15  and  C_16
REMARK   12  A    between atoms: C_16  and  N_17
REMARK   13  A    between atoms: N_17  and  C_18
REMARK   14  A    between atoms: N_17  and  C_22
REMARK   15  A    between atoms: C_18  and  C_19
REMARK   16  A    between atoms: C_22  and  C_23
REMARK   17  A    between atoms: C_26  and  C_27
REMARK   18  A    between atoms: N_30  and  C_31
REMARK   19  A    between atoms: N_30  and  C_35
REMARK   20  A    between atoms: C_31  and  C_32
REMARK   21  A    between atoms: C_35  and  C_36
REMARK                            x       y       z     vdW  Elec       q    Type
REMARK                         _______ _______ _______ _____ _____    ______ ____
ROOT
ATOM      1 NA   UNL     1       1.286   2.551   0.756  0.00  0.00    +0.000 Na
ENDROOT
TORSDOF 0
REMARK  Name = 
REMARK  21 active torsions:
REMARK  status: ('A' for Active; 'I' for Inactive)
REMARK    1  A    between atoms: C_4  and  C_5
REMARK    2  A    between atoms: C_5  and  O_6
REMARK    3  A    between atoms: O_6  and  C_7
REMARK    4  A    between atoms: C_10  and  C_11
REMARK    5  A    between atoms: C_11  and  C_12
REMARK    6  A    between atoms: C_12  and  C_13
REMARK    7  A    between atoms: C_12  and  N_30
REMARK    8  A    between atoms: C_13  and  N_14
REMARK    9  A    between atoms: N_14  and  C_15
REMARK   10  A    between atoms: N_14  and  C_26
REMARK   11  A    between atoms: C_15  and  C_16
REMARK   12  A    between atoms: C_16  and  N_17
REMARK   13  A    between atoms: N_17  and  C_18
REMARK   14  A    between atoms: N_17  and  C_22
REMARK   15  A    between atoms: C_18  and  C_19
REMARK   16  A    between atoms: C_22  and  C_23
REMARK   17  A    between atoms: C_26  and  C_27
REMARK   18  A    between atoms: N_30  and  C_31
REMARK   19  A    between atoms: N_30  and  C_35
REMARK   20  A    between atoms: C_31  and  C_32
REMARK   21  A    between atoms: C_35  and  C_36
REMARK                            x       y       z     vdW  Elec       q    Type
REMARK                         _______ _______ _______ _____ _____    ______ ____
ROOT
ATOM      1 NA   UNL     1       1.138  -2.755   0.271  0.00  0.00    +0.000 Na
ENDROOT
TORSDOF 0
REMARK  Name = 
REMARK  21 active torsions:
REMARK  status: ('A' for Active; 'I' for Inactive)
REMARK    1  A    between atoms: C_4  and  C_5
REMARK    2  A    between atoms: C_5  and  O_6
REMARK    3  A    between atoms: O_6  and  C_7
REMARK    4  A    between atoms: C_10  and  C_11
REMARK    5  A    between atoms: C_11  and  C_12
REMARK    6  A    between atoms: C_12  and  C_13
REMARK    7  A    between atoms: C_12  and  N_30
REMARK    8  A    between atoms: C_13  and  N_14
REMARK    9  A    between atoms: N_14  and  C_15
REMARK   10  A    between atoms: N_14  and  C_26
REMARK   11  A    between atoms: C_15  and  C_16
REMARK   12  A    between atoms: C_16  and  N_17
REMARK   13  A    between atoms: N_17  and  C_18
REMARK   14  A    between atoms: N_17  and  C_22
REMARK   15  A    between atoms: C_18  and  C_19
REMARK   16  A    between atoms: C_22  and  C_23
REMARK   17  A    between atoms: C_26  and  C_27
REMARK   18  A    between atoms: N_30  and  C_31
REMARK   19  A    between atoms: N_30  and  C_35
REMARK   20  A    between atoms: C_31  and  C_32
REMARK   21  A    between atoms: C_35  and  C_36
REMARK                            x       y       z     vdW  Elec       q    Type
REMARK                         _______ _______ _______ _____ _____    ______ ____
ROOT
ATOM      1 GD   UNL     1      -0.524   1.166   1.888  0.00  0.00    +0.000 Gd
ENDROOT
TORSDOF 0
REMARK  Name = 
REMARK  21 active torsions:
REMARK  status: ('A' for Active; 'I' for Inactive)
REMARK    1  A    between atoms: C_4  and  C_5
REMARK    2  A    between atoms: C_5  and  O_6
REMARK    3  A    between atoms: O_6  and  C_7
REMARK    4  A    between atoms: C_10  and  C_11
REMARK    5  A    between atoms: C_11  and  C_12
REMARK    6  A    between atoms: C_12  and  C_13
REMARK    7  A    between atoms: C_12  and  N_30
REMARK    8  A    between atoms: C_13  and  N_14
REMARK    9  A    between atoms: N_14  and  C_15
REMARK   10  A    between atoms: N_14  and  C_26
REMARK   11  A    between atoms: C_15  and  C_16
REMARK   12  A    between atoms: C_16  and  N_17
REMARK   13  A    between atoms: N_17  and  C_18
REMARK   14  A    between atoms: N_17  and  C_22
REMARK   15  A    between atoms: C_18  and  C_19
REMARK   16  A    between atoms: C_22  and  C_23
REMARK   17  A    between atoms: C_26  and  C_27
REMARK   18  A    between atoms: N_30  and  C_31
REMARK   19  A    between atoms: N_30  and  C_35
REMARK   20  A    between atoms: C_31  and  C_32
REMARK   21  A    between atoms: C_35  and  C_36
REMARK                            x       y       z     vdW  Elec       q    Type
REMARK                         _______ _______ _______ _____ _____    ______ ____
ROOT
ATOM      1  C   UNL     1       8.884  -0.331  -3.806  0.00  0.00    +0.000 C 
ENDROOT
BRANCH   1   2
ATOM      2  C   UNL     1       8.563  -1.746  -4.449  0.00  0.00    +0.000 C 
BRANCH   2   3
ATOM      3  N   UNL     1       8.296  -1.879  -5.913  0.00  0.00    +0.000 NA
BRANCH   3   4
ATOM      4  C   UNL     1       9.475  -1.749  -6.804  0.00  0.00    +0.000 C 
BRANCH   4   5
ATOM      5  C   UNL     1      10.786  -2.592  -6.499  0.00  0.00    +0.000 C 
BRANCH   5   6
ATOM      6  N   UNL     1      11.070  -3.737  -7.426  0.00  0.00    +0.000 NA
BRANCH   6   7
ATOM      7  C   UNL     1      10.568  -5.127  -7.284  0.00  0.00    +0.000 C 
BRANCH   7   8
ATOM      8  C   UNL     1      11.221  -5.940  -6.196  0.00  0.00    +0.000 C 
ATOM      9  O   UNL     1      10.623  -6.130  -5.149  0.00  0.00    -0.500 OA
ATOM     10  O   UNL     1      12.231  -6.776  -6.519  0.00  0.00    -0.500 OA
ENDBRANCH   7   8
ENDBRANCH   6   7
BRANCH   6  11
ATOM     11  C   UNL     1      12.192  -3.568  -8.382  0.00  0.00    +0.000 C 
BRANCH  11  12
ATOM     12  C   UNL     1      11.756  -2.763  -9.577  0.00  0.00    +0.000 C 
ATOM     13  O   UNL     1      10.616  -2.338  -9.677  0.00  0.00    -0.500 OA
ATOM     14  O   UNL     1      12.633  -2.521 -10.566  0.00  0.00    -0.500 OA
ENDBRANCH  11  12
ENDBRANCH   6  11
ENDBRANCH   5   6
ENDBRANCH   4   5
ENDBRANCH   3   4
BRANCH   3  15
ATOM     15  C   UNL     1       7.551  -3.112  -6.247  0.00  0.00    +0.000 C 
BRANCH  15  16
ATOM     16  C   UNL     1       6.898  -3.028  -7.614  0.00  0.00    +0.000 C 
ATOM     17  O   UNL     1       6.847  -1.971  -8.226  0.00  0.00    -0.500 OA
ATOM     18  O   UNL     1       6.340  -4.125  -8.158  0.00  0.00    -0.500 OA
ENDBRANCH  15  16
ENDBRANCH   3  15
ENDBRANCH   2   3
ENDBRANCH   1   2
BRANCH   1  19
ATOM     19  N   UNL     1      10.303   0.219  -3.920  0.00  0.00    +0.000 NA
BRANCH  19  20
ATOM     20  C   UNL     1      10.895   0.792  -5.158  0.00  0.00    +0.000 C 
BRANCH  20  21
ATOM     21  C   UNL     1      10.298   2.086  -5.627  0.00  0.00    +0.000 C 
ATOM     22  O   UNL     1       9.586   2.112  -6.616  0.00  0.00    -0.500 OA
ATOM     23  O   UNL     1      10.697   3.244  -5.065  0.00  0.00    -0.500 OA
ENDBRANCH  20  21
ENDBRANCH  19  20
BRANCH  19  24
ATOM     24  C   UNL     1      10.771   1.067  -2.783  0.00  0.00    +0.000 C 
BRANCH  24  25
ATOM     25  C   UNL     1      10.644   0.429  -1.435  0.00  0.00    +0.000 C 
ATOM     26  O   UNL     1      10.035   1.001  -0.546  0.00  0.00    -0.500 OA
ATOM     27  O   UNL     1      11.249  -0.747  -1.184  0.00  0.00    -0.500 OA
ENDBRANCH  24  25
ENDBRANCH  19  24
ENDBRANCH   1  19
BRANCH   1  28
ATOM     28  C   UNL     1       7.684   0.726  -3.774  0.00  0.00    +0.000 C 
BRANCH  28  32
ATOM     29  C   UNL     1       4.338  -0.028  -0.983  0.00  0.00    +0.000 A 
ATOM     30  C   UNL     1       4.068   0.526  -2.252  0.00  0.00    +0.000 A 
ATOM     31  C   UNL     1       5.107   0.722  -3.189  0.00  0.00    +0.000 A 
ATOM     32  C   UNL     1       6.460   0.384  -2.874  0.00  0.00    +0.000 A 
ATOM     33  C   UNL     1       6.679  -0.185  -1.606  0.00  0.00    +0.000 A 
ATOM     34  C   UNL     1       5.659  -0.406  -0.706  0.00  0.00    +0.000 A 
BRANCH  29  35
ATOM     35  O   UNL     1       3.370  -0.118  -0.029  0.00  0.00    +0.000 OA
BRANCH  35  37
ATOM     36  C   UNL     1       2.587   0.055   2.267  0.00  0.00    +0.000 C 
ATOM     37  C   UNL     1       3.663  -0.417   1.315  0.00  0.00    +0.000 C 
ENDBRANCH  35  37
ENDBRANCH  29  35
ENDBRANCH  28  32
ENDBRANCH   1  28
TORSDOF 20
