REMARK  Name = 
REMARK  5 active torsions:
REMARK  status: ('A' for Active; 'I' for Inactive)
REMARK    1  A    between atoms: C_1  and  C_2
REMARK    2  A    between atoms: C_2  and  C_3
REMARK    3  A    between atoms: C_4  and  C_5
REMARK    4  A    between atoms: C_5  and  N_6
REMARK    5  A    between atoms: N_6  and  C_7
REMARK                            x       y       z     vdW  Elec       q    Type
REMARK                         _______ _______ _______ _____ _____    ______ ____
ROOT
ATOM      1  C   UNL     1       6.332   1.878  -2.212  0.00  0.00    +0.150 A 
ATOM      2  N   UNL     1       6.776   0.647  -2.588  0.00  0.00    -0.219 NA
ATOM      3  C   UNL     1       7.946   0.540  -3.252  0.00  0.00    +0.225 A 
ATOM      4  N   UNL     1       8.795   1.522  -3.609  0.00  0.00    -0.216 NA
ATOM      5  C   UNL     1       8.324   2.713  -3.215  0.00  0.00    +0.163 A 
ATOM      6  N   UNL     1       8.913   3.927  -3.409  0.00  0.00    -0.329 N 
ATOM      7  H   UNL     1       9.789   4.079  -3.886  0.00  0.00    +0.168 HD
ATOM      8  C   UNL     1       8.102   4.874  -2.845  0.00  0.00    +0.198 A 
ATOM      9  N   UNL     1       7.026   4.341  -2.303  0.00  0.00    -0.231 NA
ATOM     10  C   UNL     1       7.147   2.984  -2.534  0.00  0.00    +0.147 A 
ENDROOT
BRANCH   1  11
ATOM     11  N   UNL     1       5.097   2.022  -1.573  0.00  0.00    -0.324 N 
ATOM     12  H   UNL     1       5.013   2.951  -1.165  0.00  0.00    +0.148 HD
BRANCH  11  13
ATOM     13  C   UNL     1       4.730   0.937  -0.690  0.00  0.00    +0.130 C 
BRANCH  13  16
ATOM     14  C   UNL     1       0.990   0.953   0.443  0.00  0.00    +0.038 C 
ATOM     15  C   UNL     1       2.489   1.041   0.533  0.00  0.00    -0.078 C 
ATOM     16  C   UNL     1       3.234   0.940  -0.587  0.00  0.00    -0.010 C 
ATOM     17  C   UNL     1       3.091   1.215   1.897  0.00  0.00    +0.038 C 
ENDBRANCH  13  16
ENDBRANCH  11  13
ENDBRANCH   1  11
TORSDOF 3
