REMARK  Name = 
REMARK  12 active torsions:
REMARK  status: ('A' for Active; 'I' for Inactive)
REMARK    1  A    between atoms: C_1  and  C_2
REMARK    2  A    between atoms: C_2  and  C_3
REMARK    3  A    between atoms: C_3  and  N_4
REMARK    4  A    between atoms: N_4  and  S_5
REMARK    5  A    between atoms: S_5  and  N_8
REMARK    6  A    between atoms: N_8  and  C_9
REMARK    7  A    between atoms: C_10  and  C_26
REMARK    8  A    between atoms: C_11  and  O_12
REMARK    9  A    between atoms: O_12  and  C_13
REMARK   10  A    between atoms: C_13  and  C_14
REMARK   11  A    between atoms: C_14  and  O_15
REMARK   12  A    between atoms: O_15  and  C_16
REMARK                            x       y       z     vdW  Elec       q    Type
REMARK                         _______ _______ _______ _____ _____    ______ ____
ROOT
ATOM      1  C   UNL     1       7.581  -4.194  -1.074  0.00  0.00    +0.153 A 
ATOM      2  N   UNL     1       6.941  -5.368  -0.912  0.00  0.00    -0.219 NA
ATOM      3  C   UNL     1       7.671  -6.456  -1.147  0.00  0.00    +0.227 A 
ATOM      4  N   UNL     1       8.944  -6.465  -1.541  0.00  0.00    -0.201 NA
ATOM      5  C   UNL     1       9.526  -5.259  -1.730  0.00  0.00    +0.228 A 
ATOM      6  C   UNL     1       8.898  -4.020  -1.530  0.00  0.00    +0.085 A 
ENDROOT
BRANCH   6   7
ATOM      7  C   UNL     1       9.532  -2.695  -1.873  0.00  0.00    -0.009 A 
ATOM      8  C   UNL     1      10.465  -2.555  -2.925  0.00  0.00    +0.010 A 
ATOM      9  C   UNL     1      11.036  -1.319  -3.274  0.00  0.00    +0.016 A 
ATOM     10  C   UNL     1      10.647  -0.164  -2.614  0.00  0.00    +0.018 A 
ATOM     11 BR   UNL     1      11.344   1.514  -3.125  0.00  0.00    -0.050 Br
ATOM     12  C   UNL     1       9.737  -0.247  -1.578  0.00  0.00    +0.016 A 
ATOM     13  C   UNL     1       9.225  -1.497  -1.203  0.00  0.00    +0.010 A 
ENDBRANCH   6   7
BRANCH   1  14
ATOM     14  N   UNL     1       6.687  -3.126  -0.805  0.00  0.00    -0.189 N 
ATOM     15  H   UNL     1       5.772  -3.293  -1.206  0.00  0.00    +0.176 HD
BRANCH  14  16
ATOM     16  S   UNL     1       6.568  -2.603   0.775  0.00  0.00    +0.110 S 
ATOM     17  O   UNL     1       7.756  -2.953   1.517  0.00  0.00    -0.138 OA
ATOM     18  O   UNL     1       6.075  -1.248   0.729  0.00  0.00    -0.138 OA
BRANCH  16  19
ATOM     19  N   UNL     1       5.286  -3.515   1.359  0.00  0.00    -0.177 NA
ATOM     20  H   UNL     1       4.450  -3.286   0.823  0.00  0.00    +0.149 HD
BRANCH  19  21
ATOM     21  C   UNL     1       5.019  -3.242   2.802  0.00  0.00    +0.107 C 
BRANCH  21  23
ATOM     22  C   UNL     1       4.242  -5.597   3.288  0.00  0.00    +0.005 C 
ATOM     23  C   UNL     1       3.878  -4.122   3.297  0.00  0.00    +0.013 C 
ENDBRANCH  21  23
ENDBRANCH  19  21
ENDBRANCH  16  19
ENDBRANCH  14  16
ENDBRANCH   1  14
BRANCH   5  24
ATOM     24  O   UNL     1      10.837  -5.265  -2.170  0.00  0.00    -0.472 OA
BRANCH  24  25
ATOM     25  C   UNL     1      11.426  -6.541  -2.446  0.00  0.00    +0.272 C 
BRANCH  25  26
ATOM     26  C   UNL     1      12.549  -6.341  -3.472  0.00  0.00    +0.273 C 
BRANCH  26  27
ATOM     27  O   UNL     1      13.197  -7.587  -3.711  0.00  0.00    -0.459 OA
BRANCH  27  28
ATOM     28  C   UNL     1      14.200  -7.521  -4.658  0.00  0.00    +0.318 A 
ATOM     29  N   UNL     1      14.816  -8.685  -4.903  0.00  0.00    -0.202 NA
ATOM     30  C   UNL     1      15.800  -8.659  -5.826  0.00  0.00    +0.133 A 
ATOM     31  C   UNL     1      16.178  -7.522  -6.499  0.00  0.00    +0.054 A 
ATOM     32 BR   UNL     1      17.552  -7.526  -7.780  0.00  0.00    -0.047 Br
ATOM     33  C   UNL     1      15.477  -6.381  -6.173  0.00  0.00    +0.133 A 
ATOM     34  N   UNL     1      14.485  -6.348  -5.256  0.00  0.00    -0.202 NA
ENDBRANCH  27  28
ENDBRANCH  26  27
ENDBRANCH  25  26
ENDBRANCH  24  25
ENDBRANCH   5  24
TORSDOF 11
