REMARK  Name = 
REMARK  5 active torsions:
REMARK  status: ('A' for Active; 'I' for Inactive)
REMARK    1  A    between atoms: C_2  and  O_3
REMARK    2  A    between atoms: C_5  and  N_16
REMARK    3  A    between atoms: C_8  and  C_10
REMARK    4  A    between atoms: C_10  and  N_11
REMARK    5  A    between atoms: C_18  and  C_19
REMARK                            x       y       z     vdW  Elec       q    Type
REMARK                         _______ _______ _______ _____ _____    ______ ____
ROOT
ATOM      1  C   UNL     1       2.068   0.042   0.100  0.00  0.00    +0.149 C 
ATOM      2  C   UNL     1       2.665  -1.236   0.699  0.00  0.00    +0.163 C 
ATOM      3  O   UNL     1       3.831  -0.846   1.465  0.00  0.00    -0.349 OA
ATOM      4  C   UNL     1       3.995   0.575   1.326  0.00  0.00    +0.226 C 
ATOM      5  C   UNL     1       2.611   1.124   1.002  0.00  0.00    +0.088 C 
ENDROOT
BRANCH   4   6
ATOM      6  N   UNL     1       4.570   1.147   2.539  0.00  0.00    -0.274 N 
ATOM      7  C   UNL     1       5.329   2.301   2.406  0.00  0.00    +0.331 A 
ATOM      8  O   UNL     1       5.539   2.873   1.338  0.00  0.00    -0.246 OA
ATOM      9  N   UNL     1       5.845   2.807   3.569  0.00  0.00    -0.275 N 
ATOM     10  H   UNL     1       6.396   3.649   3.491  0.00  0.00    +0.173 HD
ATOM     11  C   UNL     1       5.629   2.323   4.827  0.00  0.00    +0.257 A 
ATOM     12  O   UNL     1       6.075   2.878   5.826  0.00  0.00    -0.267 OA
ATOM     13  C   UNL     1       4.810   1.094   4.913  0.00  0.00    +0.030 A 
ATOM     14  C   UNL     1       4.589   0.496   6.264  0.00  0.00    +0.051 C 
ATOM     15  C   UNL     1       4.324   0.582   3.776  0.00  0.00    +0.101 A 
ENDBRANCH   4   6
BRANCH   1  16
ATOM     16  O   UNL     1       2.583   0.242  -1.220  0.00  0.00    -0.389 OA
ATOM     17  H   UNL     1       2.055   0.946  -1.636  0.00  0.00    +0.210 HD
ENDBRANCH   1  16
BRANCH   2  18
ATOM     18  C   UNL     1       1.701  -1.973   1.651  0.00  0.00    +0.118 C 
BRANCH  18  19
ATOM     19  N   UNL     1       0.472  -2.470   1.018  0.00  0.00    -0.300 NA
ATOM     20  C   UNL     1      -0.404  -3.157   1.976  0.00  0.00    +0.084 C 
ATOM     21  C   UNL     1      -1.144  -4.223   1.173  0.00  0.00    +0.017 C 
ATOM     22  C   UNL     1      -0.619  -4.089  -0.245  0.00  0.00    +0.017 C 
ATOM     23  C   UNL     1       0.731  -3.427  -0.062  0.00  0.00    +0.084 C 
ENDBRANCH  18  19
ENDBRANCH   2  18
TORSDOF 4
