REMARK  Name = 
REMARK  11 active torsions:
REMARK  status: ('A' for Active; 'I' for Inactive)
REMARK    1  A    between atoms: C_1  and  C_2
REMARK    2  A    between atoms: C_2  and  O_4
REMARK    3  A    between atoms: O_4  and  C_5
REMARK    4  A    between atoms: C_8  and  C_9
REMARK    5  A    between atoms: C_10  and  C_11
REMARK    6  A    between atoms: N_13  and  C_14
REMARK    7  A    between atoms: C_14  and  C_15
REMARK    8  A    between atoms: C_15  and  C_16
REMARK    9  A    between atoms: C_23  and  O_24
REMARK   10  A    between atoms: O_24  and  C_25
REMARK   11  A    between atoms: C_25  and  C_26
REMARK                            x       y       z     vdW  Elec       q    Type
REMARK                         _______ _______ _______ _____ _____    ______ ____
ROOT
ATOM      1  C   UNL     1       4.708  -1.091   0.249  0.00  0.00    +0.174 A 
ATOM      2  C   UNL     1       5.150  -1.551  -0.989  0.00  0.00    +0.174 A 
ATOM      3  C   UNL     1       6.520  -1.521  -1.315  0.00  0.00    +0.058 A 
ATOM      4  C   UNL     1       7.461  -1.039  -0.405  0.00  0.00    -0.021 A 
ATOM      5  C   UNL     1       7.017  -0.597   0.843  0.00  0.00    +0.012 A 
ATOM      6  C   UNL     1       5.661  -0.643   1.175  0.00  0.00    +0.051 A 
ENDROOT
BRANCH   4   7
ATOM      7  C   UNL     1       8.892  -0.907  -0.714  0.00  0.00    +0.013 C 
ATOM      8  C   UNL     1       9.616  -1.712  -1.508  0.00  0.00    +0.068 C 
BRANCH   8   9
ATOM      9  C   UNL     1      11.063  -1.412  -1.664  0.00  0.00    +0.237 C 
ATOM     10  N   UNL     1      11.725  -2.275  -2.507  0.00  0.00    -0.312 N 
ATOM     11  H   UNL     1      11.228  -3.015  -2.978  0.00  0.00    +0.149 HD
ATOM     12  O   UNL     1      11.609  -0.474  -1.095  0.00  0.00    -0.271 OA
BRANCH  10  13
ATOM     13  C   UNL     1      13.142  -2.074  -2.767  0.00  0.00    +0.109 C 
BRANCH  13  14
ATOM     14  C   UNL     1      13.732  -3.127  -3.702  0.00  0.00    +0.054 C 
BRANCH  14  15
ATOM     15  C   UNL     1      15.199  -2.883  -3.966  0.00  0.00    -0.046 A 
ATOM     16  C   UNL     1      15.599  -2.026  -5.000  0.00  0.00    +0.004 A 
ATOM     17  C   UNL     1      16.954  -1.776  -5.228  0.00  0.00    +0.000 A 
ATOM     18  C   UNL     1      17.920  -2.377  -4.425  0.00  0.00    +0.000 A 
ATOM     19  C   UNL     1      17.533  -3.228  -3.392  0.00  0.00    +0.000 A 
ATOM     20  C   UNL     1      16.178  -3.479  -3.161  0.00  0.00    +0.004 A 
ENDBRANCH  14  15
ENDBRANCH  13  14
ENDBRANCH  10  13
ENDBRANCH   8   9
ENDBRANCH   4   7
BRANCH   1  21
ATOM     21  O   UNL     1       3.366  -1.175   0.649  0.00  0.00    -0.422 OA
BRANCH  21  23
ATOM     22  C   UNL     1       1.625  -0.548   2.144  0.00  0.00    +0.136 C 
ATOM     23  C   UNL     1       2.853  -0.112   1.398  0.00  0.00    +0.309 C 
ATOM     24  O   UNL     1       3.324   1.016   1.483  0.00  0.00    -0.251 OA
ENDBRANCH  21  23
ENDBRANCH   1  21
BRANCH   2  25
ATOM     25  O   UNL     1       4.374  -2.094  -2.055  0.00  0.00    -0.422 OA
BRANCH  25  26
ATOM     26  C   UNL     1       3.018  -2.335  -2.299  0.00  0.00    +0.309 C 
ATOM     27  O   UNL     1       2.080  -2.082  -1.561  0.00  0.00    -0.251 OA
ATOM     28  C   UNL     1       2.905  -2.925  -3.684  0.00  0.00    +0.136 C 
ENDBRANCH  25  26
ENDBRANCH   2  25
TORSDOF 9
