REMARK  Name = 
REMARK  5 active torsions:
REMARK  status: ('A' for Active; 'I' for Inactive)
REMARK    1  A    between atoms: C_1  and  O_2
REMARK    2  A    between atoms: O_2  and  C_3
REMARK    3  A    between atoms: C_7  and  O_8
REMARK    4  A    between atoms: O_8  and  C_9
REMARK    5  A    between atoms: C_10  and  C_11
REMARK                            x       y       z     vdW  Elec       q    Type
REMARK                         _______ _______ _______ _____ _____    ______ ____
ROOT
ATOM      1  C   UNL     1       3.545  -1.537   2.025  0.00  0.00    +0.029 A 
ATOM      2  C   UNL     1       4.557  -2.403   2.480  0.00  0.00    +0.127 A 
ATOM      3  N   UNL     1       5.734  -1.956   3.081  0.00  0.00    -0.343 N 
ATOM      4  H   UNL     1       5.524  -1.295   3.823  0.00  0.00    +0.144 HD
ATOM      5  H   UNL     1       6.223  -2.782   3.418  0.00  0.00    +0.144 HD
ATOM      6  N   UNL     1       4.565  -3.748   2.283  0.00  0.00    -0.212 NA
ATOM      7  C   UNL     1       3.627  -4.325   1.535  0.00  0.00    +0.167 A 
ATOM      8  C   UNL     1       2.595  -3.560   1.025  0.00  0.00    +0.038 A 
ATOM      9  C   UNL     1       1.719  -4.211   0.178  0.00  0.00    +0.126 A 
ATOM     10  N   UNL     1       1.833  -5.509  -0.147  0.00  0.00    -0.222 NA
ATOM     11  C   UNL     1       2.858  -6.156   0.405  0.00  0.00    +0.214 A 
ATOM     12  N   UNL     1       2.999  -7.490   0.086  0.00  0.00    -0.327 N 
ATOM     13  H   UNL     1       3.475  -7.983   0.828  0.00  0.00    +0.145 HD
ATOM     14  H   UNL     1       2.122  -7.868  -0.245  0.00  0.00    +0.145 HD
ATOM     15  N   UNL     1       3.735  -5.624   1.253  0.00  0.00    -0.195 NA
ATOM     16  C   UNL     1       2.507  -2.195   1.346  0.00  0.00    +0.025 A 
ENDROOT
BRANCH   1  18
ATOM     17  C   UNL     1       3.069   0.793   1.081  0.00  0.00    +0.131 A 
ATOM     18  C   UNL     1       3.533  -0.025   2.163  0.00  0.00    +0.069 A 
ATOM     19  C   UNL     1       3.958   0.666   3.339  0.00  0.00    +0.131 A 
ATOM     20  C   UNL     1       3.939   2.073   3.393  0.00  0.00    +0.046 A 
ATOM     21  C   UNL     1       3.450   2.827   2.336  0.00  0.00    +0.007 A 
ATOM     22  C   UNL     1       3.002   2.189   1.191  0.00  0.00    +0.046 A 
BRANCH  17  24
ATOM     23  C   UNL     1       2.698   0.880  -1.286  0.00  0.00    +0.277 C 
ATOM     24  O   UNL     1       2.635   0.158  -0.063  0.00  0.00    -0.494 OA
ENDBRANCH  17  24
BRANCH  19  25
ATOM     25  O   UNL     1       4.395  -0.087   4.406  0.00  0.00    -0.494 OA
ATOM     26  C   UNL     1       4.555   0.557   5.668  0.00  0.00    +0.277 C 
ENDBRANCH  19  25
ENDBRANCH   1  18
TORSDOF 3
