REMARK  Name = 
REMARK  5 active torsions:
REMARK  status: ('A' for Active; 'I' for Inactive)
REMARK    1  A    between atoms: C_2  and  C_3
REMARK    2  A    between atoms: C_3  and  C_4
REMARK    3  A    between atoms: C_4  and  C_6
REMARK    4  A    between atoms: C_4  and  N_11
REMARK    5  A    between atoms: C_13  and  C_16
REMARK                            x       y       z     vdW  Elec       q    Type
REMARK                         _______ _______ _______ _____ _____    ______ ____
ROOT
ATOM      1  N   UNL     1       5.668  -0.925  -1.222  0.00  0.00    -0.267 N 
ATOM      2  N   UNL     1       6.258  -0.261  -0.208  0.00  0.00    -0.179 NA
ATOM      3  C   UNL     1       7.563  -0.402  -0.458  0.00  0.00    +0.144 A 
ATOM      4  C   UNL     1       7.818  -1.148  -1.626  0.00  0.00    +0.039 A 
ATOM      5  C   UNL     1       6.562  -1.469  -2.098  0.00  0.00    +0.118 A 
ENDROOT
BRANCH   4   6
ATOM      6  C   UNL     1       9.051  -1.561  -2.249  0.00  0.00    +0.086 A 
ATOM      7  N   UNL     1       9.089  -2.772  -2.857  0.00  0.00    -0.235 NA
ATOM      8  C   UNL     1      10.254  -3.165  -3.400  0.00  0.00    +0.224 A 
ATOM      9  N   UNL     1      11.420  -2.495  -3.431  0.00  0.00    -0.218 NA
ATOM     10  C   UNL     1      11.318  -1.299  -2.833  0.00  0.00    +0.142 A 
ATOM     11  N   UNL     1      12.341  -0.398  -2.722  0.00  0.00    -0.346 N 
ATOM     12  H   UNL     1      13.271  -0.556  -3.085  0.00  0.00    +0.167 HD
ATOM     13  C   UNL     1      11.902   0.724  -2.066  0.00  0.00    +0.085 A 
ATOM     14  C   UNL     1      10.572   0.533  -1.755  0.00  0.00    +0.031 A 
ATOM     15  C   UNL     1      10.194  -0.757  -2.227  0.00  0.00    +0.045 A 
ENDBRANCH   4   6
BRANCH   1  16
ATOM     16  C   UNL     1       4.206  -0.989  -1.268  0.00  0.00    +0.124 C 
BRANCH  16  17
ATOM     17  C   UNL     1       3.645  -0.389  -2.576  0.00  0.00    +0.015 C 
ATOM     18  C   UNL     1       4.005   1.099  -2.752  0.00  0.00    +0.005 C 
ATOM     19  C   UNL     1       2.856   1.730  -3.539  0.00  0.00    +0.000 C 
ATOM     20  C   UNL     1       1.857   0.610  -3.793  0.00  0.00    +0.000 C 
ATOM     21  C   UNL     1       2.119  -0.385  -2.672  0.00  0.00    +0.005 C 
ENDBRANCH  16  17
BRANCH  16  22
ATOM     22  C   UNL     1       3.700  -2.392  -0.901  0.00  0.00    +0.145 C 
BRANCH  22  24
ATOM     23  N   UNL     1       4.224  -4.214  -2.719  0.00  0.00    -0.196 NA
ATOM     24  C   UNL     1       3.997  -3.411  -1.913  0.00  0.00    +0.065 C 
ENDBRANCH  22  24
ENDBRANCH  16  22
ENDBRANCH   1  16
TORSDOF 5
