REMARK  Name = 
REMARK  6 active torsions:
REMARK  status: ('A' for Active; 'I' for Inactive)
REMARK    1  A    between atoms: C_2  and  C_3
REMARK    2  A    between atoms: C_3  and  O_4
REMARK    3  A    between atoms: C_8  and  C_11
REMARK    4  A    between atoms: C_17  and  O_19
REMARK    5  A    between atoms: C_20  and  O_22
REMARK    6  A    between atoms: C_23  and  O_25
REMARK                            x       y       z     vdW  Elec       q    Type
REMARK                         _______ _______ _______ _____ _____    ______ ____
ROOT
ATOM      1  C   UNL     1       2.140  -0.135  -0.103  0.00  0.00    +0.179 C 
ATOM      2  C   UNL     1       2.665   0.311   1.280  0.00  0.00    +0.177 C 
ATOM      3  C   UNL     1       4.196   0.380   1.293  0.00  0.00    +0.180 C 
ATOM      4  C   UNL     1       4.739   1.123   0.071  0.00  0.00    +0.220 C 
ATOM      5  C   UNL     1       4.138   0.541  -1.220  0.00  0.00    +0.273 C 
ATOM      6  O   UNL     1       4.605  -0.810  -1.394  0.00  0.00    -0.355 OA
ATOM      7  N   UNL     1       4.765  -1.051  -2.777  0.00  0.00    -0.085 NA
ATOM      8  C   UNL     1       4.758   0.102  -3.368  0.00  0.00    +0.094 C 
ATOM      9  C   UNL     1       4.631   1.273  -2.455  0.00  0.00    +0.143 C 
ATOM     10  O   UNL     1       2.707   0.627  -1.174  0.00  0.00    -0.327 OA
ENDROOT
BRANCH   8  11
ATOM     11  C   UNL     1       4.921   0.266  -4.832  0.00  0.00    -0.000 A 
ATOM     12  C   UNL     1       5.008  -0.875  -5.640  0.00  0.00    +0.010 A 
ATOM     13  C   UNL     1       5.168  -0.750  -7.022  0.00  0.00    +0.001 A 
ATOM     14  C   UNL     1       5.241   0.515  -7.604  0.00  0.00    +0.000 A 
ATOM     15  C   UNL     1       5.159   1.655  -6.804  0.00  0.00    +0.001 A 
ATOM     16  C   UNL     1       5.002   1.533  -5.421  0.00  0.00    +0.010 A 
ENDBRANCH   8  11
BRANCH   2  17
ATOM     17  O   UNL     1       2.240  -0.596   2.308  0.00  0.00    -0.386 OA
ATOM     18  H   UNL     1       1.362  -0.947   2.051  0.00  0.00    +0.210 HD
ENDBRANCH   2  17
BRANCH   3  19
ATOM     19  O   UNL     1       4.653   1.070   2.470  0.00  0.00    -0.386 OA
ATOM     20  H   UNL     1       5.609   1.219   2.341  0.00  0.00    +0.210 HD
ENDBRANCH   3  19
BRANCH   4  21
ATOM     21  O   UNL     1       6.176   1.061   0.101  0.00  0.00    -0.383 OA
ATOM     22  H   UNL     1       6.426   0.137  -0.100  0.00  0.00    +0.210 HD
ENDBRANCH   4  21
BRANCH   1  23
ATOM     23  C   UNL     1       0.612   0.015  -0.175  0.00  0.00    +0.190 C 
BRANCH  23  24
ATOM     24  O   UNL     1      -0.019  -0.671   0.905  0.00  0.00    -0.392 OA
ATOM     25  H   UNL     1      -0.577  -0.022   1.374  0.00  0.00    +0.210 HD
ENDBRANCH  23  24
ENDBRANCH   1  23
TORSDOF 6
