REMARK  Name = 
REMARK  12 active torsions:
REMARK  status: ('A' for Active; 'I' for Inactive)
REMARK    1  A    between atoms: C_2  and  C_3
REMARK    2  A    between atoms: C_2  and  N_7
REMARK    3  A    between atoms: C_2  and  C_24
REMARK    4  A    between atoms: C_3  and  C_4
REMARK    5  A    between atoms: C_4  and  C_5
REMARK    6  A    between atoms: C_4  and  C_6
REMARK    7  A    between atoms: N_7  and  C_8
REMARK    8  A    between atoms: N_7  and  P_15
REMARK    9  A    between atoms: C_8  and  C_9
REMARK   10  A    between atoms: P_15  and  C_16
REMARK   11  A    between atoms: P_15  and  C_18
REMARK   12  A    between atoms: N_26  and  O_27
REMARK                            x       y       z     vdW  Elec       q    Type
REMARK                         _______ _______ _______ _____ _____    ______ ____
ROOT
ATOM      1  N   UNL     1       0.576   1.247   1.056  0.00  0.00    -0.233 NA
ENDROOT
BRANCH   1   2
ATOM      2  P   UNL     1       1.961   1.222   2.263  0.00  0.00    +0.178 P 
ATOM      3  C   UNL     1       2.585   2.785   1.545  0.00  0.00    +0.103 C 
ATOM      4  O   UNL     1       3.157   0.538   1.555  0.00  0.00    -0.300 OA
BRANCH   2   5
ATOM      5  C   UNL     1       1.337  -0.342   2.981  0.00  0.00    +0.026 A 
ATOM      6  C   UNL     1      -0.010  -0.462   3.370  0.00  0.00    +0.012 A 
ATOM      7  C   UNL     1      -0.493  -1.639   3.948  0.00  0.00    +0.001 A 
ATOM      8  C   UNL     1       0.372  -2.704   4.186  0.00  0.00    +0.000 A 
ATOM      9  C   UNL     1       1.721  -2.586   3.863  0.00  0.00    +0.001 A 
ATOM     10  C   UNL     1       2.200  -1.414   3.274  0.00  0.00    +0.012 A 
ENDBRANCH   2   5
ENDBRANCH   1   2
BRANCH   1  11
ATOM     11  C   UNL     1       0.713   0.660  -0.332  0.00  0.00    +0.152 C 
BRANCH  11  12
ATOM     12  C   UNL     1       1.573   1.565  -1.262  0.00  0.00    +0.253 C 
ATOM     13  N   UNL     1       2.880   1.186  -1.465  0.00  0.00    -0.196 N 
ATOM     14  H   UNL     1       3.375   0.689  -0.721  0.00  0.00    +0.182 HD
ATOM     15  O   UNL     1       1.154   2.604  -1.781  0.00  0.00    -0.272 OA
BRANCH  13  16
ATOM     16  O   UNL     1       3.651   2.135  -2.194  0.00  0.00    -0.295 OA
ATOM     17  H   UNL     1       2.989   2.834  -2.392  0.00  0.00    +0.241 HD
ENDBRANCH  13  16
ENDBRANCH  11  12
BRANCH  11  18
ATOM     18  C   UNL     1       1.112  -0.824  -0.548  0.00  0.00    +0.031 C 
BRANCH  18  19
ATOM     19  C   UNL     1       0.204  -1.975  -0.071  0.00  0.00    -0.015 C 
ATOM     20  C   UNL     1       0.843  -3.301  -0.518  0.00  0.00    +0.007 C 
ATOM     21  C   UNL     1      -1.237  -1.939  -0.577  0.00  0.00    +0.007 C 
ENDBRANCH  18  19
ENDBRANCH  11  18
ENDBRANCH   1  11
BRANCH   1  22
ATOM     22  C   UNL     1      -0.188   2.540   1.003  0.00  0.00    +0.127 C 
BRANCH  22  23
ATOM     23  C   UNL     1      -1.530   2.551   0.290  0.00  0.00    -0.033 A 
ATOM     24  C   UNL     1      -1.692   3.262  -0.917  0.00  0.00    +0.005 A 
ATOM     25  C   UNL     1      -2.900   3.250  -1.613  0.00  0.00    +0.000 A 
ATOM     26  C   UNL     1      -3.982   2.540  -1.093  0.00  0.00    +0.000 A 
ATOM     27  C   UNL     1      -3.848   1.872   0.119  0.00  0.00    +0.000 A 
ATOM     28  C   UNL     1      -2.632   1.873   0.811  0.00  0.00    +0.005 A 
ENDBRANCH  22  23
ENDBRANCH   1  22
TORSDOF 9
