REMARK  Name = 
REMARK  3 active torsions:
REMARK  status: ('A' for Active; 'I' for Inactive)
REMARK    1  A    between atoms: C_1  and  N_2
REMARK    2  A    between atoms: C_4  and  C_12
REMARK    3  A    between atoms: C_6  and  N_7
REMARK                            x       y       z     vdW  Elec       q    Type
REMARK                         _______ _______ _______ _____ _____    ______ ____
ROOT
ATOM      1  C   UNL     1       1.229   0.027   0.058  0.00  0.00    +0.174 C 
ATOM      2  N   UNL     1       2.670  -0.022   0.067  0.00  0.00    -0.249 N 
ATOM      3  C   UNL     1       3.421  -1.160   0.072  0.00  0.00    +0.164 A 
ATOM      4  C   UNL     1       4.743  -0.748   0.104  0.00  0.00    +0.086 A 
ATOM      5  C   UNL     1       5.699  -1.775   0.164  0.00  0.00    +0.131 A 
ATOM      6  N   UNL     1       5.283  -3.058   0.129  0.00  0.00    -0.220 NA
ATOM      7  C   UNL     1       3.964  -3.309   0.067  0.00  0.00    +0.225 A 
ATOM      8  C   UNL     1       4.679   0.690   0.046  0.00  0.00    +0.105 A 
ATOM      9  N   UNL     1       2.959  -2.422   0.054  0.00  0.00    -0.216 NA
ATOM     10  N   UNL     1       3.397   1.112   0.071  0.00  0.00    -0.169 NA
ENDROOT
BRANCH   8  11
ATOM     11  C   UNL     1       5.776   1.665  -0.051  0.00  0.00    +0.003 A 
ATOM     12  C   UNL     1       6.976   1.322  -0.681  0.00  0.00    +0.011 A 
ATOM     13  C   UNL     1       8.055   2.204  -0.711  0.00  0.00    +0.009 A 
ATOM     14  C   UNL     1       7.930   3.495  -0.201  0.00  0.00    -0.018 A 
ATOM     15  C   UNL     1       6.696   3.907   0.350  0.00  0.00    -0.017 A 
ATOM     16  C   UNL     1       6.559   5.243   0.767  0.00  0.00    +0.008 A 
ATOM     17  C   UNL     1       7.621   6.145   0.645  0.00  0.00    +0.001 A 
ATOM     18  C   UNL     1       8.847   5.717   0.142  0.00  0.00    +0.001 A 
ATOM     19  C   UNL     1       9.002   4.396  -0.269  0.00  0.00    +0.008 A 
ATOM     20  C   UNL     1       5.640   2.973   0.446  0.00  0.00    +0.018 A 
ENDBRANCH   8  11
BRANCH   5  21
ATOM     21  N   UNL     1       7.072  -1.602   0.287  0.00  0.00    -0.342 N 
ATOM     22  H   UNL     1       7.511  -2.490   0.505  0.00  0.00    +0.144 HD
ATOM     23  H   UNL     1       7.337  -0.834   0.893  0.00  0.00    +0.144 HD
ENDBRANCH   5  21
TORSDOF 2
