REMARK  Name = 
REMARK  5 active torsions:
REMARK  status: ('A' for Active; 'I' for Inactive)
REMARK    1  A    between atoms: C_1  and  S_2
REMARK    2  A    between atoms: S_2  and  C_4
REMARK    3  A    between atoms: C_7  and  C_10
REMARK    4  A    between atoms: C_12  and  C_21
REMARK    5  A    between atoms: C_13  and  C_15
REMARK                            x       y       z     vdW  Elec       q    Type
REMARK                         _______ _______ _______ _____ _____    ______ ____
ROOT
ATOM      1  C   UNL     1       5.409  -0.461   5.594  0.00  0.00    +0.139 A 
ATOM      2  N   UNL     1       5.599  -1.607   6.325  0.00  0.00    -0.337 N 
ATOM      3  H   UNL     1       5.222  -2.511   6.083  0.00  0.00    +0.167 HD
ATOM      4  C   UNL     1       6.372  -1.338   7.438  0.00  0.00    +0.074 A 
ATOM      5  C   UNL     1       6.606   0.030   7.332  0.00  0.00    +0.097 A 
ATOM      6  N   UNL     1       5.988   0.545   6.211  0.00  0.00    -0.227 NA
ENDROOT
BRANCH   5   7
ATOM      7  C   UNL     1       7.337   0.915   8.233  0.00  0.00    +0.003 A 
ATOM      8  C   UNL     1       8.470   0.506   8.949  0.00  0.00    +0.013 A 
ATOM      9  C   UNL     1       9.056   1.354   9.895  0.00  0.00    +0.039 A 
ATOM     10  C   UNL     1       8.552   2.636  10.074  0.00  0.00    +0.123 A 
ATOM     11  F   UNL     1       9.103   3.439  10.994  0.00  0.00    -0.205 F 
ATOM     12  C   UNL     1       7.488   3.096   9.311  0.00  0.00    +0.039 A 
ATOM     13  C   UNL     1       6.883   2.236   8.393  0.00  0.00    +0.013 A 
ENDBRANCH   5   7
BRANCH   1  17
ATOM     14  C   UNL     1       3.572  -0.133   1.727  0.00  0.00    +0.039 A 
ATOM     15  C   UNL     1       3.624  -1.374   2.368  0.00  0.00    +0.018 A 
ATOM     16  C   UNL     1       4.185  -1.496   3.645  0.00  0.00    +0.012 A 
ATOM     17  C   UNL     1       4.710  -0.378   4.301  0.00  0.00    +0.017 A 
ATOM     18  C   UNL     1       4.601   0.874   3.676  0.00  0.00    +0.012 A 
ATOM     19  C   UNL     1       4.032   0.999   2.405  0.00  0.00    +0.018 A 
BRANCH  14  21
ATOM     20  C   UNL     1       4.498   0.516  -0.743  0.00  0.00    +0.127 C 
ATOM     21  S   UNL     1       2.939   0.018   0.040  0.00  0.00    +0.051 S 
ATOM     22  O   UNL     1       2.643  -1.382  -0.414  0.00  0.00    -0.252 OA
ENDBRANCH  14  21
ENDBRANCH   1  17
BRANCH   4  23
ATOM     23  C   UNL     1       6.742  -2.393   8.396  0.00  0.00    +0.003 A 
ATOM     24  C   UNL     1       6.970  -3.704   7.966  0.00  0.00    +0.030 A 
ATOM     25  C   UNL     1       7.393  -4.653   8.886  0.00  0.00    +0.111 A 
ATOM     26  N   UNL     1       7.615  -4.387  10.188  0.00  0.00    -0.263 NA
ATOM     27  C   UNL     1       7.367  -3.127  10.595  0.00  0.00    +0.111 A 
ATOM     28  C   UNL     1       6.905  -2.123   9.757  0.00  0.00    +0.030 A 
ENDBRANCH   4  23
TORSDOF 4
