REMARK  Name = 
REMARK  3 active torsions:
REMARK  status: ('A' for Active; 'I' for Inactive)
REMARK    1  A    between atoms: C_1  and  C_2
REMARK    2  A    between atoms: C_3  and  C_14
REMARK    3  A    between atoms: C_11  and  N_12
REMARK                            x       y       z     vdW  Elec       q    Type
REMARK                         _______ _______ _______ _____ _____    ______ ____
ROOT
ATOM      1  C   UNL     1       0.748  -0.024   0.316  0.00  0.00    +0.045 C 
ATOM      2  C   UNL     1       2.238   0.009   0.062  0.00  0.00    -0.030 A 
ATOM      3  C   UNL     1       2.964  -1.255   0.038  0.00  0.00    +0.044 A 
ATOM      4  C   UNL     1       4.352  -1.235   0.186  0.00  0.00    +0.078 A 
ATOM      5  N   UNL     1       5.108  -2.330   0.316  0.00  0.00    -0.215 NA
ATOM      6  C   UNL     1       4.497  -3.511   0.253  0.00  0.00    +0.215 A 
ATOM      7  N   UNL     1       3.218  -3.678  -0.028  0.00  0.00    -0.199 NA
ATOM      8  N   UNL     1       5.265  -4.640   0.441  0.00  0.00    -0.327 N 
ATOM      9  H   UNL     1       4.834  -5.422  -0.033  0.00  0.00    +0.145 HD
ATOM     10  H   UNL     1       6.232  -4.439   0.222  0.00  0.00    +0.145 HD
ATOM     11  C   UNL     1       5.007  -0.022   0.178  0.00  0.00    +0.029 A 
ATOM     12  C   UNL     1       4.324   1.187   0.002  0.00  0.00    +0.011 A 
ATOM     13  C   UNL     1       2.469  -2.567  -0.142  0.00  0.00    +0.129 A 
ATOM     14  C   UNL     1       2.923   1.249  -0.058  0.00  0.00    -0.014 A 
ENDROOT
BRANCH  14  15
ATOM     15  C   UNL     1       2.265   2.578  -0.262  0.00  0.00    -0.018 A 
ATOM     16  C   UNL     1       1.094   2.723  -1.032  0.00  0.00    +0.008 A 
ATOM     17  C   UNL     1       0.479   3.966  -1.227  0.00  0.00    +0.001 A 
ATOM     18  C   UNL     1       1.054   5.118  -0.708  0.00  0.00    +0.000 A 
ATOM     19  C   UNL     1       2.237   5.021   0.019  0.00  0.00    +0.001 A 
ATOM     20  C   UNL     1       2.819   3.768   0.254  0.00  0.00    +0.008 A 
ENDBRANCH  14  15
BRANCH  13  21
ATOM     21  N   UNL     1       1.179  -2.839  -0.602  0.00  0.00    -0.343 N 
ATOM     22  H   UNL     1       0.450  -2.470  -0.015  0.00  0.00    +0.144 HD
ATOM     23  H   UNL     1       1.105  -3.853  -0.677  0.00  0.00    +0.144 HD
ENDBRANCH  13  21
TORSDOF 2
