REMARK  Name = 
REMARK  6 active torsions:
REMARK  status: ('A' for Active; 'I' for Inactive)
REMARK    1  A    between atoms: O_1  and  C_2
REMARK    2  A    between atoms: C_6  and  O_7
REMARK    3  A    between atoms: C_12  and  C_14
REMARK    4  A    between atoms: C_16  and  O_17
REMARK    5  A    between atoms: C_18  and  O_19
REMARK    6  A    between atoms: C_20  and  O_21
REMARK                            x       y       z     vdW  Elec       q    Type
REMARK                         _______ _______ _______ _____ _____    ______ ____
ROOT
ATOM      1  C   UNL     1       2.398  -0.000   0.061  0.00  0.00    +0.124 A 
ATOM      2  C   UNL     1       3.020  -1.246   0.064  0.00  0.00    +0.091 A 
ATOM      3  C   UNL     1       4.408  -1.315   0.061  0.00  0.00    +0.135 A 
ATOM      4  C   UNL     1       5.166  -0.138   0.057  0.00  0.00    +0.105 A 
ATOM      5  C   UNL     1       6.630  -0.180   0.045  0.00  0.00    +0.197 A 
ATOM      6  C   UNL     1       7.334   1.105   0.041  0.00  0.00    +0.098 A 
ATOM      7  C   UNL     1       6.631   2.248   0.069  0.00  0.00    +0.139 A 
ATOM      8  O   UNL     1       5.239   2.297   0.062  0.00  0.00    -0.454 OA
ATOM      9  O   UNL     1       7.238  -1.244   0.042  0.00  0.00    -0.287 OA
ATOM     10  C   UNL     1       4.540   1.109   0.059  0.00  0.00    +0.146 A 
ATOM     11  C   UNL     1       3.143   1.180   0.060  0.00  0.00    +0.092 A 
ENDROOT
BRANCH   7  12
ATOM     12  C   UNL     1       7.318   3.566   0.093  0.00  0.00    +0.025 A 
ATOM     13  C   UNL     1       8.572   3.712   0.720  0.00  0.00    +0.061 A 
ATOM     14  C   UNL     1       9.231   4.936   0.715  0.00  0.00    +0.163 A 
ATOM     15  C   UNL     1       8.654   6.038   0.110  0.00  0.00    +0.201 A 
ATOM     16  C   UNL     1       7.409   5.925  -0.496  0.00  0.00    +0.163 A 
ATOM     17  C   UNL     1       6.735   4.701  -0.508  0.00  0.00    +0.061 A 
BRANCH  14  18
ATOM     18  O   UNL     1      10.454   5.038   1.310  0.00  0.00    -0.503 OA
ATOM     19  H   UNL     1      10.719   5.971   1.177  0.00  0.00    +0.292 HD
ENDBRANCH  14  18
BRANCH  15  20
ATOM     20  O   UNL     1       9.326   7.229   0.121  0.00  0.00    -0.501 OA
ATOM     21  H   UNL     1       8.733   7.848  -0.353  0.00  0.00    +0.292 HD
ENDBRANCH  15  20
BRANCH  16  22
ATOM     22  O   UNL     1       6.889   7.050  -1.075  0.00  0.00    -0.503 OA
ATOM     23  H   UNL     1       6.027   6.826  -1.466  0.00  0.00    +0.292 HD
ENDBRANCH  16  22
ENDBRANCH   7  12
BRANCH   1  24
ATOM     24  O   UNL     1       1.034   0.016   0.060  0.00  0.00    -0.507 OA
ATOM     25  H   UNL     1       0.720   0.934   0.069  0.00  0.00    +0.292 HD
ENDBRANCH   1  24
BRANCH   3  26
ATOM     26  O   UNL     1       4.968  -2.563   0.067  0.00  0.00    -0.506 OA
ATOM     27  H   UNL     1       5.947  -2.463   0.070  0.00  0.00    +0.292 HD
ENDBRANCH   3  26
TORSDOF 6
