REMARK  Name = 
REMARK  19 active torsions:
REMARK  status: ('A' for Active; 'I' for Inactive)
REMARK    1  A    between atoms: C_1  and  C_2
REMARK    2  A    between atoms: C_2  and  C_3
REMARK    3  A    between atoms: C_3  and  C_4
REMARK    4  A    between atoms: C_4  and  C_5
REMARK    5  A    between atoms: C_5  and  C_6
REMARK    6  A    between atoms: C_5  and  C_7
REMARK    7  A    between atoms: C_5  and  C_8
REMARK    8  A    between atoms: C_8  and  O_10
REMARK    9  A    between atoms: C_8  and  C_11
REMARK   10  A    between atoms: C_12  and  C_13
REMARK   11  A    between atoms: C_15  and  O_17
REMARK   12  A    between atoms: C_21  and  C_23
REMARK   13  A    between atoms: C_23  and  C_24
REMARK   14  A    between atoms: C_24  and  C_25
REMARK   15  A    between atoms: C_25  and  C_26
REMARK   16  A    between atoms: C_26  and  C_27
REMARK   17  A    between atoms: C_28  and  C_29
REMARK   18  A    between atoms: C_29  and  O_31
REMARK   19  A    between atoms: O_31  and  C_32
REMARK                            x       y       z     vdW  Elec       q    Type
REMARK                         _______ _______ _______ _____ _____    ______ ____
ROOT
ATOM      1  C   UNL     1       8.887   2.795  -5.385  0.00  0.00    +0.051 C 
ATOM      2  C   UNL     1      10.394   2.514  -5.626  0.00  0.00    +0.065 C 
ATOM      3  C   UNL     1      10.828   3.817  -6.281  0.00  0.00    +0.140 C 
ATOM      4  O   UNL     1      11.938   4.027  -6.748  0.00  0.00    -0.297 OA
ATOM      5  C   UNL     1       9.744   4.853  -6.307  0.00  0.00    +0.106 C 
ATOM      6  C   UNL     1       8.803   4.325  -5.243  0.00  0.00    +0.129 C 
ENDROOT
BRANCH   1   8
ATOM      7  C   UNL     1       8.347   2.375  -2.944  0.00  0.00    +0.001 C 
ATOM      8  C   UNL     1       8.353   1.986  -4.232  0.00  0.00    -0.022 C 
BRANCH   7   9
ATOM      9  C   UNL     1       8.016   1.456  -1.805  0.00  0.00    +0.143 C 
BRANCH   9  10
ATOM     10  C   UNL     1       8.002   2.085  -0.369  0.00  0.00    -0.005 C 
ATOM     11  C   UNL     1       9.398   2.615   0.033  0.00  0.00    +0.014 C 
ATOM     12  C   UNL     1       7.015   3.276  -0.308  0.00  0.00    +0.014 C 
BRANCH  10  13
ATOM     13  C   UNL     1       7.515   1.030   0.687  0.00  0.00    +0.009 C 
BRANCH  13  14
ATOM     14  C   UNL     1       8.336  -0.262   0.759  0.00  0.00    +0.000 C 
BRANCH  14  16
ATOM     15  C   UNL     1       8.703  -2.512   1.749  0.00  0.00    +0.004 C 
ATOM     16  C   UNL     1       7.829  -1.264   1.788  0.00  0.00    -0.003 C 
ENDBRANCH  14  16
ENDBRANCH  13  14
ENDBRANCH  10  13
ENDBRANCH   9  10
BRANCH   9  17
ATOM     17  O   UNL     1       9.028   0.450  -1.879  0.00  0.00    -0.387 OA
ATOM     18  H   UNL     1       8.821  -0.109  -2.645  0.00  0.00    +0.210 HD
ENDBRANCH   9  17
ENDBRANCH   7   9
ENDBRANCH   1   8
BRANCH   6  19
ATOM     19  O   UNL     1       7.483   4.809  -5.449  0.00  0.00    -0.391 OA
ATOM     20  H   UNL     1       7.115   4.403  -6.252  0.00  0.00    +0.210 HD
ENDBRANCH   6  19
BRANCH   2  21
ATOM     21  C   UNL     1      10.606   1.279  -6.509  0.00  0.00    +0.012 C 
BRANCH  21  22
ATOM     22  C   UNL     1      12.077   0.984  -6.834  0.00  0.00    +0.001 C 
BRANCH  22  23
ATOM     23  C   UNL     1      12.269  -0.236  -7.742  0.00  0.00    +0.004 C 
BRANCH  23  24
ATOM     24  C   UNL     1      11.567  -0.083  -9.094  0.00  0.00    +0.027 C 
BRANCH  24  25
ATOM     25  C   UNL     1      11.811  -1.267  -9.975  0.00  0.00    -0.020 C 
ATOM     26  C   UNL     1      12.362  -1.187 -11.197  0.00  0.00    +0.087 C 
BRANCH  26  27
ATOM     27  C   UNL     1      12.536  -2.412 -12.004  0.00  0.00    +0.331 C 
ATOM     28  O   UNL     1      12.216  -3.539 -11.656  0.00  0.00    -0.246 OA
BRANCH  27  29
ATOM     29  O   UNL     1      13.100  -2.061 -13.185  0.00  0.00    -0.465 OA
ATOM     30  C   UNL     1      13.313  -3.173 -14.053  0.00  0.00    +0.280 C 
ENDBRANCH  27  29
ENDBRANCH  26  27
ENDBRANCH  24  25
ENDBRANCH  23  24
ENDBRANCH  22  23
ENDBRANCH  21  22
ENDBRANCH   2  21
TORSDOF 15
