REMARK  Name = 
REMARK  7 active torsions:
REMARK  status: ('A' for Active; 'I' for Inactive)
REMARK    1  A    between atoms: C_1  and  C_2
REMARK    2  A    between atoms: C_2  and  C_3
REMARK    3  A    between atoms: C_2  and  C_4
REMARK    4  A    between atoms: C_2  and  N_5
REMARK    5  A    between atoms: C_8  and  N_9
REMARK    6  A    between atoms: C_10  and  C_12
REMARK    7  A    between atoms: C_12  and  C_14
REMARK                            x       y       z     vdW  Elec       q    Type
REMARK                         _______ _______ _______ _____ _____    ______ ____
ROOT
ATOM      1  N   UNL     1       3.325   0.777  -1.040  0.00  0.00    -0.319 N 
ATOM      2  H   UNL     1       2.957  -0.126  -0.757  0.00  0.00    +0.148 HD
ATOM      3  C   UNL     1       4.669   0.747  -1.240  0.00  0.00    +0.161 A 
ATOM      4  S   UNL     1       5.521  -0.736  -1.003  0.00  0.00    -0.047 S 
ATOM      5  C   UNL     1       6.916  -0.034  -1.715  0.00  0.00    +0.102 A 
ATOM      6  C   UNL     1       6.694   1.318  -1.861  0.00  0.00    +0.136 A 
ATOM      7  N   UNL     1       5.417   1.748  -1.638  0.00  0.00    -0.210 NA
ENDROOT
BRANCH   1   9
ATOM      8  C   UNL     1       2.636   0.885  -3.421  0.00  0.00    +0.031 C 
ATOM      9  C   UNL     1       2.443   1.459  -2.007  0.00  0.00    +0.025 C 
ATOM     10  C   UNL     1       0.987   1.173  -1.575  0.00  0.00    +0.031 C 
ATOM     11  C   UNL     1       2.651   2.977  -2.000  0.00  0.00    +0.031 C 
ENDBRANCH   1   9
BRANCH   6  12
ATOM     12  N   UNL     1       7.584   2.246  -2.246  0.00  0.00    -0.342 N 
ATOM     13  H   UNL     1       8.585   2.098  -2.170  0.00  0.00    +0.144 HD
ATOM     14  H   UNL     1       7.313   3.217  -2.122  0.00  0.00    +0.144 HD
ENDBRANCH   6  12
BRANCH   5  15
ATOM     15  C   UNL     1       8.051  -0.868  -2.047  0.00  0.00    +0.203 C 
ATOM     16  O   UNL     1       8.404  -1.841  -1.382  0.00  0.00    -0.286 OA
BRANCH  15  17
ATOM     17  C   UNL     1       8.841  -0.553  -3.279  0.00  0.00    +0.023 A 
ATOM     18  C   UNL     1      10.202  -0.879  -3.314  0.00  0.00    +0.012 A 
ATOM     19  C   UNL     1      10.976  -0.549  -4.429  0.00  0.00    +0.001 A 
ATOM     20  C   UNL     1      10.394   0.100  -5.517  0.00  0.00    +0.000 A 
ATOM     21  C   UNL     1       9.033   0.392  -5.507  0.00  0.00    +0.001 A 
ATOM     22  C   UNL     1       8.253   0.051  -4.401  0.00  0.00    +0.012 A 
ENDBRANCH  15  17
ENDBRANCH   5  15
TORSDOF 4
