REMARK  Name = 
REMARK  16 active torsions:
REMARK  status: ('A' for Active; 'I' for Inactive)
REMARK    1  A    between atoms: C_1  and  C_2
REMARK    2  A    between atoms: C_2  and  C_3
REMARK    3  A    between atoms: C_3  and  C_4
REMARK    4  A    between atoms: C_4  and  C_5
REMARK    5  A    between atoms: C_5  and  C_6
REMARK    6  A    between atoms: C_6  and  C_7
REMARK    7  A    between atoms: C_7  and  C_8
REMARK    8  A    between atoms: C_8  and  C_9
REMARK    9  A    between atoms: C_12  and  C_13
REMARK   10  A    between atoms: C_13  and  C_14
REMARK   11  A    between atoms: C_14  and  C_15
REMARK   12  A    between atoms: C_15  and  N_16
REMARK   13  A    between atoms: C_15  and  C_17
REMARK   14  A    between atoms: C_15  and  C_19
REMARK   15  A    between atoms: C_17  and  O_18
REMARK   16  A    between atoms: C_19  and  O_20
REMARK                            x       y       z     vdW  Elec       q    Type
REMARK                         _______ _______ _______ _____ _____    ______ ____
ROOT
ATOM      1  C   UNL     1       9.157   0.050   5.659  0.00  0.00    -0.047 A 
ATOM      2  C   UNL     1       9.438  -1.149   6.321  0.00  0.00    +0.004 A 
ATOM      3  C   UNL     1      10.017  -1.134   7.593  0.00  0.00    +0.004 A 
ATOM      4  C   UNL     1      10.322   0.079   8.227  0.00  0.00    -0.047 A 
ATOM      5  C   UNL     1      10.024   1.274   7.558  0.00  0.00    +0.004 A 
ATOM      6  C   UNL     1       9.430   1.259   6.301  0.00  0.00    +0.004 A 
ENDROOT
BRANCH   1   7
ATOM      7  C   UNL     1       8.604   0.058   4.261  0.00  0.00    +0.035 C 
BRANCH   7   8
ATOM      8  C   UNL     1       9.563   0.745   3.285  0.00  0.00    +0.005 C 
BRANCH   8   9
ATOM      9  C   UNL     1       8.988   0.756   1.876  0.00  0.00    +0.000 C 
BRANCH   9  10
ATOM     10  C   UNL     1       9.925   1.472   0.908  0.00  0.00    +0.000 C 
BRANCH  10  11
ATOM     11  C   UNL     1       9.333   1.477  -0.497  0.00  0.00    -0.000 C 
BRANCH  11  12
ATOM     12  C   UNL     1      10.258   2.182  -1.485  0.00  0.00    -0.000 C 
BRANCH  12  14
ATOM     13  C   UNL     1      10.575   2.876  -3.878  0.00  0.00    +0.004 C 
ATOM     14  C   UNL     1       9.659   2.178  -2.888  0.00  0.00    -0.003 C 
ENDBRANCH  12  14
ENDBRANCH  11  12
ENDBRANCH  10  11
ENDBRANCH   9  10
ENDBRANCH   8   9
ENDBRANCH   7   8
ENDBRANCH   1   7
BRANCH   4  15
ATOM     15  C   UNL     1      11.056   0.066   9.550  0.00  0.00    +0.037 C 
BRANCH  15  16
ATOM     16  C   UNL     1      10.779   1.290  10.437  0.00  0.00    +0.031 C 
BRANCH  16  17
ATOM     17  C   UNL     1      11.485   1.361  11.814  0.00  0.00    +0.063 C 
BRANCH  17  18
ATOM     18  N   UNL     1      11.123   0.201  12.669  0.00  0.00    -0.321 NA
ATOM     19  H   UNL     1      10.107   0.179  12.781  0.00  0.00    +0.119 HD
ATOM     20  H   UNL     1      11.345  -0.664  12.174  0.00  0.00    +0.119 HD
ENDBRANCH  17  18
BRANCH  17  21
ATOM     21  C   UNL     1      10.981   2.656  12.519  0.00  0.00    +0.180 C 
BRANCH  21  22
ATOM     22  O   UNL     1      11.518   2.768  13.833  0.00  0.00    -0.393 OA
ATOM     23  H   UNL     1      11.488   1.862  14.195  0.00  0.00    +0.209 HD
ENDBRANCH  21  22
ENDBRANCH  17  21
BRANCH  17  24
ATOM     24  C   UNL     1      13.031   1.445  11.680  0.00  0.00    +0.180 C 
BRANCH  24  25
ATOM     25  O   UNL     1      13.586   0.258  11.124  0.00  0.00    -0.393 OA
ATOM     26  H   UNL     1      13.441  -0.443  11.779  0.00  0.00    +0.209 HD
ENDBRANCH  24  25
ENDBRANCH  17  24
ENDBRANCH  16  17
ENDBRANCH  15  16
ENDBRANCH   4  15
TORSDOF 15
