REMARK  Name = 
REMARK  8 active torsions:
REMARK  status: ('A' for Active; 'I' for Inactive)
REMARK    1  A    between atoms: C_1  and  C_2
REMARK    2  A    between atoms: C_2  and  N_3
REMARK    3  A    between atoms: N_7  and  C_8
REMARK    4  A    between atoms: C_8  and  C_9
REMARK    5  A    between atoms: C_8  and  C_10
REMARK    6  A    between atoms: C_8  and  C_11
REMARK    7  A    between atoms: C_13  and  S_14
REMARK    8  A    between atoms: S_14  and  C_15
REMARK                            x       y       z     vdW  Elec       q    Type
REMARK                         _______ _______ _______ _____ _____    ______ ____
ROOT
ATOM      1  N   UNL     1       3.108   0.739   1.171  0.00  0.00    -0.314 N 
ATOM      2  H   UNL     1       2.738   1.639   0.881  0.00  0.00    +0.149 HD
ATOM      3  C   UNL     1       4.479   0.902   1.289  0.00  0.00    +0.220 A 
ATOM      4  N   UNL     1       5.289  -0.141   1.341  0.00  0.00    -0.189 NA
ATOM      5  C   UNL     1       6.573   0.163   1.494  0.00  0.00    +0.194 A 
ATOM      6  N   UNL     1       7.074   1.393   1.574  0.00  0.00    -0.189 NA
ATOM      7  C   UNL     1       6.182   2.366   1.500  0.00  0.00    +0.221 A 
ATOM      8  N   UNL     1       6.689   3.651   1.586  0.00  0.00    -0.309 N 
ATOM      9  H   UNL     1       7.697   3.563   1.499  0.00  0.00    +0.149 HD
ATOM     10  N   UNL     1       4.884   2.160   1.352  0.00  0.00    -0.181 NA
ENDROOT
BRANCH   8  11
ATOM     11  C   UNL     1       6.095   4.760   0.828  0.00  0.00    +0.026 C 
ATOM     12  C   UNL     1       6.037   4.445  -0.675  0.00  0.00    +0.031 C 
ATOM     13  C   UNL     1       7.019   5.979   1.027  0.00  0.00    +0.031 C 
ATOM     14  C   UNL     1       4.706   5.142   1.366  0.00  0.00    +0.031 C 
ENDBRANCH   8  11
BRANCH   1  16
ATOM     15  C   UNL     1       1.140  -0.419   0.378  0.00  0.00    +0.024 C 
ATOM     16  C   UNL     1       2.661  -0.403   0.400  0.00  0.00    +0.101 C 
ENDBRANCH   1  16
BRANCH   5  17
ATOM     17  S   UNL     1       7.760  -1.164   1.534  0.00  0.00    -0.089 S 
ATOM     18  C   UNL     1       6.746  -2.468   2.272  0.00  0.00    +0.093 C 
ENDBRANCH   5  17
TORSDOF 3
