REMARK  Name = 
REMARK  6 active torsions:
REMARK  status: ('A' for Active; 'I' for Inactive)
REMARK    1  A    between atoms: C_1  and  C_2
REMARK    2  A    between atoms: C_2  and  C_3
REMARK    3  A    between atoms: C_2  and  C_4
REMARK    4  A    between atoms: N_9  and  C_10
REMARK    5  A    between atoms: C_10  and  C_12
REMARK    6  A    between atoms: C_12  and  C_13
REMARK                            x       y       z     vdW  Elec       q    Type
REMARK                         _______ _______ _______ _____ _____    ______ ____
ROOT
ATOM      1  C   UNL     1       2.793  -0.514  -1.314  0.00  0.00    +0.011 A 
ATOM      2  S   UNL     1       2.340  -2.214  -1.435  0.00  0.00    -0.057 S 
ATOM      3  C   UNL     1       3.304  -2.398  -2.923  0.00  0.00    +0.163 A 
ATOM      4  N   UNL     1       3.700  -3.495  -3.476  0.00  0.00    -0.156 NA
ATOM      5  N   UNL     1       3.611  -1.132  -3.367  0.00  0.00    -0.342 N 
ATOM      6  H   UNL     1       4.322  -1.026  -4.077  0.00  0.00    +0.167 HD
ATOM      7  C   UNL     1       3.420  -0.130  -2.440  0.00  0.00    +0.095 A 
ENDROOT
BRANCH   1   9
ATOM      8  C   UNL     1       3.646   0.014   0.958  0.00  0.00    +0.013 C 
ATOM      9  C   UNL     1       2.510   0.236  -0.046  0.00  0.00    +0.021 C 
ATOM     10  C   UNL     1       2.274   1.731  -0.262  0.00  0.00    +0.013 C 
ENDBRANCH   1   9
BRANCH   4  11
ATOM     11  C   UNL     1       3.498  -4.686  -2.814  0.00  0.00    +0.243 C 
ATOM     12  O   UNL     1       3.598  -4.846  -1.598  0.00  0.00    -0.273 OA
BRANCH  11  13
ATOM     13  C   UNL     1       3.324  -5.889  -3.717  0.00  0.00    +0.134 C 
BRANCH  13  14
ATOM     14  C   UNL     1       4.629  -6.604  -3.951  0.00  0.00    -0.020 A 
ATOM     15  C   UNL     1       5.410  -7.053  -2.886  0.00  0.00    +0.114 A 
ATOM     16  N   UNL     1       6.599  -7.677  -3.027  0.00  0.00    -0.263 NA
ATOM     17  C   UNL     1       7.036  -7.870  -4.288  0.00  0.00    +0.111 A 
ATOM     18  C   UNL     1       6.329  -7.481  -5.414  0.00  0.00    +0.020 A 
ATOM     19  C   UNL     1       5.106  -6.841  -5.241  0.00  0.00    +0.007 A 
ENDBRANCH  13  14
ENDBRANCH  11  13
ENDBRANCH   4  11
TORSDOF 4
