REMARK  Name = 
REMARK  10 active torsions:
REMARK  status: ('A' for Active; 'I' for Inactive)
REMARK    1  A    between atoms: C_4  and  C_5
REMARK    2  A    between atoms: C_10  and  C_11
REMARK    3  A    between atoms: C_12  and  C_18
REMARK    4  A    between atoms: C_19  and  C_20
REMARK    5  A    between atoms: C_21  and  C_22
REMARK    6  A    between atoms: C_22  and  C_23
REMARK    7  A    between atoms: C_22  and  O_24
REMARK    8  A    between atoms: C_22  and  C_25
REMARK    9  A    between atoms: C_27  and  O_28
REMARK   10  A    between atoms: C_31  and  O_32
REMARK                            x       y       z     vdW  Elec       q    Type
REMARK                         _______ _______ _______ _____ _____    ______ ____
ROOT
ATOM      1  C   UNL     1      -0.000  -0.000  -0.000  0.00  0.00    -0.000 C 
ATOM      2  C   UNL     1      -0.000  -0.000  -0.000  0.00  0.00    -0.066 C 
ATOM      3  C   UNL     1      -0.000  -0.000   0.000  0.00  0.00    +0.022 C 
ATOM      4  C   UNL     1      -0.000  -0.000   0.000  0.00  0.00    -0.012 C 
ATOM      5  C   UNL     1      -0.000  -0.000  -0.000  0.00  0.00    +0.071 C 
ATOM      6  C   UNL     1      -0.000  -0.000  -0.000  0.00  0.00    +0.017 C 
ATOM      7  C   UNL     1      -0.000  -0.000   0.000  0.00  0.00    +0.013 C 
ATOM      8  C   UNL     1      -0.000  -0.000   0.000  0.00  0.00    +0.009 C 
ATOM      9  C   UNL     1      -0.000  -0.000   0.000  0.00  0.00    +0.005 C 
ATOM     10  C   UNL     1      -0.000  -0.000   0.000  0.00  0.00    +0.009 C 
ATOM     11  C   UNL     1      -0.000  -0.000   0.000  0.00  0.00    +0.031 C 
ENDROOT
BRANCH   1  19
ATOM     12  C   UNL     1       0.000   0.000  -0.000  0.00  0.00    +0.015 C 
ATOM     13  C   UNL     1      -0.000  -0.000  -0.000  0.00  0.00    -0.023 C 
ATOM     14  C   UNL     1      -0.000  -0.000   0.000  0.00  0.00    +0.147 C 
ATOM     15  C   UNL     1      -0.000  -0.000  -0.000  0.00  0.00    +0.067 C 
ATOM     16  C   UNL     1      -0.000  -0.000   0.000  0.00  0.00    +0.122 C 
ATOM     17  C   UNL     1      -0.000  -0.000  -0.000  0.00  0.00    +0.067 C 
ATOM     18  C   UNL     1      -0.000  -0.000   0.000  0.00  0.00    -0.040 C 
ATOM     19  C   UNL     1      -0.000  -0.000   0.000  0.00  0.00    +0.004 C 
BRANCH  14  20
ATOM     20  O   UNL     1      -0.000  -0.000   0.000  0.00  0.00    -0.387 OA
ATOM     21  H   UNL     1      -0.000  -0.000  -0.000  0.00  0.00    +0.210 HD
ENDBRANCH  14  20
BRANCH  16  22
ATOM     22  O   UNL     1      -0.000  -0.000   0.000  0.00  0.00    -0.391 OA
ATOM     23  H   UNL     1      -0.000  -0.000  -0.000  0.00  0.00    +0.210 HD
ENDBRANCH  16  22
ENDBRANCH   1  19
BRANCH   5  24
ATOM     24  C   UNL     1      -0.000  -0.000  -0.000  0.00  0.00    -0.084 C 
ATOM     25  C   UNL     1      -0.000  -0.000  -0.000  0.00  0.00    -0.014 C 
BRANCH  25  26
ATOM     26  C   UNL     1      -0.000  -0.000  -0.000  0.00  0.00    -0.012 C 
ATOM     27  C   UNL     1      -0.000  -0.000  -0.000  0.00  0.00    -0.054 C 
BRANCH  27  28
ATOM     28  C   UNL     1      -0.000  -0.000  -0.000  0.00  0.00    +0.122 C 
ATOM     29  C   UNL     1      -0.000  -0.000  -0.000  0.00  0.00    +0.055 C 
ATOM     30  C   UNL     1      -0.000  -0.000  -0.000  0.00  0.00    +0.055 C 
BRANCH  28  31
ATOM     31  O   UNL     1      -0.000  -0.000  -0.000  0.00  0.00    -0.377 OA
ATOM     32  H   UNL     1       0.000   0.000   0.000  0.00  0.00    +0.211 HD
ENDBRANCH  28  31
ENDBRANCH  27  28
ENDBRANCH  25  26
ENDBRANCH   5  24
TORSDOF 7
