REMARK  Name = 
REMARK  10 active torsions:
REMARK  status: ('A' for Active; 'I' for Inactive)
REMARK    1  A    between atoms: C_1  and  C_2
REMARK    2  A    between atoms: C_2  and  C_3
REMARK    3  A    between atoms: C_3  and  C_4
REMARK    4  A    between atoms: C_4  and  C_5
REMARK    5  A    between atoms: C_5  and  C_6
REMARK    6  A    between atoms: C_6  and  C_7
REMARK    7  A    between atoms: C_7  and  C_8
REMARK    8  A    between atoms: C_8  and  C_9
REMARK    9  A    between atoms: C_9  and  C_10
REMARK   10  A    between atoms: C_19  and  O_20
REMARK                            x       y       z     vdW  Elec       q    Type
REMARK                         _______ _______ _______ _____ _____    ______ ____
ROOT
ATOM      1  C   UNL     1      10.571  -4.849   2.972  0.00  0.00    +0.199 A 
ATOM      2  C   UNL     1      11.287  -4.172   3.962  0.00  0.00    +0.120 A 
ATOM      3  C   UNL     1      12.671  -4.200   3.958  0.00  0.00    +0.136 A 
ATOM      4  C   UNL     1      13.390  -4.916   2.984  0.00  0.00    +0.089 A 
ATOM      5  C   UNL     1      12.653  -5.584   1.969  0.00  0.00    +0.230 A 
ATOM      6  C   UNL     1      13.342  -6.314   0.976  0.00  0.00    +0.080 A 
ATOM      7  C   UNL     1      14.730  -6.406   0.978  0.00  0.00    +0.007 A 
ATOM      8  C   UNL     1      15.457  -5.765   1.971  0.00  0.00    +0.001 A 
ATOM      9  C   UNL     1      14.800  -5.027   2.961  0.00  0.00    +0.018 A 
ATOM     10  N   UNL     1      11.238  -5.535   1.960  0.00  0.00    -0.167 N 
ATOM     11  O   UNL     1      10.571  -6.123   1.036  0.00  0.00    -0.619 OA
ENDROOT
BRANCH   3  12
ATOM     12  O   UNL     1      13.257  -3.492   4.971  0.00  0.00    -0.506 OA
ATOM     13  H   UNL     1      14.201  -3.367   4.789  0.00  0.00    +0.292 HD
ENDBRANCH   3  12
BRANCH   1  14
ATOM     14  C   UNL     1       9.072  -4.853   2.974  0.00  0.00    +0.108 C 
BRANCH  14  15
ATOM     15  C   UNL     1       8.500  -3.657   2.211  0.00  0.00    +0.011 C 
BRANCH  15  16
ATOM     16  C   UNL     1       6.971  -3.634   2.231  0.00  0.00    +0.001 C 
BRANCH  16  17
ATOM     17  C   UNL     1       6.416  -3.520   3.650  0.00  0.00    +0.000 C 
BRANCH  17  18
ATOM     18  C   UNL     1       4.894  -3.497   3.664  0.00  0.00    +0.000 C 
BRANCH  18  19
ATOM     19  C   UNL     1       4.384  -3.425   5.101  0.00  0.00    -0.000 C 
BRANCH  19  20
ATOM     20  C   UNL     1       2.860  -3.419   5.134  0.00  0.00    -0.000 C 
BRANCH  20  22
ATOM     21  C   UNL     1       0.819  -3.325   6.584  0.00  0.00    +0.004 C 
ATOM     22  C   UNL     1       2.338  -3.335   6.564  0.00  0.00    -0.003 C 
ENDBRANCH  20  22
ENDBRANCH  19  20
ENDBRANCH  18  19
ENDBRANCH  17  18
ENDBRANCH  16  17
ENDBRANCH  15  16
ENDBRANCH  14  15
ENDBRANCH   1  14
TORSDOF 9
