REMARK  Name = 
REMARK  6 active torsions:
REMARK  status: ('A' for Active; 'I' for Inactive)
REMARK    1  A    between atoms: O_1  and  C_2
REMARK    2  A    between atoms: C_4  and  C_5
REMARK    3  A    between atoms: C_6  and  C_7
REMARK    4  A    between atoms: C_10  and  O_11
REMARK    5  A    between atoms: C_12  and  O_13
REMARK    6  A    between atoms: C_16  and  O_17
REMARK                            x       y       z     vdW  Elec       q    Type
REMARK                         _______ _______ _______ _____ _____    ______ ____
ROOT
ATOM      1  C   UNL     1       5.199   2.419  -0.055  0.00  0.00    +0.009 C 
ATOM      2  C   UNL     1       6.531   2.568   0.022  0.00  0.00    +0.008 C 
ENDROOT
BRANCH   1   7
ATOM      3  C   UNL     1       2.516  -0.141   0.579  0.00  0.00    +0.121 A 
ATOM      4  C   UNL     1       3.066  -1.295   0.037  0.00  0.00    +0.090 A 
ATOM      5  C   UNL     1       4.331  -1.238  -0.530  0.00  0.00    +0.121 A 
ATOM      6  C   UNL     1       5.052  -0.044  -0.558  0.00  0.00    +0.053 A 
ATOM      7  C   UNL     1       4.504   1.121   0.003  0.00  0.00    -0.018 A 
ATOM      8  C   UNL     1       3.219   1.064   0.563  0.00  0.00    +0.053 A 
BRANCH   3   9
ATOM      9  O   UNL     1       1.266  -0.227   1.118  0.00  0.00    -0.507 OA
ATOM     10  H   UNL     1       1.008   0.646   1.456  0.00  0.00    +0.292 HD
ENDBRANCH   3   9
BRANCH   5  11
ATOM     11  O   UNL     1       4.840  -2.385  -1.067  0.00  0.00    -0.507 OA
ATOM     12  H   UNL     1       5.719  -2.197  -1.433  0.00  0.00    +0.292 HD
ENDBRANCH   5  11
ENDBRANCH   1   7
BRANCH   2  13
ATOM     13  C   UNL     1       7.232   3.858  -0.105  0.00  0.00    -0.021 A 
ATOM     14  C   UNL     1       8.508   3.868  -0.685  0.00  0.00    +0.057 A 
ATOM     15  C   UNL     1       9.192   5.068  -0.831  0.00  0.00    +0.159 A 
ATOM     16  C   UNL     1       8.634   6.266  -0.396  0.00  0.00    +0.158 A 
ATOM     17  C   UNL     1       7.384   6.275   0.208  0.00  0.00    +0.050 A 
ATOM     18  C   UNL     1       6.689   5.069   0.357  0.00  0.00    +0.012 A 
BRANCH  15  19
ATOM     19  O   UNL     1      10.425   5.064  -1.417  0.00  0.00    -0.503 OA
ATOM     20  H   UNL     1      10.700   6.003  -1.417  0.00  0.00    +0.292 HD
ENDBRANCH  15  19
BRANCH  16  21
ATOM     21  O   UNL     1       9.357   7.411  -0.587  0.00  0.00    -0.503 OA
ATOM     22  H   UNL     1       8.822   8.162  -0.276  0.00  0.00    +0.292 HD
ENDBRANCH  16  21
ENDBRANCH   2  13
TORSDOF 6
