REMARK  Name = 
REMARK  6 active torsions:
REMARK  status: ('A' for Active; 'I' for Inactive)
REMARK    1  A    between atoms: C_4  and  N_28
REMARK    2  A    between atoms: C_6  and  C_8
REMARK    3  A    between atoms: N_10  and  C_11
REMARK    4  A    between atoms: N_17  and  C_18
REMARK    5  A    between atoms: C_18  and  C_19
REMARK    6  A    between atoms: C_19  and  C_20
REMARK                            x       y       z     vdW  Elec       q    Type
REMARK                         _______ _______ _______ _____ _____    ______ ____
ROOT
ATOM      1  C   UNL     1       3.163  -3.487   0.112  0.00  0.00    +0.248 C 
ATOM      2  N   UNL     1       4.549  -3.614   0.086  0.00  0.00    -0.281 N 
ATOM      3  H   UNL     1       5.108  -2.774   0.031  0.00  0.00    +0.155 HD
ATOM      4  O   UNL     1       2.352  -4.408   0.138  0.00  0.00    -0.270 OA
ENDROOT
BRANCH   2   5
ATOM      5  C   UNL     1       5.267  -4.847   0.064  0.00  0.00    +0.036 A 
ATOM      6  C   UNL     1       6.680  -4.811   0.039  0.00  0.00    +0.049 A 
ATOM      7  C   UNL     1       7.402  -6.033   0.023  0.00  0.00    +0.051 A 
ATOM      8  C   UNL     1       6.736  -7.265   0.030  0.00  0.00    -0.000 A 
ATOM      9  C   UNL     1       7.707  -8.292   0.036  0.00  0.00    +0.027 A 
ATOM     10  C   UNL     1       8.938  -7.691   0.051  0.00  0.00    +0.087 A 
ATOM     11  C   UNL     1       5.335  -7.288   0.042  0.00  0.00    +0.012 A 
ATOM     12  N   UNL     1       8.761  -6.328   0.008  0.00  0.00    -0.346 N 
ATOM     13  C   UNL     1       4.624  -6.086   0.061  0.00  0.00    +0.024 A 
BRANCH  12  14
ATOM     14  C   UNL     1       9.852  -5.358   0.025  0.00  0.00    +0.126 C 
BRANCH  14  15
ATOM     15  C   UNL     1      11.139  -5.834  -0.673  0.00  0.00    +0.057 C 
BRANCH  15  16
ATOM     16  C   UNL     1      12.272  -4.838  -0.638  0.00  0.00    -0.043 A 
ATOM     17  C   UNL     1      12.835  -4.356  -1.823  0.00  0.00    +0.023 A 
ATOM     18  C   UNL     1      13.914  -3.488  -1.744  0.00  0.00    +0.111 A 
ATOM     19  N   UNL     1      14.464  -3.075  -0.583  0.00  0.00    -0.263 NA
ATOM     20  C   UNL     1      13.917  -3.562   0.550  0.00  0.00    +0.111 A 
ATOM     21  C   UNL     1      12.840  -4.436   0.574  0.00  0.00    +0.023 A 
ENDBRANCH  15  16
ENDBRANCH  14  15
ENDBRANCH  12  14
ENDBRANCH   2   5
BRANCH   1  25
ATOM     22  F   UNL     1       3.059   1.293   1.166  0.00  0.00    -0.205 F 
ATOM     23  C   UNL     1       2.493   0.210   0.615  0.00  0.00    +0.126 A 
ATOM     24  C   UNL     1       3.183  -1.000   0.646  0.00  0.00    +0.051 A 
ATOM     25  C   UNL     1       2.580  -2.117   0.087  0.00  0.00    +0.041 A 
ATOM     26  C   UNL     1       1.293  -1.992  -0.482  0.00  0.00    +0.036 A 
ATOM     27  C   UNL     1       0.582  -0.782  -0.509  0.00  0.00    +0.033 A 
ATOM     28  C   UNL     1       1.221   0.328   0.044  0.00  0.00    +0.061 A 
BRANCH  27  29
ATOM     29  N   UNL     1      -0.662  -0.738  -1.115  0.00  0.00    -0.325 N 
ATOM     30  C   UNL     1      -1.697  -1.703  -0.675  0.00  0.00    +0.133 C 
ATOM     31  C   UNL     1      -2.675  -1.954  -1.837  0.00  0.00    +0.178 C 
ATOM     32  O   UNL     1      -3.248  -0.728  -2.326  0.00  0.00    -0.377 OA
ATOM     33  C   UNL     1      -2.213   0.173  -2.759  0.00  0.00    +0.178 C 
ATOM     34  C   UNL     1      -1.250   0.517  -1.607  0.00  0.00    +0.133 C 
ENDBRANCH  27  29
ENDBRANCH   1  25
TORSDOF 6
