REMARK  Name = 
REMARK  8 active torsions:
REMARK  status: ('A' for Active; 'I' for Inactive)
REMARK    1  A    between atoms: C_2  and  C_3
REMARK    2  A    between atoms: C_2  and  N_4
REMARK    3  A    between atoms: C_2  and  C_16
REMARK    4  A    between atoms: N_4  and  S_5
REMARK    5  A    between atoms: S_5  and  C_8
REMARK    6  A    between atoms: C_11  and  O_12
REMARK    7  A    between atoms: O_12  and  C_13
REMARK    8  A    between atoms: C_16  and  O_17
REMARK                            x       y       z     vdW  Elec       q    Type
REMARK                         _______ _______ _______ _____ _____    ______ ____
ROOT
ATOM      1  S   UNL     1       2.099  -0.622  -2.550  0.00  0.00    +0.059 S 
ATOM      2  O   UNL     1       2.882  -1.819  -2.347  0.00  0.00    -0.153 OA
ATOM      3  O   UNL     1       2.080   0.467  -1.605  0.00  0.00    -0.153 OA
ENDROOT
BRANCH   1   4
ATOM      4  C   UNL     1       2.539   0.034  -4.140  0.00  0.00    +0.105 A 
ATOM      5  C   UNL     1       2.965  -0.845  -5.140  0.00  0.00    +0.032 A 
ATOM      6  C   UNL     1       3.271  -0.358  -6.410  0.00  0.00    +0.047 A 
ATOM      7  C   UNL     1       3.174   1.009  -6.675  0.00  0.00    +0.120 A 
ATOM      8  C   UNL     1       2.793   1.885  -5.652  0.00  0.00    +0.047 A 
ATOM      9  C   UNL     1       2.484   1.406  -4.377  0.00  0.00    +0.032 A 
BRANCH   7  10
ATOM     10  O   UNL     1       3.371   1.597  -7.893  0.00  0.00    -0.495 OA
ATOM     11  C   UNL     1       4.196   0.897  -8.817  0.00  0.00    +0.277 C 
ENDBRANCH   7  10
ENDBRANCH   1   4
BRANCH   1  12
ATOM     12  N   UNL     1       0.486  -1.065  -2.802  0.00  0.00    -0.176 NA
ATOM     13  H   UNL     1      -0.068  -0.782  -1.987  0.00  0.00    +0.149 HD
BRANCH  12  14
ATOM     14  C   UNL     1       0.232  -2.439  -3.287  0.00  0.00    +0.182 C 
ATOM     15  C   UNL     1      -1.239  -2.570  -3.663  0.00  0.00    +0.037 C 
BRANCH  14  16
ATOM     16  C   UNL     1       0.539  -3.479  -2.213  0.00  0.00    +0.323 C 
ATOM     17  O   UNL     1       0.353  -3.289  -1.016  0.00  0.00    -0.249 OA
BRANCH  16  18
ATOM     18  O   UNL     1       0.958  -4.670  -2.698  0.00  0.00    -0.480 OA
ATOM     19  H   UNL     1       1.107  -4.698  -3.662  0.00  0.00    +0.295 HD
ENDBRANCH  16  18
ENDBRANCH  14  16
ENDBRANCH  12  14
ENDBRANCH   1  12
TORSDOF 6
