REMARK  Name = 
REMARK  5 active torsions:
REMARK  status: ('A' for Active; 'I' for Inactive)
REMARK    1  A    between atoms: C_1  and  C_2
REMARK    2  A    between atoms: C_6  and  C_7
REMARK    3  A    between atoms: C_10  and  C_11
REMARK    4  A    between atoms: C_11  and  C_12
REMARK    5  A    between atoms: C_12  and  N_13
REMARK                            x       y       z     vdW  Elec       q    Type
REMARK                         _______ _______ _______ _____ _____    ______ ____
ROOT
ATOM      1  C   UNL     1       2.704  -2.553   0.076  0.00  0.00    -0.015 A 
ATOM      2  C   UNL     1       1.405  -2.870  -0.341  0.00  0.00    +0.009 A 
ATOM      3  C   UNL     1       0.989  -4.200  -0.466  0.00  0.00    +0.004 A 
ATOM      4  C   UNL     1       1.872  -5.250  -0.197  0.00  0.00    -0.046 A 
ATOM      5  C   UNL     1       3.160  -4.945   0.254  0.00  0.00    +0.004 A 
ATOM      6  C   UNL     1       3.570  -3.612   0.389  0.00  0.00    +0.009 A 
ENDROOT
BRANCH   1   9
ATOM      7  C   UNL     1       1.021   0.289   0.679  0.00  0.00    +0.068 C 
ATOM      8  C   UNL     1       2.456   0.064   0.369  0.00  0.00    +0.067 A 
ATOM      9  C   UNL     1       3.150  -1.164   0.136  0.00  0.00    +0.022 A 
ATOM     10  C   UNL     1       4.450  -0.763  -0.100  0.00  0.00    +0.113 A 
ATOM     11  N   UNL     1       4.466   0.596  -0.003  0.00  0.00    -0.284 N 
ATOM     12  H   UNL     1       5.253   1.223  -0.128  0.00  0.00    +0.188 HD
ATOM     13  N   UNL     1       3.271   1.124   0.284  0.00  0.00    -0.179 NA
ENDBRANCH   1   9
BRANCH   4  14
ATOM     14  C   UNL     1       1.447  -6.681  -0.423  0.00  0.00    +0.050 C 
BRANCH  14  15
ATOM     15  C   UNL     1       0.853  -7.336   0.827  0.00  0.00    +0.082 C 
BRANCH  15  16
ATOM     16  N   UNL     1       0.449  -8.714   0.546  0.00  0.00    -0.330 NA
ATOM     17  H   UNL     1       0.047  -9.127   1.387  0.00  0.00    +0.118 HD
ATOM     18  H   UNL     1      -0.291  -8.719  -0.155  0.00  0.00    +0.118 HD
ENDBRANCH  15  16
ENDBRANCH  14  15
ENDBRANCH   4  14
TORSDOF 4
