REMARK  Name = 
REMARK  7 active torsions:
REMARK  status: ('A' for Active; 'I' for Inactive)
REMARK    1  A    between atoms: C_1  and  O_2
REMARK    2  A    between atoms: O_2  and  C_3
REMARK    3  A    between atoms: C_4  and  C_5
REMARK    4  A    between atoms: C_5  and  C_7
REMARK    5  A    between atoms: N_11  and  C_12
REMARK    6  A    between atoms: N_15  and  S_18
REMARK    7  A    between atoms: S_18  and  C_19
REMARK                            x       y       z     vdW  Elec       q    Type
REMARK                         _______ _______ _______ _____ _____    ______ ____
ROOT
ATOM      1  C   UNL     1       2.129  -2.134  -0.877  0.00  0.00    +0.080 A 
ATOM      2  C   UNL     1       2.453  -1.049  -1.678  0.00  0.00    +0.132 A 
ATOM      3  N   UNL     1       3.416  -0.092  -1.432  0.00  0.00    -0.342 N 
ATOM      4  H   UNL     1       3.215   0.460  -0.610  0.00  0.00    +0.144 HD
ATOM      5  H   UNL     1       3.433   0.516  -2.249  0.00  0.00    +0.144 HD
ATOM      6  N   UNL     1       1.838  -0.746  -2.845  0.00  0.00    -0.199 NA
ATOM      7  C   UNL     1       0.809  -1.483  -3.241  0.00  0.00    +0.217 A 
ATOM      8  N   UNL     1      -0.038  -1.001  -4.227  0.00  0.00    -0.310 N 
ATOM      9  H   UNL     1      -0.722  -1.720  -4.428  0.00  0.00    +0.149 HD
ATOM     10  N   UNL     1       0.456  -2.603  -2.607  0.00  0.00    -0.222 NA
ATOM     11  C   UNL     1       1.147  -2.918  -1.468  0.00  0.00    +0.129 A 
ENDROOT
BRANCH   8  12
ATOM     12  C   UNL     1       0.503  -0.240  -5.363  0.00  0.00    +0.076 C 
ATOM     13  C   UNL     1       0.702   1.248  -5.037  0.00  0.00    +0.039 C 
ATOM     14  C   UNL     1      -0.624   1.954  -4.802  0.00  0.00    +0.111 C 
ATOM     15  N   UNL     1      -1.503   1.840  -5.994  0.00  0.00    -0.181 NA
ATOM     16  C   UNL     1      -1.746   0.437  -6.394  0.00  0.00    +0.111 C 
ATOM     17  C   UNL     1      -0.450  -0.354  -6.569  0.00  0.00    +0.039 C 
BRANCH  15  18
ATOM     18  S   UNL     1      -1.348   3.024  -7.203  0.00  0.00    +0.029 S 
ATOM     19  O   UNL     1      -0.520   2.474  -8.253  0.00  0.00    -0.158 OA
ATOM     20  O   UNL     1      -1.019   4.279  -6.553  0.00  0.00    -0.158 OA
ATOM     21  C   UNL     1      -3.019   3.163  -7.797  0.00  0.00    +0.215 C 
ENDBRANCH  15  18
ENDBRANCH   8  12
BRANCH   1  22
ATOM     22  C   UNL     1       2.677  -2.609   0.460  0.00  0.00    +0.204 C 
ATOM     23  O   UNL     1       2.729  -3.826   0.643  0.00  0.00    -0.286 OA
BRANCH  22  31
ATOM     24  C   UNL     1       2.489  -1.932   2.941  0.00  0.00    +0.134 A 
ATOM     25  C   UNL     1       2.590  -0.916   3.919  0.00  0.00    +0.049 A 
ATOM     26  C   UNL     1       3.298   0.247   3.658  0.00  0.00    +0.045 A 
ATOM     27  C   UNL     1       3.978   0.345   2.460  0.00  0.00    +0.159 A 
ATOM     28  F   UNL     1       4.752   1.413   2.232  0.00  0.00    -0.202 F 
ATOM     29  C   UNL     1       3.868  -0.652   1.492  0.00  0.00    +0.173 A 
ATOM     30  F   UNL     1       4.724  -0.606   0.467  0.00  0.00    -0.202 F 
ATOM     31  C   UNL     1       2.988  -1.717   1.633  0.00  0.00    +0.102 A 
BRANCH  24  33
ATOM     32  C   UNL     1       2.384  -3.596   4.599  0.00  0.00    +0.277 C 
ATOM     33  O   UNL     1       1.947  -3.145   3.300  0.00  0.00    -0.494 OA
ENDBRANCH  24  33
ENDBRANCH  22  31
ENDBRANCH   1  22
TORSDOF 5
