REMARK  Name = 
REMARK  6 active torsions:
REMARK  status: ('A' for Active; 'I' for Inactive)
REMARK    1  A    between atoms: C_1  and  C_2
REMARK    2  A    between atoms: C_4  and  N_9
REMARK    3  A    between atoms: C_7  and  O_8
REMARK    4  A    between atoms: N_10  and  C_11
REMARK    5  A    between atoms: C_16  and  C_17
REMARK    6  A    between atoms: C_17  and  O_18
REMARK                            x       y       z     vdW  Elec       q    Type
REMARK                         _______ _______ _______ _____ _____    ______ ____
ROOT
ATOM      1  N   UNL     1       5.007   2.590   0.163  0.00  0.00    -0.149 NA
ATOM      2  N   UNL     1       4.619   3.414  -0.696  0.00  0.00    -0.148 NA
ENDROOT
BRANCH   1   8
ATOM      3  C   UNL     1       0.883  -0.082  -0.629  0.00  0.00    +0.047 C 
ATOM      4  C   UNL     1       2.344  -0.004  -0.300  0.00  0.00    -0.007 A 
ATOM      5  C   UNL     1       3.101  -1.155  -0.068  0.00  0.00    +0.120 A 
ATOM      6  C   UNL     1       4.461  -1.073   0.225  0.00  0.00    +0.048 A 
ATOM      7  C   UNL     1       5.076   0.180   0.285  0.00  0.00    +0.033 A 
ATOM      8  C   UNL     1       4.344   1.352   0.060  0.00  0.00    +0.087 A 
ATOM      9  C   UNL     1       2.973   1.245  -0.214  0.00  0.00    +0.036 A 
BRANCH   5  10
ATOM     10  O   UNL     1       2.480  -2.370  -0.128  0.00  0.00    -0.507 OA
ATOM     11  H   UNL     1       3.119  -3.064   0.104  0.00  0.00    +0.292 HD
ENDBRANCH   5  10
ENDBRANCH   1   8
BRANCH   2  12
ATOM     12  C   UNL     1       5.367   4.611  -0.624  0.00  0.00    +0.100 A 
ATOM     13  C   UNL     1       4.745   5.870  -0.686  0.00  0.00    +0.086 A 
ATOM     14  C   UNL     1       5.527   7.039  -0.634  0.00  0.00    +0.017 A 
ATOM     15  C   UNL     1       6.917   6.964  -0.537  0.00  0.00    +0.001 A 
ATOM     16  C   UNL     1       7.541   5.724  -0.496  0.00  0.00    +0.002 A 
ATOM     17  C   UNL     1       6.773   4.562  -0.548  0.00  0.00    +0.030 A 
BRANCH  13  18
ATOM     18  C   UNL     1       3.272   6.066  -0.783  0.00  0.00    +0.339 C 
ATOM     19  O   UNL     1       2.725   7.093  -0.411  0.00  0.00    -0.245 OA
BRANCH  18  20
ATOM     20  O   UNL     1       2.591   5.068  -1.386  0.00  0.00    -0.477 OA
ATOM     21  H   UNL     1       3.139   4.298  -1.635  0.00  0.00    +0.295 HD
ENDBRANCH  18  20
ENDBRANCH  13  18
ENDBRANCH   2  12
TORSDOF 5
