REMARK  Name = 
REMARK  9 active torsions:
REMARK  status: ('A' for Active; 'I' for Inactive)
REMARK    1  A    between atoms: C_2  and  O_3
REMARK    2  A    between atoms: C_6  and  O_8
REMARK    3  A    between atoms: C_9  and  O_11
REMARK    4  A    between atoms: O_11  and  C_12
REMARK    5  A    between atoms: C_12  and  C_14
REMARK    6  A    between atoms: C_15  and  O_16
REMARK    7  A    between atoms: C_20  and  C_21
REMARK    8  A    between atoms: C_23  and  O_24
REMARK    9  A    between atoms: O_24  and  C_25
REMARK                            x       y       z     vdW  Elec       q    Type
REMARK                         _______ _______ _______ _____ _____    ______ ____
ROOT
ATOM      1  C   UNL     1       3.522   3.866  -1.964  0.00  0.00    +0.108 A 
ATOM      2  C   UNL     1       2.953   4.909  -2.748  0.00  0.00    +0.003 A 
ATOM      3  C   UNL     1       3.057   4.853  -4.168  0.00  0.00    -0.014 A 
ATOM      4  C   UNL     1       2.473   5.882  -4.957  0.00  0.00    -0.039 A 
ATOM      5  C   UNL     1       1.918   7.011  -4.329  0.00  0.00    +0.049 A 
ATOM      6  C   UNL     1       1.884   7.114  -2.946  0.00  0.00    +0.121 A 
ATOM      7  C   UNL     1       2.471   5.900  -6.468  0.00  0.00    +0.044 C 
ATOM      8  C   UNL     1       3.776   3.778  -4.740  0.00  0.00    +0.012 A 
ATOM      9  C   UNL     1       4.455   2.853  -3.952  0.00  0.00    +0.047 A 
ATOM     10  C   UNL     1       2.350   6.052  -2.172  0.00  0.00    +0.055 A 
ATOM     11  C   UNL     1       4.352   2.917  -2.575  0.00  0.00    +0.131 A 
ENDROOT
BRANCH   1  12
ATOM     12  C   UNL     1       3.271   3.690  -0.505  0.00  0.00    +0.344 C 
ATOM     13  O   UNL     1       4.123   3.286   0.269  0.00  0.00    -0.245 OA
BRANCH  12  14
ATOM     14  O   UNL     1       1.948   3.831  -0.231  0.00  0.00    -0.452 OA
BRANCH  14  16
ATOM     15  C   UNL     1      -0.039   3.225   1.044  0.00  0.00    +0.181 C 
ATOM     16  C   UNL     1       1.506   3.363   1.071  0.00  0.00    +0.241 C 
ATOM     17  C   UNL     1       1.789   4.408   2.183  0.00  0.00    +0.181 C 
ATOM     18  C   UNL     1       0.491   4.541   2.905  0.00  0.00    +0.006 C 
ATOM     19  C   UNL     1      -0.503   3.895   2.295  0.00  0.00    +0.006 C 
BRANCH  15  20
ATOM     20  O   UNL     1      -0.436   1.859   1.060  0.00  0.00    -0.384 OA
ATOM     21  H   UNL     1      -0.400   1.543   1.979  0.00  0.00    +0.210 HD
ENDBRANCH  15  20
BRANCH  17  22
ATOM     22  O   UNL     1       2.749   3.990   3.144  0.00  0.00    -0.384 OA
ATOM     23  H   UNL     1       3.032   3.084   2.943  0.00  0.00    +0.210 HD
ENDBRANCH  17  22
ENDBRANCH  14  16
ENDBRANCH  12  14
ENDBRANCH   1  12
BRANCH   6  24
ATOM     24  O   UNL     1       1.440   8.196  -2.236  0.00  0.00    -0.495 OA
ATOM     25  C   UNL     1       1.220   9.392  -2.976  0.00  0.00    +0.277 C 
ENDBRANCH   6  24
BRANCH  11  26
ATOM     26  O   UNL     1       5.123   2.025  -1.873  0.00  0.00    -0.506 OA
ATOM     27  H   UNL     1       5.186   2.332  -0.942  0.00  0.00    +0.292 HD
ENDBRANCH  11  26
TORSDOF 7
