REMARK  Name = 
REMARK  0 active torsions:
REMARK  status: ('A' for Active; 'I' for Inactive)
REMARK                            x       y       z     vdW  Elec       q    Type
REMARK                         _______ _______ _______ _____ _____    ______ ____
ROOT
ATOM      1  O   UNL     1       1.434  -0.019   0.627  0.00  0.00    -0.247 OA
ATOM      2  C   UNL     1       2.581  -0.052   0.227  0.00  0.00    +0.326 A 
ATOM      3  N   UNL     1       3.367  -1.184  -0.048  0.00  0.00    -0.301 N 
ATOM      4  H   UNL     1       3.072  -2.144   0.054  0.00  0.00    +0.171 HD
ATOM      5  C   UNL     1       4.586  -0.754  -0.482  0.00  0.00    +0.149 A 
ATOM      6  C   UNL     1       5.761  -1.517  -0.907  0.00  0.00    +0.280 A 
ATOM      7  N   UNL     1       6.820  -0.724  -1.297  0.00  0.00    -0.273 N 
ATOM      8  H   UNL     1       7.657  -1.196  -1.606  0.00  0.00    +0.173 HD
ATOM      9  C   UNL     1       6.846   0.655  -1.313  0.00  0.00    +0.328 A 
ATOM     10  N   UNL     1       5.697   1.282  -0.891  0.00  0.00    -0.292 N 
ATOM     11  H   UNL     1       5.696   2.293  -0.896  0.00  0.00    +0.172 HD
ATOM     12  O   UNL     1       7.830   1.284  -1.683  0.00  0.00    -0.247 OA
ATOM     13  O   UNL     1       5.787  -2.741  -0.914  0.00  0.00    -0.265 OA
ATOM     14  C   UNL     1       4.616   0.578  -0.496  0.00  0.00    +0.146 A 
ATOM     15  N   UNL     1       3.414   1.050  -0.068  0.00  0.00    -0.292 N 
ATOM     16  H   UNL     1       3.121   2.008   0.029  0.00  0.00    +0.172 HD
ENDROOT
TORSDOF 0
