REMARK  Name = 
REMARK  5 active torsions:
REMARK  status: ('A' for Active; 'I' for Inactive)
REMARK    1  A    between atoms: C_1  and  N_2
REMARK    2  A    between atoms: C_3  and  C_5
REMARK    3  A    between atoms: C_5  and  N_6
REMARK    4  A    between atoms: C_9  and  N_12
REMARK    5  A    between atoms: C_15  and  C_19
REMARK                            x       y       z     vdW  Elec       q    Type
REMARK                         _______ _______ _______ _____ _____    ______ ____
ROOT
ATOM      1  N   UNL     1       7.721   2.249  -2.399  0.00  0.00    -0.311 N 
ATOM      2  H   UNL     1       7.943   2.976  -1.729  0.00  0.00    +0.149 HD
ATOM      3  C   UNL     1       8.181   2.645  -3.636  0.00  0.00    +0.216 A 
ATOM      4  N   UNL     1       7.732   2.037  -4.742  0.00  0.00    -0.223 NA
ATOM      5  C   UNL     1       8.199   2.477  -5.918  0.00  0.00    +0.116 A 
ATOM      6  C   UNL     1       9.098   3.502  -6.027  0.00  0.00    +0.050 A 
ATOM      7  C   UNL     1       9.522   4.057  -4.837  0.00  0.00    +0.094 A 
ATOM      8  N   UNL     1       9.073   3.646  -3.638  0.00  0.00    -0.213 NA
ENDROOT
BRANCH   7   9
ATOM      9  C   UNL     1      10.444   5.188  -4.833  0.00  0.00    +0.092 A 
ATOM     10  N   UNL     1      11.451   5.455  -3.913  0.00  0.00    -0.298 N 
ATOM     11  C   UNL     1      12.110   6.600  -4.372  0.00  0.00    +0.138 A 
ATOM     12  C   UNL     1      13.227   7.070  -3.626  0.00  0.00    +0.047 A 
ATOM     13  C   UNL     1      13.610   6.422  -2.511  0.00  0.00    +0.005 A 
ATOM     14  C   UNL     1      12.901   5.243  -2.045  0.00  0.00    +0.018 A 
ATOM     15  N   UNL     1      11.573   7.071  -5.475  0.00  0.00    -0.235 NA
ATOM     16  C   UNL     1      11.852   4.784  -2.751  0.00  0.00    +0.093 A 
ATOM     17  C   UNL     1      10.550   6.215  -5.759  0.00  0.00    +0.141 A 
ENDBRANCH   7   9
BRANCH   1  21
ATOM     18  N   UNL     1       5.366   2.086   0.447  0.00  0.00    -0.294 NA
ATOM     19  C   UNL     1       5.293   3.148  -0.571  0.00  0.00    +0.086 C 
ATOM     20  C   UNL     1       5.307   2.669  -2.027  0.00  0.00    +0.037 C 
ATOM     21  C   UNL     1       6.399   1.632  -2.316  0.00  0.00    +0.076 C 
ATOM     22  C   UNL     1       6.433   0.555  -1.234  0.00  0.00    +0.037 C 
ATOM     23  C   UNL     1       6.487   1.175   0.157  0.00  0.00    +0.086 C 
BRANCH  18  24
ATOM     24  C   UNL     1       4.071   1.369   0.596  0.00  0.00    +0.180 C 
BRANCH  24  28
ATOM     25  C   UNL     1       4.965   0.218   4.118  0.00  0.00    +0.128 C 
ATOM     26  N   UNL     1       4.789   0.949   2.893  0.00  0.00    -0.317 N 
ATOM     27  H   UNL     1       5.367   1.760   2.688  0.00  0.00    +0.148 HD
ATOM     28  C   UNL     1       4.078   0.444   1.825  0.00  0.00    +0.227 C 
ATOM     29  O   UNL     1       3.462  -0.618   1.858  0.00  0.00    -0.274 OA
ENDBRANCH  24  28
ENDBRANCH  18  24
ENDBRANCH   1  21
TORSDOF 4
