REMARK  Name = 
REMARK  5 active torsions:
REMARK  status: ('A' for Active; 'I' for Inactive)
REMARK    1  A    between atoms: C4*_2  and  C5*_3
REMARK    2  A    between atoms: C5*_3  and  O5*_4
REMARK    3  A    between atoms: C1*_6  and  N_8
REMARK    4  A    between atoms: C2*_19  and  O2*_21
REMARK    5  A    between atoms: C3*_22  and  O3*_24
REMARK                            x       y       z     vdW  Elec       q    Type
REMARK                         _______ _______ _______ _____ _____    ______ ____
ROOT
ATOM      1  C4* UNL     1       2.084   0.044   0.160  0.00  0.00    +0.177 C 
ATOM      2  C3* UNL     1       2.692  -1.249   0.695  0.00  0.00    +0.178 C 
ATOM      3  C2* UNL     1       4.014  -0.807   1.324  0.00  0.00    +0.195 C 
ATOM      4  C1* UNL     1       3.931   0.728   1.319  0.00  0.00    +0.252 C 
ATOM      5  O4* UNL     1       2.570   1.089   1.028  0.00  0.00    -0.346 OA
ENDROOT
BRANCH   4   6
ATOM      6  N   UNL     1       4.379   1.326   2.566  0.00  0.00    -0.301 N 
ATOM      7  C   UNL     1       3.674   1.576   3.720  0.00  0.00    +0.072 A 
ATOM      8  C   UNL     1       4.634   2.061   4.608  0.00  0.00    +0.091 A 
ATOM      9  C   UNL     1       4.263   2.415   5.913  0.00  0.00    +0.051 A 
ATOM     10  C   UNL     1       2.922   2.281   6.295  0.00  0.00    +0.061 A 
ATOM     11  C   UNL     1       1.966   1.805   5.389  0.00  0.00    +0.061 A 
ATOM     12 CL   UNL     1       0.297   1.641   5.812  0.00  0.00    -0.082 Cl
ATOM     13 CL   UNL     1       2.512   2.724   7.917  0.00  0.00    -0.082 Cl
ATOM     14  N   UNL     1       5.870   2.106   4.020  0.00  0.00    -0.236 NA
ATOM     15  C   UNL     1       2.330   1.434   4.086  0.00  0.00    +0.049 A 
ATOM     16  C   UNL     1       5.685   1.678   2.794  0.00  0.00    +0.202 A 
ENDBRANCH   4   6
BRANCH   2  17
ATOM     17  O3* UNL     1       2.884  -2.204  -0.346  0.00  0.00    -0.386 OA
ATOM     18  H3* UNL     1       3.847  -2.210  -0.532  0.00  0.00    +0.210 HD
ENDBRANCH   2  17
BRANCH   3  19
ATOM     19  O2* UNL     1       5.116  -1.279   0.531  0.00  0.00    -0.385 OA
ATOM     20  H2* UNL     1       5.871  -1.417   1.134  0.00  0.00    +0.210 HD
ENDBRANCH   3  19
BRANCH   1  21
ATOM     21  C5* UNL     1       0.558   0.036   0.129  0.00  0.00    +0.190 C 
BRANCH  21  22
ATOM     22  O5* UNL     1       0.018  -0.138   1.438  0.00  0.00    -0.392 OA
ATOM     23  H5* UNL     1       0.061   0.734   1.869  0.00  0.00    +0.210 HD
ENDBRANCH  21  22
ENDBRANCH   1  21
TORSDOF 5
