REMARK  Name = 
REMARK  12 active torsions:
REMARK  status: ('A' for Active; 'I' for Inactive)
REMARK    1  A    between atoms: N_6  and  C_7
REMARK    2  A    between atoms: C_7  and  C_8
REMARK    3  A    between atoms: C_8  and  C_9
REMARK    4  A    between atoms: C_9  and  C_10
REMARK    5  A    between atoms: C_10  and  C_11
REMARK    6  A    between atoms: C_11  and  C_12
REMARK    7  A    between atoms: C_12  and  C_13
REMARK    8  A    between atoms: C_13  and  C_14
REMARK    9  A    between atoms: C_16  and  O_18
REMARK   10  A    between atoms: C_19  and  O_21
REMARK   11  A    between atoms: C_22  and  O_24
REMARK   12  A    between atoms: C_25  and  O_27
REMARK                            x       y       z     vdW  Elec       q    Type
REMARK                         _______ _______ _______ _____ _____    ______ ____
ROOT
ATOM      1  C   UNL     1       2.291   0.040  -0.138  0.00  0.00    +0.149 C 
ATOM      2  C   UNL     1       2.518  -0.954   0.979  0.00  0.00    +0.169 C 
ATOM      3  C   UNL     1       2.085  -2.321   0.439  0.00  0.00    +0.177 C 
ATOM      4  C   UNL     1       2.815  -2.725  -0.850  0.00  0.00    +0.192 C 
ATOM      5  C   UNL     1       3.100  -1.572  -1.859  0.00  0.00    +0.238 C 
ATOM      6  N   UNL     1       3.130  -0.262  -1.275  0.00  0.00    -0.249 N 
ATOM      7  C   UNL     1       3.281   0.898  -1.994  0.00  0.00    +0.283 C 
ATOM      8  N   UNL     1       3.634   0.988  -3.220  0.00  0.00    -0.237 NA
ATOM      9  O   UNL     1       2.991   1.977  -1.203  0.00  0.00    -0.464 OA
ATOM     10  C   UNL     1       2.713   1.471   0.124  0.00  0.00    +0.257 C 
ENDROOT
BRANCH   2  11
ATOM     11  O   UNL     1       1.716  -0.598   2.108  0.00  0.00    -0.387 OA
ATOM     12  H   UNL     1       1.508  -1.440   2.563  0.00  0.00    +0.210 HD
ENDBRANCH   2  11
BRANCH   3  13
ATOM     13  O   UNL     1       2.317  -3.306   1.465  0.00  0.00    -0.386 OA
ATOM     14  H   UNL     1       2.204  -4.176   1.032  0.00  0.00    +0.210 HD
ENDBRANCH   3  13
BRANCH   4  15
ATOM     15  O   UNL     1       2.012  -3.762  -1.465  0.00  0.00    -0.385 OA
ATOM     16  H   UNL     1       2.430  -3.974  -2.322  0.00  0.00    +0.210 HD
ENDBRANCH   4  15
BRANCH   5  17
ATOM     17  O   UNL     1       4.400  -1.843  -2.366  0.00  0.00    -0.371 OA
ATOM     18  H   UNL     1       4.870  -0.997  -2.245  0.00  0.00    +0.212 HD
ENDBRANCH   5  17
BRANCH   8  19
ATOM     19  C   UNL     1       3.712   2.337  -3.781  0.00  0.00    +0.147 C 
BRANCH  19  20
ATOM     20  C   UNL     1       4.085   2.200  -5.260  0.00  0.00    +0.023 C 
BRANCH  20  21
ATOM     21  C   UNL     1       4.312   3.557  -5.924  0.00  0.00    +0.002 C 
BRANCH  21  22
ATOM     22  C   UNL     1       4.712   3.397  -7.394  0.00  0.00    +0.000 C 
BRANCH  22  23
ATOM     23  C   UNL     1       4.955   4.754  -8.058  0.00  0.00    -0.000 C 
BRANCH  23  24
ATOM     24  C   UNL     1       5.358   4.598  -9.526  0.00  0.00    -0.000 C 
BRANCH  24  25
ATOM     25  C   UNL     1       5.599   5.960 -10.180  0.00  0.00    -0.003 C 
ATOM     26  C   UNL     1       5.998   5.819 -11.640  0.00  0.00    +0.004 C 
ENDBRANCH  24  25
ENDBRANCH  23  24
ENDBRANCH  22  23
ENDBRANCH  21  22
ENDBRANCH  20  21
ENDBRANCH  19  20
ENDBRANCH   8  19
TORSDOF 11
