REMARK  Name = 
REMARK  6 active torsions:
REMARK  status: ('A' for Active; 'I' for Inactive)
REMARK    1  A    between atoms: N_1  and  S_2
REMARK    2  A    between atoms: S_2  and  C_5
REMARK    3  A    between atoms: C_9  and  N_10
REMARK    4  A    between atoms: C_13  and  O_14
REMARK    5  A    between atoms: O_14  and  C_15
REMARK    6  A    between atoms: C_15  and  C_16
REMARK                            x       y       z     vdW  Elec       q    Type
REMARK                         _______ _______ _______ _____ _____    ______ ____
ROOT
ATOM      1  N   UNL     1       2.503  -4.807   1.242  0.00  0.00    -0.283 N 
ATOM      2  H   UNL     1       2.987  -5.646   1.527  0.00  0.00    +0.155 HD
ATOM      3  C   UNL     1       1.508  -5.114   0.297  0.00  0.00    +0.225 A 
ATOM      4  N   UNL     1       0.765  -4.100  -0.178  0.00  0.00    -0.195 NA
ATOM      5  C   UNL     1       0.013  -4.426  -1.223  0.00  0.00    +0.167 A 
ATOM      6  C   UNL     1      -0.139  -5.671  -1.784  0.00  0.00    +0.169 A 
ATOM      7  N   UNL     1      -0.974  -5.600  -2.881  0.00  0.00    -0.229 NA
ATOM      8  C   UNL     1      -1.291  -4.325  -2.987  0.00  0.00    +0.199 A 
ATOM      9  C   UNL     1       0.575  -6.693  -1.158  0.00  0.00    +0.248 A 
ATOM     10  N   UNL     1      -0.716  -3.575  -1.998  0.00  0.00    -0.329 N 
ATOM     11  H   UNL     1      -0.768  -2.574  -1.876  0.00  0.00    +0.168 HD
ATOM     12  N   UNL     1       1.413  -6.402  -0.117  0.00  0.00    -0.177 NA
ENDROOT
BRANCH   1  15
ATOM     13  C   UNL     1       3.622  -1.251   0.848  0.00  0.00    +0.107 A 
ATOM     14  C   UNL     1       2.980  -2.469   0.618  0.00  0.00    +0.051 A 
ATOM     15  C   UNL     1       3.199  -3.592   1.425  0.00  0.00    +0.035 A 
ATOM     16  C   UNL     1       4.083  -3.433   2.501  0.00  0.00    +0.023 A 
ATOM     17  C   UNL     1       4.737  -2.208   2.736  0.00  0.00    +0.004 A 
ATOM     18  C   UNL     1       4.504  -1.106   1.910  0.00  0.00    +0.028 A 
BRANCH  13  19
ATOM     19  S   UNL     1       3.232   0.090  -0.237  0.00  0.00    +0.056 S 
ATOM     20  O   UNL     1       1.920  -0.110  -0.807  0.00  0.00    -0.153 OA
ATOM     21  O   UNL     1       3.623   1.336   0.382  0.00  0.00    -0.153 OA
BRANCH  19  22
ATOM     22  N   UNL     1       4.317  -0.171  -1.491  0.00  0.00    -0.204 NA
ATOM     23  H   UNL     1       3.845  -0.582  -2.296  0.00  0.00    +0.144 HD
ATOM     24  H   UNL     1       4.818   0.693  -1.698  0.00  0.00    +0.144 HD
ENDBRANCH  19  22
ENDBRANCH  13  19
ENDBRANCH   1  15
BRANCH   9  25
ATOM     25  O   UNL     1       0.563  -7.943  -1.727  0.00  0.00    -0.475 OA
BRANCH  25  26
ATOM     26  C   UNL     1       0.702  -9.026  -0.812  0.00  0.00    +0.234 C 
BRANCH  26  27
ATOM     27  C   UNL     1       0.423 -10.319  -1.612  0.00  0.00    +0.027 C 
ATOM     28  C   UNL     1       0.456 -11.573  -0.730  0.00  0.00    +0.007 C 
ATOM     29  C   UNL     1       1.871 -11.957  -0.303  0.00  0.00    +0.000 C 
ATOM     30  C   UNL     1       2.800 -12.107  -1.505  0.00  0.00    +0.000 C 
ATOM     31  C   UNL     1       2.794 -10.865  -2.390  0.00  0.00    +0.000 C 
ATOM     32  C   UNL     1       1.376 -10.486  -2.812  0.00  0.00    +0.007 C 
ENDBRANCH  26  27
ENDBRANCH  25  26
ENDBRANCH   9  25
TORSDOF 6
