REMARK  Name = 
REMARK  10 active torsions:
REMARK  status: ('A' for Active; 'I' for Inactive)
REMARK    1  A    between atoms: C_2  and  N_3
REMARK    2  A    between atoms: C_2  and  C_11
REMARK    3  A    between atoms: C_2  and  C_14
REMARK    4  A    between atoms: C_4  and  O_6
REMARK    5  A    between atoms: O_6  and  C_7
REMARK    6  A    between atoms: C_7  and  C_8
REMARK    7  A    between atoms: C_7  and  C_9
REMARK    8  A    between atoms: C_7  and  C_10
REMARK    9  A    between atoms: C_11  and  C_12
REMARK   10  A    between atoms: C_11  and  C_13
REMARK                            x       y       z     vdW  Elec       q    Type
REMARK                         _______ _______ _______ _____ _____    ______ ____
ROOT
ATOM      1  C   UNL     1       2.175   0.027   0.124  0.00  0.00    +0.166 C 
ENDROOT
BRANCH   1   2
ATOM      2  C   UNL     1       2.557   1.017   1.175  0.00  0.00    +0.237 A 
ATOM      3  O   UNL     1       1.773   2.138   1.285  0.00  0.00    -0.425 OA
ATOM      4  C   UNL     1       2.409   2.817   2.276  0.00  0.00    +0.332 A 
ATOM      5  N   UNL     1       3.470   2.198   2.736  0.00  0.00    -0.116 NA
ATOM      6  N   UNL     1       3.570   1.021   2.020  0.00  0.00    -0.111 NA
ENDBRANCH   1   2
BRANCH   1   7
ATOM      7  N   UNL     1       2.582  -1.315   0.522  0.00  0.00    -0.269 N 
ATOM      8  H   UNL     1       3.442  -1.465   1.037  0.00  0.00    +0.153 HD
ATOM      9  C   UNL     1       1.801  -2.392   0.230  0.00  0.00    +0.401 C 
ATOM     10  O   UNL     1       0.742  -2.300  -0.374  0.00  0.00    -0.226 OA
BRANCH   9  11
ATOM     11  O   UNL     1       2.347  -3.539   0.693  0.00  0.00    -0.445 OA
BRANCH  11  12
ATOM     12  C   UNL     1       1.620  -4.785   0.479  0.00  0.00    +0.107 C 
ATOM     13  C   UNL     1       0.235  -4.744   1.146  0.00  0.00    +0.055 C 
ATOM     14  C   UNL     1       2.433  -5.892   1.170  0.00  0.00    +0.055 C 
ATOM     15  C   UNL     1       1.534  -5.123  -1.017  0.00  0.00    +0.055 C 
ENDBRANCH  11  12
ENDBRANCH   9  11
ENDBRANCH   1   7
BRANCH   1  16
ATOM     16  C   UNL     1       2.707   0.450  -1.271  0.00  0.00    +0.012 C 
ATOM     17  C   UNL     1       2.115  -0.398  -2.401  0.00  0.00    +0.009 C 
ATOM     18  C   UNL     1       4.236   0.442  -1.368  0.00  0.00    +0.009 C 
ENDBRANCH   1  16
TORSDOF 5
