REMARK  Name = 
REMARK  3 active torsions:
REMARK  status: ('A' for Active; 'I' for Inactive)
REMARK    1  A    between atoms: O_1  and  C_2
REMARK    2  A    between atoms: C_8  and  O_9
REMARK    3  A    between atoms: O_9  and  C_10
REMARK                            x       y       z     vdW  Elec       q    Type
REMARK                         _______ _______ _______ _____ _____    ______ ____
ROOT
ATOM      1  C   UNL     1       2.621   0.326  -0.214  0.00  0.00    +0.160 A 
ATOM      2  C   UNL     1       3.204  -0.944  -0.107  0.00  0.00    +0.170 A 
ATOM      3  C   UNL     1       4.598  -1.068  -0.147  0.00  0.00    +0.051 A 
ATOM      4  C   UNL     1       5.397   0.074  -0.191  0.00  0.00    +0.024 A 
ATOM      5  C   UNL     1       4.805   1.335  -0.248  0.00  0.00    +0.045 A 
ATOM      6 CL   UNL     1       5.798   2.739  -0.276  0.00  0.00    -0.083 Cl
ATOM      7  C   UNL     1       3.417   1.468  -0.283  0.00  0.00    +0.069 A 
ENDROOT
BRANCH   1   8
ATOM      8  O   UNL     1       1.258   0.441  -0.246  0.00  0.00    -0.503 OA
ATOM      9  H   UNL     1       1.014   1.364  -0.424  0.00  0.00    +0.292 HD
ENDBRANCH   1   8
BRANCH   2  10
ATOM     10  O   UNL     1       2.366  -2.036  -0.039  0.00  0.00    -0.451 OA
BRANCH  10  11
ATOM     11  C   UNL     1       2.694  -3.111   0.765  0.00  0.00    +0.147 A 
ATOM     12  C   UNL     1       3.372  -2.976   1.985  0.00  0.00    +0.049 A 
ATOM     13  C   UNL     1       3.643  -4.101   2.769  0.00  0.00    +0.023 A 
ATOM     14  C   UNL     1       3.200  -5.356   2.358  0.00  0.00    +0.043 A 
ATOM     15 CL   UNL     1       3.499  -6.731   3.349  0.00  0.00    -0.083 Cl
ATOM     16  C   UNL     1       2.506  -5.505   1.160  0.00  0.00    +0.043 A 
ATOM     17  C   UNL     1       2.255  -4.382   0.365  0.00  0.00    +0.085 A 
ATOM     18 CL   UNL     1       1.399  -4.614  -1.118  0.00  0.00    -0.080 Cl
ENDBRANCH  10  11
ENDBRANCH   2  10
TORSDOF 3
