REMARK  Name = 
REMARK  5 active torsions:
REMARK  status: ('A' for Active; 'I' for Inactive)
REMARK    1  A    between atoms: O_1  and  C_2
REMARK    2  A    between atoms: C_6  and  C_9
REMARK    3  A    between atoms: C_6  and  C_22
REMARK    4  A    between atoms: N_12  and  C_13
REMARK    5  A    between atoms: C_13  and  C_14
REMARK                            x       y       z     vdW  Elec       q    Type
REMARK                         _______ _______ _______ _____ _____    ______ ____
ROOT
ATOM      1  C   UNL     1       4.914   1.988   2.142  0.00  0.00    +0.179 C 
ATOM      2  C   UNL     1       3.967   2.155   1.027  0.00  0.00    +0.094 C 
ATOM      3  C   UNL     1       4.134   1.148  -0.090  0.00  0.00    +0.030 C 
ATOM      4  C   UNL     1       5.159  -0.022   0.094  0.00  0.00    +0.077 C 
ATOM      5  C   UNL     1       6.061   0.142   1.373  0.00  0.00    +0.250 C 
ATOM      6  O   UNL     1       6.973  -0.646   1.616  0.00  0.00    -0.273 OA
ATOM      7  N   UNL     1       5.833   1.122   2.296  0.00  0.00    -0.149 NA
ENDROOT
BRANCH   4   8
ATOM      8  C   UNL     1       6.119  -0.065  -1.193  0.00  0.00    +0.011 C 
ATOM      9  C   UNL     1       6.853   1.278  -1.453  0.00  0.00    +0.020 C 
ATOM     10  C   UNL     1       7.869   1.188  -2.596  0.00  0.00    +0.085 C 
ATOM     11  N   UNL     1       8.841   0.112  -2.415  0.00  0.00    -0.298 NA
ATOM     12  C   UNL     1       8.127  -1.173  -2.357  0.00  0.00    +0.085 C 
ATOM     13  C   UNL     1       7.114  -1.256  -1.216  0.00  0.00    +0.020 C 
BRANCH  11  14
ATOM     14  C   UNL     1       9.713   0.372  -1.249  0.00  0.00    +0.119 C 
BRANCH  14  15
ATOM     15  C   UNL     1      10.776  -0.682  -1.058  0.00  0.00    -0.033 A 
ATOM     16  C   UNL     1      10.770  -1.492   0.088  0.00  0.00    +0.005 A 
ATOM     17  C   UNL     1      11.681  -2.538   0.209  0.00  0.00    +0.000 A 
ATOM     18  C   UNL     1      12.608  -2.778  -0.802  0.00  0.00    +0.000 A 
ATOM     19  C   UNL     1      12.643  -1.956  -1.928  0.00  0.00    +0.000 A 
ATOM     20  C   UNL     1      11.737  -0.906  -2.052  0.00  0.00    +0.005 A 
ENDBRANCH  14  15
ENDBRANCH  11  14
ENDBRANCH   4   8
BRANCH   4  21
ATOM     21  C   UNL     1       4.326  -1.347   0.154  0.00  0.00    -0.032 A 
ATOM     22  C   UNL     1       3.491  -1.714  -0.926  0.00  0.00    +0.004 A 
ATOM     23  C   UNL     1       2.730  -2.888  -0.900  0.00  0.00    +0.000 A 
ATOM     24  C   UNL     1       2.791  -3.734   0.201  0.00  0.00    +0.000 A 
ATOM     25  C   UNL     1       3.607  -3.401   1.276  0.00  0.00    +0.000 A 
ATOM     26  C   UNL     1       4.359  -2.219   1.257  0.00  0.00    +0.004 A 
ENDBRANCH   4  21
BRANCH   1  27
ATOM     27  O   UNL     1       4.770   2.895   3.115  0.00  0.00    -0.497 OA
ATOM     28  H   UNL     1       5.430   2.696   3.803  0.00  0.00    +0.293 HD
ENDBRANCH   1  27
TORSDOF 5
