REMARK  Name = 
REMARK  5 active torsions:
REMARK  status: ('A' for Active; 'I' for Inactive)
REMARK    1  A    between atoms: O_1  and  C_2
REMARK    2  A    between atoms: C_2  and  C_4
REMARK    3  A    between atoms: C_4  and  C_5
REMARK    4  A    between atoms: C_5  and  C_6
REMARK    5  A    between atoms: N_8  and  C_9
REMARK                            x       y       z     vdW  Elec       q    Type
REMARK                         _______ _______ _______ _____ _____    ______ ____
ROOT
ATOM      1  C   UNL     1       5.433   0.514  -2.363  0.00  0.00    +0.219 C 
ATOM      2  N   UNL     1       6.764   0.169  -2.468  0.00  0.00    -0.270 N 
ATOM      3  H   UNL     1       7.084  -0.654  -1.973  0.00  0.00    +0.156 HD
ATOM      4  O   UNL     1       4.774   1.093  -3.222  0.00  0.00    -0.275 OA
ENDROOT
BRANCH   2   5
ATOM      5  C   UNL     1       7.523   0.454  -3.603  0.00  0.00    +0.125 A 
ATOM      6  N   UNL     1       8.380  -0.517  -3.973  0.00  0.00    -0.239 NA
ATOM      7  C   UNL     1       9.016  -0.343  -5.158  0.00  0.00    +0.128 A 
ATOM      8  C   UNL     1       8.888   0.791  -5.946  0.00  0.00    +0.036 A 
ATOM      9 BR   UNL     1       9.761   0.919  -7.611  0.00  0.00    -0.049 Br
ATOM     10  C   UNL     1       8.081   1.823  -5.492  0.00  0.00    +0.020 A 
ATOM     11  C   UNL     1       7.380   1.650  -4.302  0.00  0.00    +0.045 A 
ENDBRANCH   2   5
BRANCH   1  12
ATOM     12  C   UNL     1       4.823   0.164  -1.031  0.00  0.00    +0.107 C 
BRANCH  12  13
ATOM     13  C   UNL     1       5.258   1.206  -0.005  0.00  0.00    +0.129 C 
BRANCH  13  14
ATOM     14  C   UNL     1       4.576   0.996   1.312  0.00  0.00    +0.305 C 
ATOM     15  O   UNL     1       3.801   0.085   1.568  0.00  0.00    -0.251 OA
BRANCH  14  16
ATOM     16  O   UNL     1       4.927   1.928   2.228  0.00  0.00    -0.481 OA
ATOM     17  H   UNL     1       5.556   2.595   1.893  0.00  0.00    +0.295 HD
ENDBRANCH  14  16
ENDBRANCH  13  14
ENDBRANCH  12  13
ENDBRANCH   1  12
TORSDOF 5
