REMARK  Name = 
REMARK  5 active torsions:
REMARK  status: ('A' for Active; 'I' for Inactive)
REMARK    1  A    between atoms: C_2  and  N_3
REMARK    2  A    between atoms: C_2  and  C_4
REMARK    3  A    between atoms: C_2  and  C_11
REMARK    4  A    between atoms: C_4  and  C_5
REMARK    5  A    between atoms: C_11  and  C_13
REMARK                            x       y       z     vdW  Elec       q    Type
REMARK                         _______ _______ _______ _____ _____    ______ ____
ROOT
ATOM      1  C   UNL     1       2.114  -0.019   0.041  0.00  0.00    +0.123 C 
ENDROOT
BRANCH   1   2
ATOM      2  N   UNL     1       0.638  -0.139   0.103  0.00  0.00    -0.321 NA
ATOM      3  H   UNL     1       0.359  -0.445   1.035  0.00  0.00    +0.119 HD
ATOM      4  H   UNL     1       0.243   0.801   0.014  0.00  0.00    +0.119 HD
ENDBRANCH   1   2
BRANCH   1   5
ATOM      5  C   UNL     1       2.569   0.890   1.195  0.00  0.00    +0.165 C 
ATOM      6  O   UNL     1       1.879   1.843   1.573  0.00  0.00    -0.294 OA
BRANCH   5   7
ATOM      7  C   UNL     1       3.891   0.573   1.853  0.00  0.00    +0.184 C 
ATOM      8 CL   UNL     1       5.190   1.460   1.049  0.00  0.00    -0.117 Cl
ENDBRANCH   5   7
ENDBRANCH   1   5
BRANCH   1   9
ATOM      9  C   UNL     1       2.592   0.571  -1.299  0.00  0.00    +0.061 C 
BRANCH   9  10
ATOM     10  C   UNL     1       2.252  -0.278  -2.502  0.00  0.00    -0.045 A 
ATOM     11  C   UNL     1       3.098  -1.319  -2.907  0.00  0.00    +0.004 A 
ATOM     12  C   UNL     1       2.767  -2.109  -4.010  0.00  0.00    +0.000 A 
ATOM     13  C   UNL     1       1.589  -1.868  -4.716  0.00  0.00    +0.000 A 
ATOM     14  C   UNL     1       0.742  -0.835  -4.321  0.00  0.00    +0.000 A 
ATOM     15  C   UNL     1       1.072  -0.045  -3.220  0.00  0.00    +0.004 A 
ENDBRANCH   9  10
ENDBRANCH   1   9
TORSDOF 5
