REMARK  Name = 
REMARK  15 active torsions:
REMARK  status: ('A' for Active; 'I' for Inactive)
REMARK    1  A    between atoms: C_2  and  C_3
REMARK    2  A    between atoms: C_2  and  N_15
REMARK    3  A    between atoms: C_2  and  C_26
REMARK    4  A    between atoms: C_3  and  O_4
REMARK    5  A    between atoms: O_4  and  N_5
REMARK    6  A    between atoms: C_6  and  C_7
REMARK    7  A    between atoms: C_6  and  C_12
REMARK    8  A    between atoms: C_7  and  C_8
REMARK    9  A    between atoms: C_8  and  C_9
REMARK   10  A    between atoms: C_9  and  O_10
REMARK   11  A    between atoms: C_12  and  O_13
REMARK   12  A    between atoms: C_16  and  C_18
REMARK   13  A    between atoms: C_18  and  O_19
REMARK   14  A    between atoms: O_19  and  C_20
REMARK   15  A    between atoms: C_26  and  O_27
REMARK                            x       y       z     vdW  Elec       q    Type
REMARK                         _______ _______ _______ _____ _____    ______ ____
ROOT
ATOM      1  C   UNK A   1       2.222  -0.155   0.122  0.00  0.00    +0.222 C 
ENDROOT
BRANCH   1   2
ATOM      2  N   UNK A   1       2.562  -1.534  -0.241  0.00  0.00    -0.297 N 
ATOM      3  H   UNK A   1       3.539  -1.781  -0.354  0.00  0.00    +0.150 HD
ATOM      4  C   UNK A   0       1.603  -2.492  -0.483  0.00  0.00    +0.251 C 
ATOM      5  O   UNK A   0       0.401  -2.273  -0.363  0.00  0.00    -0.272 OA
BRANCH   4   6
ATOM      6  C   UNK A   0       2.162  -3.859  -0.870  0.00  0.00    +0.324 C 
BRANCH   6   7
ATOM      7  O   UNK A   0       2.430  -4.579   0.329  0.00  0.00    -0.483 OA
BRANCH   7   8
ATOM      8  C   UNK A   0       2.872  -5.866   0.187  0.00  0.00    +0.121 A 
ATOM      9  C   UNK A   0       3.027  -6.570   1.385  0.00  0.00    +0.045 A 
ATOM     10  C   UNK A   0       3.489  -7.888   1.383  0.00  0.00    +0.004 A 
ATOM     11  C   UNK A   0       3.799  -8.514   0.178  0.00  0.00    +0.000 A 
ATOM     12  C   UNK A   0       3.641  -7.821  -1.021  0.00  0.00    +0.004 A 
ATOM     13  C   UNK A   0       3.179  -6.501  -1.018  0.00  0.00    +0.045 A 
ENDBRANCH   7   8
ENDBRANCH   6   7
ENDBRANCH   4   6
ENDBRANCH   1   2
BRANCH   1  14
ATOM     14  C   UNK A   1       2.692   0.791  -0.994  0.00  0.00    +0.329 C 
ATOM     15  O   UNK A   1       2.061   0.982  -2.025  0.00  0.00    -0.249 OA
BRANCH  14  16
ATOM     16  O   UNK A   1       3.933   1.312  -0.839  0.00  0.00    -0.479 OA
ATOM     17  H   UNK A   1       4.413   1.025  -0.038  0.00  0.00    +0.295 HD
ENDBRANCH  14  16
ENDBRANCH   1  14
BRANCH   1  18
ATOM     18  C   UNK A   1       2.787   0.208   1.494  0.00  0.00    +0.296 C 
BRANCH  18  19
ATOM     19  O   UNK A   1       4.196  -0.054   1.441  0.00  0.00    -0.391 OA
BRANCH  19  20
ATOM     20  N   UNK A   1       4.819   0.359   2.615  0.00  0.00    -0.082 NA
ATOM     21  C   UNK A   1       6.001  -0.189   2.718  0.00  0.00    +0.164 C 
BRANCH  21  22
ATOM     22  C   UNK A   1       6.826   0.194   3.948  0.00  0.00    +0.354 C 
ATOM     23  O   UNK A   1       7.922  -0.276   4.174  0.00  0.00    -0.244 OA
BRANCH  22  24
ATOM     24  O   UNK A   1       6.176   1.079   4.719  0.00  0.00    -0.476 OA
ATOM     25  H   UNK A   1       5.307   1.298   4.312  0.00  0.00    +0.295 HD
ENDBRANCH  22  24
ENDBRANCH  21  22
BRANCH  21  26
ATOM     26  C   UNK A   1       6.630  -1.166   1.744  0.00  0.00    +0.077 C 
BRANCH  26  27
ATOM     27  C   UNK A   1       6.802  -2.549   2.367  0.00  0.00    +0.127 C 
BRANCH  27  28
ATOM     28  C   UNK A   1       7.412  -3.509   1.377  0.00  0.00    +0.305 C 
ATOM     29  O   UNK A   1       7.227  -3.457   0.170  0.00  0.00    -0.251 OA
BRANCH  28  30
ATOM     30  O   UNK A   1       8.161  -4.471   1.957  0.00  0.00    -0.481 OA
ATOM     31  H   UNK A   1       8.234  -4.408   2.929  0.00  0.00    +0.295 HD
ENDBRANCH  28  30
ENDBRANCH  27  28
ENDBRANCH  26  27
ENDBRANCH  21  26
ENDBRANCH  19  20
ENDBRANCH  18  19
ENDBRANCH   1  18
TORSDOF 15
