REMARK  Name = 
REMARK  2 active torsions:
REMARK  status: ('A' for Active; 'I' for Inactive)
REMARK    1  A    between atoms: N_1  and  C_2
REMARK    2  A    between atoms: N_16  and  C_17
REMARK                            x       y       z     vdW  Elec       q    Type
REMARK                         _______ _______ _______ _____ _____    ______ ____
ROOT
ATOM      1  N   UNL     1       1.082  -0.118   0.218  0.00  0.00    -0.283 N 
ATOM      2  H   UNL     1       0.762   0.840   0.274  0.00  0.00    +0.155 HD
ATOM      3  C   UNL     1       2.451  -0.190   0.163  0.00  0.00    +0.224 A 
ATOM      4  N   UNL     1       3.062   1.049   0.114  0.00  0.00    -0.181 NA
ATOM      5  C   UNL     1       4.361   1.151   0.087  0.00  0.00    +0.225 A 
ATOM      6  N   UNL     1       5.077   2.335   0.029  0.00  0.00    -0.283 N 
ATOM      7  H   UNL     1       6.088   2.235   0.093  0.00  0.00    +0.155 HD
ATOM      8  N   UNL     1       5.099  -0.037   0.125  0.00  0.00    -0.183 N 
ATOM      9  C   UNL     1       4.473  -1.246   0.136  0.00  0.00    +0.163 A 
ATOM     10  C   UNL     1       5.474  -2.185   0.103  0.00  0.00    +0.070 A 
ATOM     11  C   UNL     1       6.667  -1.432   0.087  0.00  0.00    +0.137 A 
ATOM     12  N   UNL     1       6.452  -0.108   0.106  0.00  0.00    -0.170 NA
ATOM     13  N   UNL     1       3.125  -1.312   0.162  0.00  0.00    -0.195 NA
ENDROOT
BRANCH   6  14
ATOM     14  C   UNL     1       4.620   3.572  -0.465  0.00  0.00    +0.034 A 
ATOM     15  C   UNL     1       5.406   4.721  -0.287  0.00  0.00    +0.023 A 
ATOM     16  C   UNL     1       4.950   5.979  -0.700  0.00  0.00    +0.002 A 
ATOM     17  C   UNL     1       3.694   6.114  -1.282  0.00  0.00    +0.000 A 
ATOM     18  C   UNL     1       2.897   4.992  -1.463  0.00  0.00    +0.002 A 
ATOM     19  C   UNL     1       3.360   3.739  -1.057  0.00  0.00    +0.023 A 
ENDBRANCH   6  14
BRANCH   1  20
ATOM     20  C   UNL     1       0.209  -1.058   0.795  0.00  0.00    +0.034 A 
ATOM     21  C   UNL     1       0.507  -2.421   0.905  0.00  0.00    +0.023 A 
ATOM     22  C   UNL     1      -0.349  -3.303   1.567  0.00  0.00    +0.002 A 
ATOM     23  C   UNL     1      -1.543  -2.839   2.104  0.00  0.00    +0.000 A 
ATOM     24  C   UNL     1      -1.894  -1.501   1.951  0.00  0.00    +0.002 A 
ATOM     25  C   UNL     1      -1.030  -0.621   1.292  0.00  0.00    +0.023 A 
ENDBRANCH   1  20
TORSDOF 2
