REMARK  Name = 
REMARK  5 active torsions:
REMARK  status: ('A' for Active; 'I' for Inactive)
REMARK    1  A    between atoms: N_1  and  N_2
REMARK    2  A    between atoms: C_3  and  C_5
REMARK    3  A    between atoms: C_6  and  C_18
REMARK    4  A    between atoms: C_12  and  S_14
REMARK    5  A    between atoms: S_14  and  N_15
REMARK                            x       y       z     vdW  Elec       q    Type
REMARK                         _______ _______ _______ _____ _____    ______ ____
ROOT
ATOM      1  C   UNL     1       4.547   1.251   0.017  0.00  0.00    +0.112 A 
ATOM      2  N   UNL     1       5.419   1.250  -1.050  0.00  0.00    -0.350 N 
ATOM      3  H   UNL     1       5.134   1.353  -2.014  0.00  0.00    +0.166 HD
ATOM      4  C   UNL     1       6.722   1.197  -0.641  0.00  0.00    +0.048 A 
ATOM      5  C   UNL     1       7.895   1.217  -1.407  0.00  0.00    +0.028 A 
ATOM      6  C   UNL     1       9.113   1.176  -0.728  0.00  0.00    +0.030 A 
ATOM      7  C   UNL     1       9.137   1.084   0.661  0.00  0.00    +0.106 A 
ATOM      8  C   UNL     1       7.951   1.041   1.414  0.00  0.00    +0.039 A 
ATOM      9  C   UNL     1       6.705   1.125   0.751  0.00  0.00    +0.010 A 
ATOM     10  C   UNL     1       5.321   1.164   1.177  0.00  0.00    +0.020 A 
ENDROOT
BRANCH  10  11
ATOM     11  C   UNL     1       4.789   1.147   2.548  0.00  0.00    -0.015 A 
ATOM     12  C   UNL     1       5.490   1.774   3.591  0.00  0.00    +0.008 A 
ATOM     13  C   UNL     1       5.002   1.768   4.902  0.00  0.00    +0.001 A 
ATOM     14  C   UNL     1       3.783   1.164   5.189  0.00  0.00    +0.000 A 
ATOM     15  C   UNL     1       3.070   0.540   4.171  0.00  0.00    +0.001 A 
ATOM     16  C   UNL     1       3.580   0.511   2.867  0.00  0.00    +0.008 A 
ENDBRANCH  10  11
BRANCH   1  19
ATOM     17  N   UNL     1       2.637   0.675  -1.282  0.00  0.00    -0.248 N 
ATOM     18  H   UNL     1       3.197  -0.109  -1.608  0.00  0.00    +0.169 HD
ATOM     19  C   UNL     1       3.120   1.409  -0.192  0.00  0.00    +0.274 C 
ATOM     20  O   UNL     1       2.388   2.128   0.484  0.00  0.00    -0.267 OA
BRANCH  17  21
ATOM     21  N   UNL     1       1.247   0.644  -1.544  0.00  0.00    -0.254 NA
ATOM     22  H   UNL     1       0.835   1.472  -1.089  0.00  0.00    +0.140 HD
ATOM     23  H   UNL     1       1.091   0.780  -2.545  0.00  0.00    +0.140 HD
ENDBRANCH  17  21
ENDBRANCH   1  19
BRANCH   7  24
ATOM     24  S   UNL     1      10.692   1.077   1.506  0.00  0.00    +0.056 S 
ATOM     25  O   UNL     1      10.499   1.517   2.868  0.00  0.00    -0.153 OA
ATOM     26  O   UNL     1      11.706   1.639   0.645  0.00  0.00    -0.153 OA
BRANCH  24  27
ATOM     27  N   UNL     1      11.015  -0.567   1.591  0.00  0.00    -0.204 NA
ATOM     28  H   UNL     1      11.021  -0.871   2.565  0.00  0.00    +0.144 HD
ATOM     29  H   UNL     1      11.874  -0.778   1.083  0.00  0.00    +0.144 HD
ENDBRANCH  24  27
ENDBRANCH   7  24
TORSDOF 5
