REMARK  Name = 
REMARK  8 active torsions:
REMARK  status: ('A' for Active; 'I' for Inactive)
REMARK    1  A    between atoms: C_4  and  C_5
REMARK    2  A    between atoms: C_4  and  C_6
REMARK    3  A    between atoms: CA_7  and  C_28
REMARK    4  A    between atoms: CA_12  and  N_14
REMARK    5  A    between atoms: C_15  and  C_17
REMARK    6  A    between atoms: C_17  and  N_19
REMARK    7  A    between atoms: C_17  and  C_22
REMARK    8  A    between atoms: C_28  and  O_29
REMARK                            x       y       z     vdW  Elec       q    Type
REMARK                         _______ _______ _______ _____ _____    ______ ____
ROOT
ATOM      1  C   UNL     1       8.096  -2.273   2.266  0.00  0.00    +0.165 C 
ATOM      2  CA  UNL     1       7.590  -1.223   3.291  0.00  0.00    +0.190 C 
ATOM      3  C   UNL     1       8.231  -0.196   2.332  0.00  0.00    +0.240 C 
ATOM      4  O   UNL     1       8.145   0.993   2.130  0.00  0.00    -0.273 OA
ATOM      5  N   UNL     1       8.825  -1.179   1.583  0.00  0.00    -0.271 N 
ATOM      6  CA  UNL     1       8.727  -1.142   0.111  0.00  0.00    +0.201 C 
ATOM      7  C   UNL     1       7.317  -1.662  -0.266  0.00  0.00    +0.042 C 
ATOM      8  C   UNL     1       6.249  -0.552  -0.177  0.00  0.00    +0.025 C 
ATOM      9  C   UNL     1       7.192  -2.290  -1.658  0.00  0.00    +0.025 C 
ATOM     10  S   UNL     1       6.897  -2.917   1.026  0.00  0.00    -0.127 S 
ENDROOT
BRANCH   2  11
ATOM     11  N   UNL     1       6.126  -1.134   3.495  0.00  0.00    -0.300 N 
ATOM     12  H   UNL     1       5.557  -0.439   3.017  0.00  0.00    +0.150 HD
ATOM     13  C   UNL     1       5.450  -2.083   4.233  0.00  0.00    +0.250 C 
ATOM     14  O   UNL     1       6.051  -2.985   4.813  0.00  0.00    -0.273 OA
BRANCH  13  15
ATOM     15  C   UNL     1       3.916  -1.932   4.257  0.00  0.00    +0.306 C 
BRANCH  15  16
ATOM     16  C   UNL     1       3.402  -1.670   5.660  0.00  0.00    -0.007 A 
ATOM     17  C   UNL     1       3.236  -0.367   6.156  0.00  0.00    +0.006 A 
ATOM     18  C   UNL     1       2.763  -0.155   7.454  0.00  0.00    +0.000 A 
ATOM     19  C   UNL     1       2.460  -1.239   8.275  0.00  0.00    +0.000 A 
ATOM     20  C   UNL     1       2.638  -2.537   7.804  0.00  0.00    +0.000 A 
ATOM     21  C   UNL     1       3.109  -2.751   6.507  0.00  0.00    +0.006 A 
ENDBRANCH  15  16
BRANCH  15  22
ATOM     22  N   UNL     1       3.534  -0.865   3.294  0.00  0.00    +0.094 NA
ATOM     23  N   UNL     1       2.694  -1.204   2.441  0.00  0.00    -0.014 NA
ATOM     24  N   UNL     1       1.939  -1.512   1.647  0.00  0.00    -0.328 NA
ENDBRANCH  15  22
ENDBRANCH  13  15
ENDBRANCH   2  11
BRANCH   6  25
ATOM     25  C   UNL     1       9.912  -1.943  -0.461  0.00  0.00    +0.327 C 
ATOM     26  OXT UNL     1      10.074  -2.208  -1.643  0.00  0.00    -0.249 OA
BRANCH  25  27
ATOM     27  O   UNL     1      10.847  -2.272   0.468  0.00  0.00    -0.479 OA
ATOM     28  H   UNL     1      10.606  -1.894   1.340  0.00  0.00    +0.295 HD
ENDBRANCH  25  27
ENDBRANCH   6  25
TORSDOF 6
