REMARK  Name = 
REMARK  1 active torsions:
REMARK  status: ('A' for Active; 'I' for Inactive)
REMARK    1  A    between atoms: C_2  and  N_3
REMARK                            x       y       z     vdW  Elec       q    Type
REMARK                         _______ _______ _______ _____ _____    ______ ____
ROOT
ATOM      1  C   UNL     1       1.810   0.001  -0.014  0.00  0.00    +0.138 C 
ATOM      2  C   UNL     1       2.441   1.230  -0.712  0.00  0.00    +0.230 C 
ATOM      3  O   UNL     1       3.140   1.187  -1.719  0.00  0.00    -0.274 OA
ATOM      4  N   UNL     1       2.242   2.398   0.032  0.00  0.00    -0.314 N 
ATOM      5  H   UNL     1       1.621   2.304   0.825  0.00  0.00    +0.149 HD
ATOM      6  C   UNL     1       3.394   3.254   0.261  0.00  0.00    +0.104 C 
ATOM      7  C   UNL     1       4.551   2.406   0.800  0.00  0.00    +0.019 C 
ATOM      8  C   UNL     1       5.447   3.099   1.813  0.00  0.00    +0.002 C 
ATOM      9  C   UNL     1       6.610   2.204   2.272  0.00  0.00    +0.000 C 
ATOM     10  C   UNL     1       6.183   0.857   2.893  0.00  0.00    +0.000 C 
ATOM     11  C   UNL     1       6.176  -0.300   1.876  0.00  0.00    +0.000 C 
ATOM     12  C   UNL     1       4.909  -1.167   1.954  0.00  0.00    +0.000 C 
ATOM     13  C   UNL     1       4.556  -1.773   0.587  0.00  0.00    +0.000 C 
ATOM     14  C   UNL     1       3.081  -2.188   0.463  0.00  0.00    +0.002 C 
ATOM     15  C   UNL     1       2.297  -1.350  -0.572  0.00  0.00    +0.028 C 
ENDROOT
BRANCH   1  16
ATOM     16  N   UNL     1       0.336   0.097  -0.076  0.00  0.00    -0.320 NA
ATOM     17  H   UNL     1       0.030   1.017   0.231  0.00  0.00    +0.119 HD
ATOM     18  H   UNL     1       0.056   0.030  -1.056  0.00  0.00    +0.119 HD
ENDBRANCH   1  16
TORSDOF 1
