REMARK  Name = 
REMARK  6 active torsions:
REMARK  status: ('A' for Active; 'I' for Inactive)
REMARK    1  A    between atoms: O_1  and  C_2
REMARK    2  A    between atoms: C_2  and  C_4
REMARK    3  A    between atoms: C_4  and  C_5
REMARK    4  A    between atoms: N_7  and  C_8
REMARK    5  A    between atoms: C_8  and  C_9
REMARK    6  A    between atoms: C_16  and  C_18
REMARK                            x       y       z     vdW  Elec       q    Type
REMARK                         _______ _______ _______ _____ _____    ______ ____
ROOT
ATOM      1  C   UNL     1       4.632  -0.260   1.086  0.00  0.00    +0.080 A 
ATOM      2  C   UNL     1       5.249   1.080   0.969  0.00  0.00    +0.011 A 
ATOM      3  C   UNL     1       4.539   2.283   1.072  0.00  0.00    +0.010 A 
ATOM      4  C   UNL     1       5.190   3.505   0.873  0.00  0.00    +0.001 A 
ATOM      5  C   UNL     1       6.551   3.536   0.581  0.00  0.00    +0.001 A 
ATOM      6  C   UNL     1       7.270   2.345   0.514  0.00  0.00    +0.014 A 
ATOM      7  C   UNL     1       6.620   1.119   0.717  0.00  0.00    +0.050 A 
ATOM      8  C   UNL     1       7.389  -0.137   0.647  0.00  0.00    +0.275 A 
ATOM      9  O   UNL     1       8.606  -0.092   0.488  0.00  0.00    -0.266 OA
ATOM     10  N   UNL     1       6.659  -1.320   0.751  0.00  0.00    -0.222 N 
ATOM     11  N   UNL     1       5.306  -1.368   0.987  0.00  0.00    -0.172 NA
ENDROOT
BRANCH   1  12
ATOM     12  C   UNL     1       3.140  -0.430   1.294  0.00  0.00    +0.178 C 
BRANCH  12  13
ATOM     13  C   UNL     1       2.760  -1.104   2.584  0.00  0.00    +0.311 C 
ATOM     14  O   UNL     1       1.726  -0.840   3.185  0.00  0.00    -0.251 OA
BRANCH  13  15
ATOM     15  O   UNL     1       3.605  -2.070   3.003  0.00  0.00    -0.480 OA
ATOM     16  H   UNL     1       4.366  -2.211   2.393  0.00  0.00    +0.295 HD
ENDBRANCH  13  15
ENDBRANCH  12  13
ENDBRANCH   1  12
BRANCH  10  17
ATOM     17  C   UNL     1       7.323  -2.602   0.466  0.00  0.00    +0.210 C 
BRANCH  17  18
ATOM     18  C   UNL     1       7.287  -2.874  -1.020  0.00  0.00    +0.101 A 
ATOM     19  S   UNL     1       8.466  -2.137  -2.035  0.00  0.00    -0.070 S 
ATOM     20  C   UNL     1       7.636  -2.711  -3.419  0.00  0.00    +0.039 A 
ATOM     21  C   UNL     1       7.903  -2.437  -4.767  0.00  0.00    +0.018 A 
ATOM     22  C   UNL     1       7.120  -3.064  -5.736  0.00  0.00    +0.013 A 
ATOM     23  C   UNL     1       6.112  -3.968  -5.383  0.00  0.00    +0.057 A 
ATOM     24  C   UNL     1       5.837  -4.199  -4.018  0.00  0.00    +0.041 A 
ATOM     25  C   UNL     1       6.596  -3.548  -3.019  0.00  0.00    +0.079 A 
ATOM     26  N   UNL     1       6.413  -3.642  -1.643  0.00  0.00    -0.242 NA
BRANCH  23  27
ATOM     27  C   UNL     1       5.349  -4.714  -6.452  0.00  0.00    +0.417 C 
ATOM     28  F   UNL     1       4.007  -4.504  -6.388  0.00  0.00    -0.166 F 
ATOM     29  F   UNL     1       5.526  -6.061  -6.371  0.00  0.00    -0.166 F 
ATOM     30  F   UNL     1       5.720  -4.369  -7.718  0.00  0.00    -0.166 F 
ENDBRANCH  23  27
ENDBRANCH  17  18
ENDBRANCH  10  17
TORSDOF 6
