REMARK  Name = 
REMARK  5 active torsions:
REMARK  status: ('A' for Active; 'I' for Inactive)
REMARK    1  A    between atoms: C_2  and  C_3
REMARK    2  A    between atoms: C_6  and  N_7
REMARK    3  A    between atoms: C_10  and  C_12
REMARK    4  A    between atoms: C_18  and  O_19
REMARK    5  A    between atoms: C_24  and  C_25
REMARK                            x       y       z     vdW  Elec       q    Type
REMARK                         _______ _______ _______ _____ _____    ______ ____
ROOT
ATOM      1  N   UNL     1       8.088  -0.297   0.053  0.00  0.00    -0.199 NA
ATOM      2  C   UNL     1       8.905  -1.279  -0.109  0.00  0.00    +0.287 C 
ATOM      3  N   UNL     1      10.249  -1.164  -0.372  0.00  0.00    -0.276 N 
ATOM      4  C   UNL     1      10.699  -2.369  -1.040  0.00  0.00    +0.156 C 
ATOM      5  C   UNL     1      12.138  -2.633  -0.612  0.00  0.00    +0.140 C 
ATOM      6  C   UNL     1      12.493  -1.503   0.351  0.00  0.00    +0.052 C 
ATOM      7  C   UNL     1       9.688  -3.388  -0.540  0.00  0.00    +0.302 C 
ATOM      8  C   UNL     1      11.197  -0.745   0.648  0.00  0.00    +0.112 C 
ATOM      9  O   UNL     1       8.547  -2.594  -0.123  0.00  0.00    -0.451 OA
ENDROOT
BRANCH   1  15
ATOM     10  C   UNL     1       3.888   0.067   0.550  0.00  0.00    +0.070 A 
ATOM     11  C   UNL     1       4.358  -0.991  -0.233  0.00  0.00    +0.063 A 
ATOM     12 CL   UNL     1       3.201  -2.104  -0.917  0.00  0.00    -0.082 Cl
ATOM     13  C   UNL     1       5.753  -1.165  -0.478  0.00  0.00    -0.005 A 
ATOM     14  C   UNL     1       6.183  -2.199  -1.483  0.00  0.00    +0.047 C 
ATOM     15  C   UNL     1       6.687  -0.350   0.209  0.00  0.00    +0.073 A 
ATOM     16  C   UNL     1       6.177   0.683   1.015  0.00  0.00    +0.029 A 
ATOM     17  C   UNL     1       4.806   0.915   1.166  0.00  0.00    +0.022 A 
BRANCH  10  19
ATOM     18  N   UNL     1       1.362   0.610   0.838  0.00  0.00    -0.191 NA
ATOM     19  C   UNL     1       2.484   0.348   0.705  0.00  0.00    +0.101 C 
ENDBRANCH  10  19
ENDBRANCH   1  15
BRANCH   7  20
ATOM     20  C   UNL     1       9.357  -4.395  -1.638  0.00  0.00    +0.428 C 
ATOM     21  F   UNL     1       9.674  -5.649  -1.231  0.00  0.00    -0.167 F 
ATOM     22  F   UNL     1      10.059  -4.175  -2.774  0.00  0.00    -0.167 F 
ATOM     23  F   UNL     1       8.052  -4.404  -1.972  0.00  0.00    -0.167 F 
ENDBRANCH   7  20
BRANCH   5  24
ATOM     24  O   UNL     1      13.031  -2.567  -1.725  0.00  0.00    -0.390 OA
ATOM     25  H   UNL     1      12.750  -3.208  -2.402  0.00  0.00    +0.210 HD
ENDBRANCH   5  24
TORSDOF 4
