REMARK  Name = 
REMARK  1 active torsions:
REMARK  status: ('A' for Active; 'I' for Inactive)
REMARK    1  A    between atoms: C_32  and  C_34
REMARK                            x       y       z     vdW  Elec       q    Type
REMARK                         _______ _______ _______ _____ _____    ______ ____
ROOT
ATOM      1  C   UNL     1      -0.000  -0.000  -0.000  0.00  0.00    +0.142 C 
ATOM      2  N   UNL     1      -0.000  -0.000  -0.000  0.00  0.00    -0.305 NA
ATOM      3  H   UNL     1       0.000   0.000   0.000  0.00  0.00    +0.123 HD
ATOM      4  C   UNL     1      -0.000  -0.000   0.000  0.00  0.00    +0.088 C 
ATOM      5  C   UNL     1      -0.000  -0.000  -0.000  0.00  0.00    +0.070 C 
ATOM      6  C   UNL     1      -0.000  -0.000  -0.000  0.00  0.00    +0.040 A 
ATOM      7  N   UNL     1      -0.000  -0.000  -0.000  0.00  0.00    -0.330 N 
ATOM      8  C   UNL     1      -0.000  -0.000  -0.000  0.00  0.00    +0.199 A 
ATOM      9  N   UNL     1      -0.000  -0.000  -0.000  0.00  0.00    -0.244 NA
ATOM     10  C   UNL     1      -0.000  -0.000  -0.000  0.00  0.00    +0.153 C 
ATOM     11  C   UNL     1      -0.000  -0.000  -0.000  0.00  0.00    -0.050 C 
ATOM     12  C   UNL     1      -0.000  -0.000  -0.000  0.00  0.00    -0.024 C 
ATOM     13  C   UNL     1      -0.000  -0.000  -0.000  0.00  0.00    +0.049 C 
ATOM     14  C   UNL     1      -0.000  -0.000  -0.000  0.00  0.00    +0.136 C 
ATOM     15  C   UNL     1      -0.000  -0.000  -0.000  0.00  0.00    +0.195 C 
ATOM     16  O   UNL     1      -0.000  -0.000  -0.000  0.00  0.00    -0.487 OA
ATOM     17  C   UNL     1      -0.000  -0.000  -0.000  0.00  0.00    +0.122 A 
ATOM     18  C   UNL     1      -0.000  -0.000  -0.000  0.00  0.00    +0.056 A 
ATOM     19  C   UNL     1      -0.000  -0.000  -0.000  0.00  0.00    +0.007 A 
ATOM     20  C   UNL     1      -0.000  -0.000  -0.000  0.00  0.00    -0.016 A 
ATOM     21  C   UNL     1      -0.000  -0.000  -0.000  0.00  0.00    +0.012 A 
ATOM     22  C   UNL     1      -0.000  -0.000  -0.000  0.00  0.00    +0.008 A 
ATOM     23  C   UNL     1      -0.000  -0.000  -0.000  0.00  0.00    +0.002 A 
ATOM     24  C   UNL     1      -0.000  -0.000  -0.000  0.00  0.00    +0.024 A 
ATOM     25  C   UNL     1      -0.000  -0.000  -0.000  0.00  0.00    +0.044 A 
ATOM     26  N   UNL     1      -0.000  -0.000  -0.000  0.00  0.00    -0.269 N 
ATOM     27  C   UNL     1      -0.000  -0.000  -0.000  0.00  0.00    +0.116 C 
ATOM     28  C   UNL     1      -0.000  -0.000  -0.000  0.00  0.00    +0.046 A 
ATOM     29  C   UNL     1      -0.000  -0.000  -0.000  0.00  0.00    +0.078 C 
ATOM     30  C   UNL     1      -0.000  -0.000  -0.000  0.00  0.00    +0.133 A 
ATOM     31  C   UNL     1      -0.000  -0.000  -0.000  0.00  0.00    +0.237 C 
ATOM     32  O   UNL     1      -0.000  -0.000  -0.000  0.00  0.00    -0.274 OA
ATOM     33  C   UNL     1      -0.000  -0.000  -0.000  0.00  0.00    +0.047 C 
ENDROOT
BRANCH  14  34
ATOM     34  C   UNL     1      -0.000  -0.000  -0.000  0.00  0.00    +0.070 C 
ATOM     35  N   UNL     1      -0.000  -0.000  -0.000  0.00  0.00    -0.196 NA
ENDBRANCH  14  34
TORSDOF 1
