REMARK  Name = 
REMARK  14 active torsions:
REMARK  status: ('A' for Active; 'I' for Inactive)
REMARK    1  A    between atoms: C_2  and  N_3
REMARK    2  A    between atoms: C_2  and  C_4
REMARK    3  A    between atoms: C_2  and  C_13
REMARK    4  A    between atoms: C_4  and  C_5
REMARK    5  A    between atoms: C_8  and  O_9
REMARK    6  A    between atoms: O_9  and  C_10
REMARK    7  A    between atoms: N_15  and  C_16
REMARK    8  A    between atoms: C_18  and  C_20
REMARK    9  A    between atoms: C_20  and  O_21
REMARK   10  A    between atoms: C_23  and  N_25
REMARK   11  A    between atoms: C_29  and  N_34
REMARK   12  A    between atoms: N_34  and  C_35
REMARK   13  A    between atoms: N_34  and  C_36
REMARK   14  A    between atoms: C_37  and  O_39
REMARK                            x       y       z     vdW  Elec       q    Type
REMARK                         _______ _______ _______ _____ _____    ______ ____
ROOT
ATOM      1  C   UNL     1       4.523   2.293   2.154  0.00  0.00    +0.137 C 
ATOM      2  C   UNL     1       3.596   2.077   3.359  0.00  0.00    +0.187 C 
ATOM      3  C   UNL     1       3.194   3.495   3.812  0.00  0.00    +0.253 C 
ATOM      4  O   UNL     1       3.755   4.421   2.855  0.00  0.00    -0.346 OA
ATOM      5  C   UNL     1       4.115   3.688   1.666  0.00  0.00    +0.169 C 
ENDROOT
BRANCH   3   6
ATOM      6  N   UNL     1       1.770   3.774   3.940  0.00  0.00    -0.286 N 
ATOM      7  C   UNL     1       0.800   2.968   4.482  0.00  0.00    +0.167 A 
ATOM      8  C   UNL     1      -0.361   3.729   4.474  0.00  0.00    +0.148 A 
ATOM      9  C   UNL     1      -1.541   3.141   5.000  0.00  0.00    +0.152 A 
ATOM     10  N   UNL     1      -1.414   1.861   5.473  0.00  0.00    -0.218 NA
ATOM     11  C   UNL     1      -0.217   1.240   5.414  0.00  0.00    +0.225 A 
ATOM     12  N   UNL     1      -0.095   4.987   3.965  0.00  0.00    -0.231 NA
ATOM     13  N   UNL     1       0.948   1.717   4.939  0.00  0.00    -0.216 NA
ATOM     14  C   UNL     1       1.187   4.986   3.676  0.00  0.00    +0.203 A 
BRANCH   9  15
ATOM     15  N   UNL     1      -2.762   3.796   5.121  0.00  0.00    -0.319 N 
ATOM     16  C   UNL     1      -3.838   3.168   5.871  0.00  0.00    +0.130 C 
ATOM     17  C   UNL     1      -3.151   4.824   4.168  0.00  0.00    +0.130 C 
ENDBRANCH   9  15
ENDBRANCH   3   6
BRANCH   1  19
ATOM     18  C   UNL     1       6.985   2.368   1.716  0.00  0.00    +0.231 C 
ATOM     19  N   UNL     1       5.930   2.169   2.588  0.00  0.00    -0.306 N 
ATOM     20  H   UNL     1       6.069   1.401   3.235  0.00  0.00    +0.149 HD
ATOM     21  O   UNL     1       6.843   2.863   0.600  0.00  0.00    -0.274 OA
BRANCH  18  22
ATOM     22  C   UNL     1       8.386   2.042   2.297  0.00  0.00    +0.142 C 
BRANCH  22  23
ATOM     23  N   UNL     1       8.683   3.001   3.390  0.00  0.00    -0.320 NA
ATOM     24  H   UNL     1       8.635   3.945   3.000  0.00  0.00    +0.119 HD
ATOM     25  H   UNL     1       7.942   2.956   4.087  0.00  0.00    +0.119 HD
ENDBRANCH  22  23
BRANCH  22  26
ATOM     26  C   UNL     1       8.535   0.597   2.815  0.00  0.00    +0.063 C 
BRANCH  26  27
ATOM     27  C   UNL     1       8.192  -0.496   1.827  0.00  0.00    -0.045 A 
ATOM     28  C   UNL     1       7.555  -1.661   2.280  0.00  0.00    +0.007 A 
ATOM     29  C   UNL     1       7.200  -2.681   1.389  0.00  0.00    +0.046 A 
ATOM     30  C   UNL     1       7.487  -2.553   0.032  0.00  0.00    +0.120 A 
ATOM     31  C   UNL     1       8.147  -1.412  -0.420  0.00  0.00    +0.046 A 
ATOM     32  C   UNL     1       8.518  -0.401   0.470  0.00  0.00    +0.007 A 
BRANCH  30  33
ATOM     33  O   UNL     1       7.130  -3.441  -0.944  0.00  0.00    -0.495 OA
ATOM     34  C   UNL     1       6.994  -4.797  -0.541  0.00  0.00    +0.277 C 
ENDBRANCH  30  33
ENDBRANCH  26  27
ENDBRANCH  22  26
ENDBRANCH  18  22
ENDBRANCH   1  19
BRANCH   2  35
ATOM     35  O   UNL     1       4.291   1.348   4.394  0.00  0.00    -0.385 OA
ATOM     36  H   UNL     1       4.888   1.973   4.846  0.00  0.00    +0.210 HD
ENDBRANCH   2  35
BRANCH   5  37
ATOM     37  C   UNL     1       2.917   3.672   0.697  0.00  0.00    +0.189 C 
BRANCH  37  38
ATOM     38  O   UNL     1       3.219   3.013  -0.521  0.00  0.00    -0.392 OA
ATOM     39  H   UNL     1       3.719   3.636  -1.081  0.00  0.00    +0.210 HD
ENDBRANCH  37  38
ENDBRANCH   5  37
TORSDOF 11
