REMARK  Name = 
REMARK  7 active torsions:
REMARK  status: ('A' for Active; 'I' for Inactive)
REMARK    1  A    between atoms: C_1  and  N_2
REMARK    2  A    between atoms: N_7  and  C_8
REMARK    3  A    between atoms: C_16  and  N_17
REMARK    4  A    between atoms: N_17  and  C_18
REMARK    5  A    between atoms: C_19  and  C_20
REMARK    6  A    between atoms: C_23  and  C_25
REMARK    7  A    between atoms: N_27  and  C_28
REMARK                            x       y       z     vdW  Elec       q    Type
REMARK                         _______ _______ _______ _____ _____    ______ ____
ROOT
ATOM      1  C   UNL     1       0.963  -0.240   0.623  0.00  0.00    +0.154 C 
ATOM      2  N   UNL     1       2.334  -0.061   0.130  0.00  0.00    -0.296 N 
ATOM      3  C   UNL     1       3.050  -1.278  -0.175  0.00  0.00    +0.254 A 
ATOM      4  O   UNL     1       2.439  -2.320  -0.335  0.00  0.00    -0.268 OA
ATOM      5  C   UNL     1       4.524  -1.196  -0.182  0.00  0.00    +0.094 A 
ATOM      6  C   UNL     1       5.165  -0.039   0.054  0.00  0.00    +0.049 A 
ATOM      7  C   UNL     1       4.398   1.160   0.111  0.00  0.00    +0.059 A 
ATOM      8  C   UNL     1       4.780   2.497   0.250  0.00  0.00    +0.146 A 
ATOM      9  N   UNL     1       3.727   3.311   0.323  0.00  0.00    -0.172 NA
ATOM     10  N   UNL     1       2.641   2.505   0.112  0.00  0.00    -0.213 N 
ATOM     11  C   UNL     1       3.023   1.158   0.094  0.00  0.00    +0.149 A 
ENDROOT
BRANCH  10  12
ATOM     12  C   UNL     1       1.374   3.120  -0.062  0.00  0.00    +0.103 A 
ATOM     13  C   UNL     1       1.143   4.388   0.501  0.00  0.00    +0.033 A 
ATOM     14  C   UNL     1      -0.127   4.966   0.425  0.00  0.00    +0.040 A 
ATOM     15  C   UNL     1      -1.151   4.292  -0.231  0.00  0.00    +0.126 A 
ATOM     16  F   UNL     1      -2.376   4.829  -0.269  0.00  0.00    -0.205 F 
ATOM     17  C   UNL     1      -0.917   3.077  -0.859  0.00  0.00    +0.078 A 
ATOM     18  C   UNL     1       0.354   2.513  -0.793  0.00  0.00    +0.151 A 
ATOM     19  F   UNL     1       0.580   1.395  -1.495  0.00  0.00    -0.203 F 
ENDBRANCH  10  12
BRANCH   6  20
ATOM     20  N   UNL     1       6.542   0.058   0.244  0.00  0.00    -0.314 N 
ATOM     21  H   UNL     1       7.036  -0.130  -0.630  0.00  0.00    +0.152 HD
BRANCH  20  22
ATOM     22  C   UNL     1       7.250  -0.579   1.312  0.00  0.00    +0.035 A 
ATOM     23  C   UNL     1       6.576  -1.103   2.435  0.00  0.00    +0.036 A 
ATOM     24  C   UNL     1       7.265  -1.715   3.500  0.00  0.00    +0.038 A 
ATOM     25  C   UNL     1       8.658  -1.754   3.476  0.00  0.00    +0.013 A 
ATOM     26  C   UNL     1       9.345  -1.174   2.411  0.00  0.00    +0.006 A 
ATOM     27  C   UNL     1       8.662  -0.587   1.327  0.00  0.00    -0.029 A 
ATOM     28  C   UNL     1       9.522   0.027   0.254  0.00  0.00    +0.045 C 
BRANCH  24  29
ATOM     29  C   UNL     1       6.473  -2.379   4.580  0.00  0.00    +0.244 C 
ATOM     30  N   UNL     1       7.112  -2.577   5.793  0.00  0.00    -0.308 N 
ATOM     31  H   UNL     1       8.008  -2.142   5.964  0.00  0.00    +0.149 HD
ATOM     32  O   UNL     1       5.317  -2.720   4.349  0.00  0.00    -0.270 OA
BRANCH  30  33
ATOM     33  C   UNL     1       6.535  -3.334   6.864  0.00  0.00    +0.073 C 
ATOM     34  C   UNL     1       7.077  -3.228   8.266  0.00  0.00    +0.024 C 
ATOM     35  C   UNL     1       7.303  -4.480   7.470  0.00  0.00    +0.024 C 
ENDBRANCH  30  33
ENDBRANCH  24  29
ENDBRANCH  20  22
ENDBRANCH   6  20
TORSDOF 5
