REMARK  Name = 
REMARK  22 active torsions:
REMARK  status: ('A' for Active; 'I' for Inactive)
REMARK    1  A    between atoms: C_2  and  C_3
REMARK    2  A    between atoms: C_2  and  C_13
REMARK    3  A    between atoms: C_2  and  O_19
REMARK    4  A    between atoms: C_3  and  O_4
REMARK    5  A    between atoms: O_4  and  C_5
REMARK    6  A    between atoms: C_5  and  C_7
REMARK    7  A    between atoms: C_7  and  C_8
REMARK    8  A    between atoms: C_8  and  C_9
REMARK    9  A    between atoms: C_9  and  C_10
REMARK   10  A    between atoms: C_10  and  C_11
REMARK   11  A    between atoms: C_11  and  C_12
REMARK   12  A    between atoms: C_13  and  O_14
REMARK   13  A    between atoms: O_14  and  P_15
REMARK   14  A    between atoms: P_15  and  O_16
REMARK   15  A    between atoms: P_15  and  O_17
REMARK   16  A    between atoms: O_19  and  C_20
REMARK   17  A    between atoms: C_20  and  C_22
REMARK   18  A    between atoms: C_22  and  C_23
REMARK   19  A    between atoms: C_23  and  C_24
REMARK   20  A    between atoms: C_24  and  C_25
REMARK   21  A    between atoms: C_25  and  C_26
REMARK   22  A    between atoms: C_26  and  C_27
REMARK                            x       y       z     vdW  Elec       q    Type
REMARK                         _______ _______ _______ _____ _____    ______ ____
ROOT
ATOM      1  C   UNL     1       2.088  -0.001   0.069  0.00  0.00    +0.240 C 
ENDROOT
BRANCH   1   2
ATOM      2  C   UNL     1       2.559  -0.292   1.496  0.00  0.00    +0.220 C 
BRANCH   2   3
ATOM      3  O   UNL     1       1.838   0.510   2.411  0.00  0.00    -0.283 OA
BRANCH   3   4
ATOM      4  P   UNL     1       2.098   0.244   3.968  0.00  0.00    +0.472 P 
ATOM      5  O   UNL     1       3.534   0.272   4.362  0.00  0.00    -0.228 OA
BRANCH   4   6
ATOM      6  O   UNL     1       1.162   1.340   4.642  0.00  0.00    -0.303 OA
ATOM      7  H   UNL     1       1.581   2.219   4.614  0.00  0.00    +0.222 HD
ENDBRANCH   4   6
BRANCH   4   8
ATOM      8  O   UNL     1       1.328  -1.135   4.200  0.00  0.00    -0.303 OA
ATOM      9  H   UNL     1       0.743  -1.371   3.458  0.00  0.00    +0.222 HD
ENDBRANCH   4   8
ENDBRANCH   3   4
ENDBRANCH   2   3
ENDBRANCH   1   2
BRANCH   1  10
ATOM     10  C   UNL     1       2.506   1.420  -0.338  0.00  0.00    +0.279 C 
BRANCH  10  11
ATOM     11  O   UNL     1       2.124   1.719  -1.693  0.00  0.00    -0.461 OA
BRANCH  11  12
ATOM     12  C   UNL     1       0.826   2.083  -1.871  0.00  0.00    +0.307 C 
ATOM     13  O   UNL     1      -0.003   2.205  -0.982  0.00  0.00    -0.251 OA
BRANCH  12  14
ATOM     14  C   UNL     1       0.540   2.304  -3.335  0.00  0.00    +0.120 C 
BRANCH  14  15
ATOM     15  C   UNL     1       0.783   1.048  -4.174  0.00  0.00    +0.011 C 
BRANCH  15  16
ATOM     16  C   UNL     1      -0.027  -0.180  -3.740  0.00  0.00    +0.001 C 
BRANCH  16  17
ATOM     17  C   UNL     1      -1.536   0.035  -3.843  0.00  0.00    -0.000 C 
BRANCH  17  18
ATOM     18  C   UNL     1      -2.313  -1.208  -3.416  0.00  0.00    -0.003 C 
ATOM     19  C   UNL     1      -3.813  -0.970  -3.513  0.00  0.00    +0.004 C 
ENDBRANCH  17  18
ENDBRANCH  16  17
ENDBRANCH  15  16
ENDBRANCH  14  15
ENDBRANCH  12  14
ENDBRANCH  11  12
ENDBRANCH  10  11
ENDBRANCH   1  10
BRANCH   1  20
ATOM     20  O   UNL     1       2.703  -0.928  -0.854  0.00  0.00    -0.456 OA
BRANCH  20  21
ATOM     21  C   UNL     1       2.242  -2.209  -0.806  0.00  0.00    +0.308 C 
ATOM     22  O   UNL     1       1.362  -2.609  -0.060  0.00  0.00    -0.251 OA
BRANCH  21  23
ATOM     23  C   UNL     1       2.940  -3.070  -1.831  0.00  0.00    +0.120 C 
BRANCH  23  24
ATOM     24  C   UNL     1       4.458  -2.965  -1.720  0.00  0.00    +0.011 C 
BRANCH  24  25
ATOM     25  C   UNL     1       5.166  -3.839  -2.755  0.00  0.00    +0.001 C 
BRANCH  25  26
ATOM     26  C   UNL     1       6.683  -3.684  -2.641  0.00  0.00    -0.000 C 
BRANCH  26  27
ATOM     27  C   UNL     1       7.418  -4.533  -3.675  0.00  0.00    -0.003 C 
ATOM     28  C   UNL     1       8.925  -4.362  -3.551  0.00  0.00    +0.004 C 
ENDBRANCH  26  27
ENDBRANCH  25  26
ENDBRANCH  24  25
ENDBRANCH  23  24
ENDBRANCH  21  23
ENDBRANCH  20  21
ENDBRANCH   1  20
TORSDOF 20
