REMARK  Name = 
REMARK  18 active torsions:
REMARK  status: ('A' for Active; 'I' for Inactive)
REMARK    1  A    between atoms: C_1  and  C_2
REMARK    2  A    between atoms: C_2  and  C_3
REMARK    3  A    between atoms: C_8  and  O_10
REMARK    4  A    between atoms: O_10  and  C_11
REMARK    5  A    between atoms: C_15  and  N_21
REMARK    6  A    between atoms: C_17  and  C_19
REMARK    7  A    between atoms: N_21  and  C_22
REMARK    8  A    between atoms: N_21  and  C_23
REMARK    9  A    between atoms: C_24  and  C_26
REMARK   10  A    between atoms: C_36  and  O_51
REMARK   11  A    between atoms: O_51  and  C_52
REMARK   12  A    between atoms: C_55  and  C_57
REMARK   13  A    between atoms: C_58  and  O_60
REMARK   14  A    between atoms: O_60  and  C_61
REMARK   15  A    between atoms: C_62  and  O_64
REMARK   16  A    between atoms: O_64  and  C_65
REMARK   17  A    between atoms: C_66  and  O_68
REMARK   18  A    between atoms: O_68  and  C_69
REMARK                            x       y       z     vdW  Elec       q    Type
REMARK                         _______ _______ _______ _____ _____    ______ ____
ROOT
ATOM      1  C   UNL     1      -0.000  -0.000   0.000  0.00  0.00    +0.176 C 
ATOM      2  O   UNL     1      -0.000  -0.000   0.000  0.00  0.00    -0.461 OA
ATOM      3  C   UNL     1      -0.000  -0.000  -0.000  0.00  0.00    +0.308 C 
ATOM      4  O   UNL     1      -0.000  -0.000  -0.000  0.00  0.00    -0.251 OA
ATOM      5  C   UNL     1      -0.000  -0.000  -0.000  0.00  0.00    +0.129 C 
ATOM      6  C   UNL     1      -0.000  -0.000   0.000  0.00  0.00    +0.040 C 
ATOM      7  C   UNL     1      -0.000  -0.000   0.000  0.00  0.00    -0.004 C 
ATOM      8  C   UNL     1      -0.000  -0.000   0.000  0.00  0.00    -0.015 C 
ATOM      9  C   UNL     1      -0.000  -0.000   0.000  0.00  0.00    +0.023 C 
ATOM     10  C   UNL     1      -0.000  -0.000   0.000  0.00  0.00    +0.006 C 
ATOM     11  C   UNL     1      -0.000  -0.000   0.000  0.00  0.00    +0.018 C 
ATOM     12  C   UNL     1      -0.000  -0.000   0.000  0.00  0.00    -0.027 C 
ATOM     13  C   UNL     1      -0.000  -0.000   0.000  0.00  0.00    -0.026 C 
ATOM     14  C   UNL     1      -0.000  -0.000   0.000  0.00  0.00    +0.039 C 
ATOM     15  C   UNL     1      -0.000  -0.000   0.000  0.00  0.00    +0.120 C 
ATOM     16  C   UNL     1      -0.000  -0.000   0.000  0.00  0.00    +0.036 C 
ATOM     17  C   UNL     1      -0.000  -0.000   0.000  0.00  0.00    +0.164 C 
ATOM     18  O   UNL     1      -0.000  -0.000   0.000  0.00  0.00    -0.292 OA
ATOM     19  C   UNL     1      -0.000  -0.000   0.000  0.00  0.00    +0.086 C 
ATOM     20  C   UNL     1      -0.000  -0.000   0.000  0.00  0.00    +0.018 C 
ATOM     21  C   UNL     1      -0.000  -0.000   0.000  0.00  0.00    +0.132 C 
ATOM     22  C   UNL     1      -0.000  -0.000   0.000  0.00  0.00    +0.032 C 
ATOM     23  C   UNL     1      -0.000  -0.000   0.000  0.00  0.00    +0.006 C 
ATOM     24  C   UNL     1      -0.000  -0.000  -0.000  0.00  0.00    +0.027 C 
ATOM     25  C   UNL     1      -0.000  -0.000   0.000  0.00  0.00    +0.045 C 
ENDROOT
BRANCH   1  27
ATOM     26  C   UNL     1      -0.000  -0.000   0.000  0.00  0.00    +0.007 C 
ATOM     27  C   UNL     1      -0.000  -0.000   0.000  0.00  0.00    +0.041 C 
ENDBRANCH   1  27
BRANCH  15  28
ATOM     28  O   UNL     1      -0.000  -0.000   0.000  0.00  0.00    -0.371 OA
BRANCH  28  29
ATOM     29  C   UNL     1      -0.000  -0.000   0.000  0.00  0.00    +0.150 C 
ATOM     30  C   UNL     1      -0.000  -0.000   0.000  0.00  0.00    +0.178 C 
ATOM     31  C   UNL     1      -0.000  -0.000   0.000  0.00  0.00    +0.178 C 
ATOM     32  C   UNL     1      -0.000  -0.000   0.000  0.00  0.00    +0.152 C 
ATOM     33  C   UNL     1      -0.000  -0.000   0.000  0.00  0.00    +0.020 C 
ATOM     34  C   UNL     1      -0.000  -0.000   0.000  0.00  0.00    +0.010 C 
ATOM     35  C   UNL     1      -0.000  -0.000   0.000  0.00  0.00    +0.040 C 
BRANCH  30  36
ATOM     36  O   UNL     1      -0.000  -0.000   0.000  0.00  0.00    -0.375 OA
ATOM     37  C   UNL     1      -0.000  -0.000   0.000  0.00  0.00    +0.194 C 
ENDBRANCH  30  36
BRANCH  31  38
ATOM     38  O   UNL     1      -0.000  -0.000   0.000  0.00  0.00    -0.375 OA
ATOM     39  C   UNL     1      -0.000  -0.000   0.000  0.00  0.00    +0.194 C 
ENDBRANCH  31  38
BRANCH  32  40
ATOM     40  O   UNL     1      -0.000  -0.000   0.000  0.00  0.00    -0.377 OA
ATOM     41  C   UNL     1      -0.000  -0.000   0.000  0.00  0.00    +0.194 C 
ENDBRANCH  32  40
ENDBRANCH  28  29
ENDBRANCH  15  28
BRANCH  21  42
ATOM     42  O   UNL     1      -0.000  -0.000   0.000  0.00  0.00    -0.347 OA
BRANCH  42  43
ATOM     43  C   UNL     1      -0.000  -0.000   0.000  0.00  0.00    +0.251 C 
ATOM     44  O   UNL     1      -0.000  -0.000   0.000  0.00  0.00    -0.347 OA
ATOM     45  C   UNL     1      -0.000  -0.000   0.000  0.00  0.00    +0.135 C 
ATOM     46  C   UNL     1      -0.000  -0.000   0.000  0.00  0.00    +0.039 C 
ATOM     47  C   UNL     1      -0.000  -0.000   0.000  0.00  0.00    +0.085 C 
ATOM     48  C   UNL     1      -0.000  -0.000   0.000  0.00  0.00    +0.026 C 
ATOM     49  C   UNL     1      -0.000  -0.000   0.000  0.00  0.00    +0.063 C 
BRANCH  47  50
ATOM     50  N   UNL     1      -0.000  -0.000   0.000  0.00  0.00    -0.303 NA
ATOM     51  C   UNL     1      -0.000  -0.000   0.000  0.00  0.00    +0.105 C 
ATOM     52  C   UNL     1      -0.000  -0.000   0.000  0.00  0.00    +0.105 C 
ENDBRANCH  47  50
ENDBRANCH  42  43
ENDBRANCH  21  42
TORSDOF 9
