REMARK  Name = 
REMARK  5 active torsions:
REMARK  status: ('A' for Active; 'I' for Inactive)
REMARK    1  A    between atoms: C_2  and  C_4
REMARK    2  A    between atoms: C_6  and  C_7
REMARK    3  A    between atoms: C_7  and  N_8
REMARK    4  A    between atoms: N_11  and  S_15
REMARK    5  A    between atoms: S_15  and  C_18
REMARK                            x       y       z     vdW  Elec       q    Type
REMARK                         _______ _______ _______ _____ _____    ______ ____
ROOT
ATOM      1  N   UNL     1       1.817   4.939   0.485  0.00  0.00    -0.295 N 
ATOM      2  C   UNL     1       1.461   3.793   1.197  0.00  0.00    +0.232 C 
ATOM      3  O   UNL     1       2.221   2.859   1.427  0.00  0.00    -0.274 OA
ATOM      4  C   UNL     1      -0.033   3.723   1.454  0.00  0.00    +0.205 C 
ATOM      5  N   UNL     1      -0.582   4.951   2.076  0.00  0.00    -0.166 NA
ATOM      6  C   UNL     1      -0.227   6.160   1.270  0.00  0.00    +0.129 C 
ATOM      7  C   UNL     1       1.276   6.226   0.927  0.00  0.00    +0.125 C 
ENDROOT
BRANCH   5   8
ATOM      8  S   UNL     1      -0.301   5.014   3.753  0.00  0.00    +0.068 S 
ATOM      9  O   UNL     1       0.991   5.631   3.960  0.00  0.00    -0.152 OA
ATOM     10  O   UNL     1      -0.631   3.738   4.341  0.00  0.00    -0.152 OA
BRANCH   8  11
ATOM     11  C   UNL     1      -1.465   6.162   4.449  0.00  0.00    +0.144 A 
ATOM     12  S   UNL     1      -3.113   5.825   4.184  0.00  0.00    -0.068 S 
ATOM     13  C   UNL     1      -3.621   7.190   5.102  0.00  0.00    +0.023 A 
ATOM     14  C   UNL     1      -4.948   7.590   5.361  0.00  0.00    +0.035 A 
ATOM     15  C   UNL     1      -5.157   8.737   6.128  0.00  0.00    +0.042 A 
ATOM     16  C   UNL     1      -4.092   9.467   6.632  0.00  0.00    +0.020 A 
ATOM     17  C   UNL     1      -2.783   9.063   6.370  0.00  0.00    +0.010 A 
ATOM     18 CL   UNL     1      -6.768   9.249   6.454  0.00  0.00    -0.084 Cl
ATOM     19  C   UNL     1      -2.529   7.907   5.594  0.00  0.00    -0.009 A 
ATOM     20  C   UNL     1      -1.292   7.301   5.201  0.00  0.00    +0.045 A 
ENDBRANCH   8  11
ENDBRANCH   5   8
BRANCH   1  21
ATOM     21  C   UNL     1       2.909   4.875  -0.475  0.00  0.00    +0.143 C 
BRANCH  21  26
ATOM     22  C   UNL     1       5.975   5.235   1.789  0.00  0.00    +0.065 A 
ATOM     23  C   UNL     1       7.009   5.213   0.848  0.00  0.00    +0.016 A 
ATOM     24  C   UNL     1       6.706   5.069  -0.504  0.00  0.00    +0.001 A 
ATOM     25  C   UNL     1       5.373   4.968  -0.912  0.00  0.00    +0.005 A 
ATOM     26  C   UNL     1       4.322   5.017   0.022  0.00  0.00    -0.029 A 
ATOM     27  C   UNL     1       4.641   5.146   1.374  0.00  0.00    +0.021 A 
BRANCH  22  31
ATOM     28  N   UNL     1       5.414   4.781   4.148  0.00  0.00    -0.247 N 
ATOM     29  H   UNL     1       4.851   4.005   3.805  0.00  0.00    +0.288 HD
ATOM     30  H   UNL     1       5.784   4.598   5.071  0.00  0.00    +0.288 HD
ATOM     31  C   UNL     1       6.265   5.347   3.242  0.00  0.00    +0.308 C 
ATOM     32  N   UNL     1       7.318   5.982   3.638  0.00  0.00    -0.099 NA
ATOM     33  H   UNL     1       7.326   6.007   4.659  0.00  0.00    +0.363 HD
ENDBRANCH  22  31
ENDBRANCH  21  26
ENDBRANCH   1  21
TORSDOF 5
