REMARK  Name = 
REMARK  8 active torsions:
REMARK  status: ('A' for Active; 'I' for Inactive)
REMARK    1  A    between atoms: C_1  and  O_2
REMARK    2  A    between atoms: O_2  and  C_3
REMARK    3  A    between atoms: C_8  and  C_9
REMARK    4  A    between atoms: C_13  and  N_14
REMARK    5  A    between atoms: C_15  and  C_17
REMARK    6  A    between atoms: C_17  and  C_18
REMARK    7  A    between atoms: C_20  and  C_21
REMARK    8  A    between atoms: C_20  and  O_22
REMARK                            x       y       z     vdW  Elec       q    Type
REMARK                         _______ _______ _______ _____ _____    ______ ____
ROOT
ATOM      1  C   UNL     1       3.971  -1.890   1.254  0.00  0.00    -0.013 A 
ATOM      2  C   UNL     1       4.580  -2.858   2.086  0.00  0.00    +0.010 A 
ATOM      3  C   UNL     1       4.524  -4.233   1.811  0.00  0.00    +0.025 A 
ATOM      4  C   UNL     1       3.912  -4.688   0.647  0.00  0.00    +0.052 A 
ATOM      5  C   UNL     1       3.396  -3.746  -0.249  0.00  0.00    +0.063 A 
ATOM      6 CL   UNL     1       2.637  -4.258  -1.718  0.00  0.00    -0.082 Cl
ATOM      7  C   UNL     1       3.392  -2.378   0.069  0.00  0.00    +0.030 A 
ENDROOT
BRANCH   1   9
ATOM      8  C   UNL     1       3.845   0.663   0.789  0.00  0.00    +0.128 A 
ATOM      9  C   UNL     1       3.902  -0.448   1.672  0.00  0.00    +0.024 A 
ATOM     10  C   UNL     1       3.853  -0.147   3.057  0.00  0.00    +0.012 A 
ATOM     11  C   UNL     1       3.795   1.159   3.550  0.00  0.00    +0.001 A 
ATOM     12  C   UNL     1       3.766   2.224   2.667  0.00  0.00    +0.004 A 
ATOM     13  C   UNL     1       3.789   1.977   1.298  0.00  0.00    +0.046 A 
BRANCH   8  15
ATOM     14  C   UNL     1       3.321   1.433  -1.402  0.00  0.00    +0.277 C 
ATOM     15  O   UNL     1       3.898   0.429  -0.566  0.00  0.00    -0.495 OA
ENDBRANCH   8  15
ENDBRANCH   1   9
BRANCH   4  16
ATOM     16  N   UNL     1       3.814  -6.076   0.362  0.00  0.00    -0.280 N 
ATOM     17  H   UNL     1       3.704  -6.300  -0.623  0.00  0.00    +0.155 HD
ATOM     18  C   UNL     1       3.363  -6.991   1.300  0.00  0.00    +0.262 C 
ATOM     19  O   UNL     1       3.019  -6.686   2.445  0.00  0.00    -0.269 OA
BRANCH  18  20
ATOM     20  C   UNL     1       3.228  -8.419   0.841  0.00  0.00    +0.150 C 
ATOM     21  C   UNL     1       2.597  -9.322   1.635  0.00  0.00    +0.113 C 
ATOM     22  C   UNL     1       2.429 -10.784   1.326  0.00  0.00    +0.087 C 
BRANCH  21  23
ATOM     23  O   UNL     1       2.036  -8.998   2.865  0.00  0.00    -0.510 OA
ATOM     24  H   UNL     1       2.186  -8.042   3.059  0.00  0.00    +0.292 HD
ENDBRANCH  21  23
BRANCH  20  25
ATOM     25  C   UNL     1       3.765  -8.787  -0.427  0.00  0.00    +0.108 C 
ATOM     26  N   UNL     1       4.202  -9.044  -1.466  0.00  0.00    -0.191 NA
ENDBRANCH  20  25
ENDBRANCH  18  20
ENDBRANCH   4  16
TORSDOF 6
