REMARK  Name = 
REMARK  8 active torsions:
REMARK  status: ('A' for Active; 'I' for Inactive)
REMARK    1  A    between atoms: C_1  and  C_2
REMARK    2  A    between atoms: C_2  and  N_3
REMARK    3  A    between atoms: N_3  and  C_4
REMARK    4  A    between atoms: C_4  and  C_5
REMARK    5  A    between atoms: C_6  and  C_8
REMARK    6  A    between atoms: C_10  and  O_11
REMARK    7  A    between atoms: O_11  and  C_12
REMARK    8  A    between atoms: C_13  and  O_14
REMARK                            x       y       z     vdW  Elec       q    Type
REMARK                         _______ _______ _______ _____ _____    ______ ____
ROOT
ATOM      1  C   UNL     1       4.946   2.685  -1.605  0.00  0.00    +0.041 A 
ATOM      2  C   UNL     1       4.396   3.959  -1.406  0.00  0.00    +0.017 A 
ATOM      3  C   UNL     1       4.956   5.072  -2.027  0.00  0.00    +0.050 A 
ATOM      4  C   UNL     1       6.117   4.918  -2.770  0.00  0.00    +0.158 A 
ATOM      5  C   UNL     1       6.734   3.671  -2.921  0.00  0.00    +0.162 A 
ATOM      6  C   UNL     1       6.132   2.549  -2.349  0.00  0.00    +0.062 A 
ENDROOT
BRANCH   1   8
ATOM      7  N   UNL     1       2.996   1.245  -0.895  0.00  0.00    -0.298 N 
ATOM      8  C   UNL     1       4.383   1.463  -0.965  0.00  0.00    +0.247 C 
ATOM      9  O   UNL     1       5.193   0.667  -0.500  0.00  0.00    -0.270 OA
BRANCH   7  11
ATOM     10  C   UNL     1       2.571  -1.197  -0.619  0.00  0.00    +0.024 C 
ATOM     11  C   UNL     1       2.552   0.186   0.017  0.00  0.00    +0.104 C 
ENDBRANCH   7  11
BRANCH   7  12
ATOM     12  C   UNL     1       1.985   2.112  -1.515  0.00  0.00    +0.104 C 
ATOM     13  C   UNL     1       0.737   1.434  -2.055  0.00  0.00    +0.024 C 
ENDBRANCH   7  12
ENDBRANCH   1   8
BRANCH   4  14
ATOM     14  O   UNL     1       6.671   6.037  -3.331  0.00  0.00    -0.503 OA
ATOM     15  H   UNL     1       7.501   5.726  -3.745  0.00  0.00    +0.292 HD
ENDBRANCH   4  14
BRANCH   5  16
ATOM     16  O   UNL     1       7.907   3.689  -3.631  0.00  0.00    -0.491 OA
ATOM     17  C   UNL     1       8.623   2.460  -3.703  0.00  0.00    +0.277 C 
ENDBRANCH   5  16
TORSDOF 5
