REMARK  Name = 
REMARK  5 active torsions:
REMARK  status: ('A' for Active; 'I' for Inactive)
REMARK    1  A    between atoms: C_1  and  N_2
REMARK    2  A    between atoms: N_2  and  C_3
REMARK    3  A    between atoms: N_2  and  C_4
REMARK    4  A    between atoms: C_4  and  C_5
REMARK    5  A    between atoms: N_7  and  C_8
REMARK                            x       y       z     vdW  Elec       q    Type
REMARK                         _______ _______ _______ _____ _____    ______ ____
ROOT
ATOM      1  C   UNL     1       6.689  -1.852   1.857  0.00  0.00    +0.034 A 
ATOM      2  C   UNL     1       7.388  -1.820   0.649  0.00  0.00    +0.025 A 
ATOM      3  C   UNL     1       8.789  -1.826   0.648  0.00  0.00    +0.028 A 
ATOM      4  C   UNL     1       9.489  -1.850   1.858  0.00  0.00    +0.050 A 
ATOM      5  N   UNL     1      10.890  -1.839   1.838  0.00  0.00    -0.322 N 
ATOM      6  H   UNL     1      11.388  -1.825   0.958  0.00  0.00    +0.169 HD
ATOM      7  C   UNL     1      11.679  -1.832   2.962  0.00  0.00    +0.257 A 
ATOM      8  C   UNL     1      10.997  -1.849   4.286  0.00  0.00    +0.047 A 
ATOM      9  C   UNL     1       9.593  -1.878   4.344  0.00  0.00    -0.004 A 
ATOM     10  C   UNL     1       9.002  -1.907   5.623  0.00  0.00    +0.009 A 
ATOM     11  C   UNL     1       9.775  -1.891   6.789  0.00  0.00    +0.001 A 
ATOM     12  C   UNL     1      11.161  -1.852   6.705  0.00  0.00    +0.001 A 
ATOM     13  C   UNL     1      11.775  -1.833   5.454  0.00  0.00    +0.014 A 
ATOM     14  O   UNL     1      12.904  -1.813   2.874  0.00  0.00    -0.267 OA
ATOM     15  C   UNL     1       8.817  -1.870   3.087  0.00  0.00    +0.008 A 
ATOM     16  C   UNL     1       7.414  -1.866   3.053  0.00  0.00    +0.034 A 
ENDROOT
BRANCH   1  18
ATOM     17  C   UNL     1       4.436  -2.081   2.912  0.00  0.00    +0.231 C 
ATOM     18  N   UNL     1       5.278  -1.850   1.832  0.00  0.00    -0.284 N 
ATOM     19  H   UNL     1       4.811  -1.792   0.931  0.00  0.00    +0.155 HD
ATOM     20  O   UNL     1       4.772  -2.388   4.053  0.00  0.00    -0.274 OA
BRANCH  17  21
ATOM     21  C   UNL     1       2.956  -1.898   2.580  0.00  0.00    +0.180 C 
BRANCH  21  23
ATOM     22  C   UNL     1       2.729  -4.114   1.616  0.00  0.00    +0.105 C 
ATOM     23  N   UNL     1       2.554  -2.672   1.381  0.00  0.00    -0.300 NA
ATOM     24  C   UNL     1       1.133  -2.404   1.116  0.00  0.00    +0.105 C 
ENDBRANCH  21  23
ENDBRANCH  17  21
ENDBRANCH   1  18
TORSDOF 3
