REMARK  Name = 
REMARK  3 active torsions:
REMARK  status: ('A' for Active; 'I' for Inactive)
REMARK    1  A    between atoms: O_1  and  C_2
REMARK    2  A    between atoms: C_6  and  C_7
REMARK    3  A    between atoms: C_8  and  C_9
REMARK                            x       y       z     vdW  Elec       q    Type
REMARK                         _______ _______ _______ _____ _____    ______ ____
ROOT
ATOM      1  C   UNL     1       2.296   0.048   0.025  0.00  0.00    +0.145 A 
ATOM      2  C   UNL     1       3.007  -1.004  -0.554  0.00  0.00    +0.061 A 
ATOM      3 BR   UNL     1       2.117  -2.480  -1.350  0.00  0.00    -0.046 Br
ATOM      4  C   UNL     1       4.406  -0.987  -0.570  0.00  0.00    +0.027 A 
ATOM      5  C   UNL     1       5.113   0.080   0.002  0.00  0.00    -0.023 A 
ATOM      6  C   UNL     1       4.393   1.139   0.570  0.00  0.00    +0.027 A 
ATOM      7  C   UNL     1       2.995   1.120   0.584  0.00  0.00    +0.061 A 
ATOM      8 BR   UNL     1       2.070   2.580   1.365  0.00  0.00    -0.046 Br
ENDROOT
BRANCH   1   9
ATOM      9  O   UNL     1       0.927   0.022   0.027  0.00  0.00    -0.505 OA
ATOM     10  H   UNL     1       0.611   0.835   0.462  0.00  0.00    +0.292 HD
ENDBRANCH   1   9
BRANCH   5  11
ATOM     11  C   UNL     1       6.582   0.171  -0.045  0.00  0.00    +0.008 C 
ATOM     12  C   UNL     1       7.418  -0.879   0.015  0.00  0.00    +0.008 C 
BRANCH  12  13
ATOM     13  C   UNL     1       8.884  -0.769  -0.075  0.00  0.00    -0.025 A 
ATOM     14  C   UNL     1       9.603  -1.823  -0.657  0.00  0.00    +0.008 A 
ATOM     15  C   UNL     1      10.995  -1.764  -0.768  0.00  0.00    +0.001 A 
ATOM     16  C   UNL     1      11.687  -0.656  -0.287  0.00  0.00    +0.000 A 
ATOM     17  C   UNL     1      10.989   0.388   0.316  0.00  0.00    +0.001 A 
ATOM     18  C   UNL     1       9.597   0.328   0.429  0.00  0.00    +0.008 A 
ENDBRANCH  12  13
ENDBRANCH   5  11
TORSDOF 3
