REMARK  Name = 
REMARK  3 active torsions:
REMARK  status: ('A' for Active; 'I' for Inactive)
REMARK    1  A    between atoms: O_1  and  C_2
REMARK    2  A    between atoms: C_7  and  C_8
REMARK    3  A    between atoms: C_8  and  C_9
REMARK                            x       y       z     vdW  Elec       q    Type
REMARK                         _______ _______ _______ _____ _____    ______ ____
ROOT
ATOM      1  C   UNL     1       5.181   3.603   2.306  0.00  0.00    +0.040 C 
ENDROOT
BRANCH   1   2
ATOM      2  C   UNL     1       4.754   4.922   2.886  0.00  0.00    -0.028 A 
ATOM      3  C   UNL     1       5.266   6.133   2.420  0.00  0.00    +0.015 A 
ATOM      4  C   UNL     1       4.891   7.337   3.031  0.00  0.00    +0.001 A 
ATOM      5  C   UNL     1       3.983   7.280   4.110  0.00  0.00    +0.071 A 
ATOM      6  C   UNL     1       3.636   8.468   4.739  0.00  0.00    +0.028 A 
ATOM      7  C   UNL     1       4.165   9.696   4.332  0.00  0.00    +0.002 A 
ATOM      8  C   UNL     1       5.050   9.748   3.261  0.00  0.00    +0.001 A 
ATOM      9  N   UNL     1       3.462   6.122   4.550  0.00  0.00    -0.255 NA
ATOM     10  C   UNL     1       5.410   8.572   2.607  0.00  0.00    +0.010 A 
ATOM     11  C   UNL     1       3.858   4.981   3.946  0.00  0.00    +0.115 A 
ENDBRANCH   1   2
BRANCH   1  16
ATOM     12  C   UNL     1       2.417  -0.007   0.045  0.00  0.00    +0.400 C 
ATOM     13  N   UNL     1       3.088   1.051   0.635  0.00  0.00    -0.268 N 
ATOM     14  C   UNL     1       2.529   2.330   1.083  0.00  0.00    +0.111 C 
ATOM     15  C   UNL     1       3.324   3.507   0.519  0.00  0.00    +0.023 C 
ATOM     16  C   UNL     1       4.829   3.403   0.816  0.00  0.00    -0.004 C 
ATOM     17  C   UNL     1       5.335   2.037   0.318  0.00  0.00    +0.023 C 
ATOM     18  C   UNL     1       4.519   0.875   0.885  0.00  0.00    +0.111 C 
ATOM     19  O   UNL     1       2.962  -1.019  -0.374  0.00  0.00    -0.226 OA
BRANCH  12  20
ATOM     20  O   UNL     1       1.078   0.117  -0.043  0.00  0.00    -0.466 OA
ATOM     21  H   UNL     1       0.715   0.866   0.445  0.00  0.00    +0.297 HD
ENDBRANCH  12  20
ENDBRANCH   1  16
TORSDOF 3
