REMARK  Name = 
REMARK  3 active torsions:
REMARK  status: ('A' for Active; 'I' for Inactive)
REMARK    1  A    between atoms: C_8  and  C_18
REMARK    2  A    between atoms: C_15  and  O_16
REMARK    3  A    between atoms: C_21  and  O_22
REMARK                            x       y       z     vdW  Elec       q    Type
REMARK                         _______ _______ _______ _____ _____    ______ ____
ROOT
ATOM      1  C   UNL     1       2.187  -0.014   0.018  0.00  0.00    +0.033 C 
ATOM      2  C   UNL     1       2.586  -1.472   0.006  0.00  0.00    +0.039 A 
ATOM      3  C   UNL     1       3.235  -2.044   1.109  0.00  0.00    +0.128 A 
ATOM      4  C   UNL     1       3.669  -3.372   1.070  0.00  0.00    +0.046 A 
ATOM      5  C   UNL     1       3.418  -4.163  -0.049  0.00  0.00    +0.007 A 
ATOM      6  C   UNL     1       2.712  -3.633  -1.125  0.00  0.00    +0.046 A 
ATOM      7  O   UNL     1       3.518  -1.367   2.268  0.00  0.00    -0.484 OA
ATOM      8  C   UNL     1       2.724  -0.188   2.469  0.00  0.00    +0.207 C 
ATOM      9  C   UNL     1       2.292  -2.303  -1.086  0.00  0.00    +0.124 A 
ATOM     10  C   UNL     1       2.750   0.723   1.239  0.00  0.00    +0.042 C 
ATOM     11  C   UNL     1       4.155   1.156   0.793  0.00  0.00    +0.008 C 
ATOM     12  C   UNL     1       4.032   1.458  -0.691  0.00  0.00    +0.001 C 
ATOM     13  C   UNL     1       2.725   0.821  -1.156  0.00  0.00    +0.009 C 
ENDROOT
BRANCH   8  14
ATOM     14  C   UNL     1       3.199   0.565   3.707  0.00  0.00    -0.007 A 
ATOM     15  C   UNL     1       4.554   0.591   4.078  0.00  0.00    +0.011 A 
ATOM     16  C   UNL     1       4.983   1.369   5.156  0.00  0.00    +0.046 A 
ATOM     17  C   UNL     1       4.063   2.122   5.872  0.00  0.00    +0.117 A 
ATOM     18  C   UNL     1       2.712   2.095   5.542  0.00  0.00    +0.046 A 
ATOM     19  C   UNL     1       2.284   1.319   4.461  0.00  0.00    +0.011 A 
BRANCH  17  20
ATOM     20  O   UNL     1       4.529   2.892   6.896  0.00  0.00    -0.507 OA
ATOM     21  H   UNL     1       3.794   3.419   7.246  0.00  0.00    +0.292 HD
ENDBRANCH  17  20
ENDBRANCH   8  14
BRANCH   9  22
ATOM     22  O   UNL     1       1.560  -1.799  -2.127  0.00  0.00    -0.506 OA
ATOM     23  H   UNL     1       1.506  -2.469  -2.827  0.00  0.00    +0.292 HD
ENDBRANCH   9  22
TORSDOF 3
