REMARK  Name = 
REMARK  5 active torsions:
REMARK  status: ('A' for Active; 'I' for Inactive)
REMARK    1  A    between atoms: C_2  and  O_3
REMARK    2  A    between atoms: C_2  and  C_4
REMARK    3  A    between atoms: C_2  and  C_11
REMARK    4  A    between atoms: C_11  and  C_22
REMARK    5  A    between atoms: C_20  and  C_21
REMARK                            x       y       z     vdW  Elec       q    Type
REMARK                         _______ _______ _______ _____ _____    ______ ____
ROOT
ATOM      1  C   UNL     1       4.114  -0.082  -3.385  0.00  0.00    +0.146 C 
ATOM      2  C   UNL     1       4.827  -1.133  -4.347  0.00  0.00    +0.108 C 
ATOM      3  C   UNL     1       4.699  -2.569  -3.857  0.00  0.00    +0.045 C 
ATOM      4  C   UNL     1       4.267  -0.648  -5.699  0.00  0.00    +0.111 C 
ATOM      5  C   UNL     1       4.948  -1.400  -6.774  0.00  0.00    +0.044 C 
ATOM      6  C   UNL     1       6.323  -1.560  -6.114  0.00  0.00    +0.161 C 
ATOM      7  C   UNL     1       2.842  -0.436  -5.415  0.00  0.00    +0.220 C 
ATOM      8  O   UNL     1       1.877  -0.717  -6.081  0.00  0.00    -0.275 OA
ATOM      9  O   UNL     1       6.229  -1.028  -4.737  0.00  0.00    -0.370 OA
ATOM     10  N   UNL     1       2.868   0.218  -4.178  0.00  0.00    -0.298 N 
ATOM     11  H   UNL     1       1.969   0.387  -3.745  0.00  0.00    +0.150 HD
ENDROOT
BRANCH   1  12
ATOM     12  C   UNL     1       5.173   1.004  -3.322  0.00  0.00    +0.254 C 
ATOM     13  O   UNL     1       5.004   2.173  -3.707  0.00  0.00    -0.299 OA
ENDBRANCH   1  12
BRANCH   1  14
ATOM     14  C   UNL     1       3.660  -0.204  -1.892  0.00  0.00    +0.154 C 
BRANCH  14  15
ATOM     15  C   UNL     1       2.601  -1.244  -1.377  0.00  0.00    +0.043 C 
ATOM     16  C   UNL     1       1.351  -1.419  -2.206  0.00  0.00    -0.025 C 
ATOM     17  C   UNL     1       0.124  -1.013  -1.849  0.00  0.00    -0.031 C 
ATOM     18  C   UNL     1      -0.208  -0.323  -0.566  0.00  0.00    +0.027 C 
ATOM     19  C   UNL     1       0.966  -0.118   0.383  0.00  0.00    +0.005 C 
ATOM     20  C   UNL     1       2.206  -0.991   0.117  0.00  0.00    +0.010 C 
ENDBRANCH  14  15
BRANCH  14  21
ATOM     21  O   UNL     1       3.129   1.103  -1.506  0.00  0.00    -0.389 OA
ATOM     22  H   UNL     1       2.948   1.631  -2.302  0.00  0.00    +0.210 HD
ENDBRANCH  14  21
ENDBRANCH   1  14
TORSDOF 4
