REMARK  Name = 
REMARK  3 active torsions:
REMARK  status: ('A' for Active; 'I' for Inactive)
REMARK    1  A    between atoms: C_1  and  C_2
REMARK    2  A    between atoms: C_2  and  C_3
REMARK    3  A    between atoms: C_8  and  N_9
REMARK                            x       y       z     vdW  Elec       q    Type
REMARK                         _______ _______ _______ _____ _____    ______ ____
ROOT
ATOM      1  C   UNL     1       0.944   0.009  -0.030  0.00  0.00    +0.011 C 
ATOM      2  C   UNL     1       2.479  -0.062  -0.107  0.00  0.00    -0.022 C 
ATOM      3  C   UNL     1       3.082   1.230   0.482  0.00  0.00    +0.063 C 
ATOM      4  C   UNL     1       4.569   1.149   0.719  0.00  0.00    +0.057 A 
ATOM      5  C   UNL     1       5.223  -0.064   0.874  0.00  0.00    +0.078 A 
ATOM      6  C   UNL     1       6.595  -0.012   1.077  0.00  0.00    +0.130 A 
ATOM      7  N   UNL     1       7.264   1.152   1.147  0.00  0.00    -0.220 NA
ATOM      8  C   UNL     1       6.540   2.271   1.007  0.00  0.00    +0.223 A 
ATOM      9  C   UNL     1       4.479  -1.336   0.740  0.00  0.00    +0.169 C 
ATOM     10  O   UNL     1       5.062  -2.412   0.632  0.00  0.00    -0.292 OA
ATOM     11  N   UNL     1       5.218   2.333   0.796  0.00  0.00    -0.239 NA
ATOM     12  C   UNL     1       2.970  -1.256   0.726  0.00  0.00    +0.086 C 
ATOM     13  C   UNL     1       2.873  -0.228  -1.590  0.00  0.00    +0.011 C 
ENDROOT
BRANCH   6  14
ATOM     14  N   UNL     1       7.360  -1.143   1.341  0.00  0.00    -0.342 N 
ATOM     15  H   UNL     1       8.348  -0.919   1.310  0.00  0.00    +0.144 HD
ATOM     16  H   UNL     1       7.080  -1.950   0.783  0.00  0.00    +0.144 HD
ENDBRANCH   6  14
TORSDOF 1
