REMARK  Name = 
REMARK  14 active torsions:
REMARK  status: ('A' for Active; 'I' for Inactive)
REMARK    1  A    between atoms: C_2  and  C_3
REMARK    2  A    between atoms: C_2  and  N_11
REMARK    3  A    between atoms: C_2  and  C_24
REMARK    4  A    between atoms: C_3  and  C_4
REMARK    5  A    between atoms: C_12  and  C_14
REMARK    6  A    between atoms: C_14  and  C_15
REMARK    7  A    between atoms: C_15  and  C_16
REMARK    8  A    between atoms: C_16  and  C_17
REMARK    9  A    between atoms: C_17  and  C_18
REMARK   10  A    between atoms: C_18  and  C_19
REMARK   11  A    between atoms: C_19  and  C_20
REMARK   12  A    between atoms: N_22  and  O_23
REMARK   13  A    between atoms: C_24  and  O_26
REMARK   14  A    between atoms: O_26  and  C_27
REMARK                            x       y       z     vdW  Elec       q    Type
REMARK                         _______ _______ _______ _____ _____    ______ ____
ROOT
ATOM      1  N   UNL     1       2.598   1.038  -1.085  0.00  0.00    -0.302 N 
ATOM      2  H   UNL     1       3.277   1.735  -0.792  0.00  0.00    +0.150 HD
ATOM      3  C   UNL     1       1.996   1.120  -2.314  0.00  0.00    +0.214 C 
ATOM      4  O   UNL     1       1.090   0.366  -2.656  0.00  0.00    -0.276 OA
ENDROOT
BRANCH   1   5
ATOM      5  C   UNL     1       2.141   0.078  -0.076  0.00  0.00    +0.186 C 
BRANCH   5   6
ATOM      6  C   UNL     1       2.754   0.430   1.283  0.00  0.00    +0.328 C 
ATOM      7  O   UNL     1       3.539   1.355   1.465  0.00  0.00    -0.249 OA
BRANCH   6   8
ATOM      8  O   UNL     1       2.265  -0.385   2.261  0.00  0.00    -0.467 OA
ATOM      9  C   UNL     1       2.778  -0.113   3.566  0.00  0.00    +0.280 C 
ENDBRANCH   6   8
ENDBRANCH   5   6
BRANCH   5  10
ATOM     10  C   UNL     1       2.404  -1.389  -0.464  0.00  0.00    +0.069 C 
BRANCH  10  11
ATOM     11  C   UNL     1       3.859  -1.749  -0.666  0.00  0.00    -0.045 A 
ATOM     12  C   UNL     1       4.468  -1.589  -1.920  0.00  0.00    +0.005 A 
ATOM     13  C   UNL     1       5.805  -1.941  -2.110  0.00  0.00    +0.015 A 
ATOM     14  C   UNL     1       6.542  -2.456  -1.043  0.00  0.00    +0.018 A 
ATOM     15 BR   UNL     1       8.345  -2.956  -1.297  0.00  0.00    -0.050 Br
ATOM     16  C   UNL     1       5.953  -2.616   0.209  0.00  0.00    +0.015 A 
ATOM     17  C   UNL     1       4.615  -2.264   0.396  0.00  0.00    +0.005 A 
ENDBRANCH  10  11
ENDBRANCH   5  10
ENDBRANCH   1   5
BRANCH   3  18
ATOM     18  C   UNL     1       2.582   2.173  -3.229  0.00  0.00    +0.096 C 
BRANCH  18  19
ATOM     19  C   UNL     1       1.575   2.543  -4.315  0.00  0.00    +0.009 C 
BRANCH  19  20
ATOM     20  C   UNL     1       2.110   3.610  -5.263  0.00  0.00    +0.000 C 
BRANCH  20  21
ATOM     21  C   UNL     1       1.053   3.982  -6.305  0.00  0.00    +0.000 C 
BRANCH  21  22
ATOM     22  C   UNL     1       1.578   5.047  -7.263  0.00  0.00    +0.009 C 
BRANCH  22  23
ATOM     23  C   UNL     1       0.533   5.430  -8.308  0.00  0.00    +0.098 C 
BRANCH  23  24
ATOM     24  C   UNL     1       1.061   6.474  -9.267  0.00  0.00    +0.235 C 
ATOM     25  N   UNL     1       0.169   6.815 -10.255  0.00  0.00    -0.197 N 
ATOM     26  H   UNL     1      -0.824   6.613 -10.218  0.00  0.00    +0.182 HD
ATOM     27  O   UNL     1       2.177   6.983  -9.200  0.00  0.00    -0.274 OA
BRANCH  25  28
ATOM     28  O   UNL     1       0.580   7.855 -11.120  0.00  0.00    -0.295 OA
ATOM     29  H   UNL     1       1.488   8.049 -10.794  0.00  0.00    +0.241 HD
ENDBRANCH  25  28
ENDBRANCH  23  24
ENDBRANCH  22  23
ENDBRANCH  21  22
ENDBRANCH  20  21
ENDBRANCH  19  20
ENDBRANCH  18  19
ENDBRANCH   3  18
TORSDOF 13
