REMARK  Name = 
REMARK  2 active torsions:
REMARK  status: ('A' for Active; 'I' for Inactive)
REMARK    1  A    between atoms: N_10  and  C_11
REMARK    2  A    between atoms: C_11  and  C_12
REMARK                            x       y       z     vdW  Elec       q    Type
REMARK                         _______ _______ _______ _____ _____    ______ ____
ROOT
ATOM      1  N   UNL     1       1.307  -0.163   0.275  0.00  0.00    -0.329 N 
ATOM      2  H   UNL     1       0.893  -0.892  -0.291  0.00  0.00    +0.145 HD
ATOM      3  H   UNL     1       0.827   0.727   0.178  0.00  0.00    +0.145 HD
ATOM      4  C   UNL     1       2.650  -0.015   0.192  0.00  0.00    +0.194 A 
ATOM      5  N   UNL     1       3.384  -1.147   0.006  0.00  0.00    -0.295 N 
ATOM      6  H   UNL     1       2.933  -2.047  -0.000  0.00  0.00    +0.172 HD
ATOM      7  C   UNL     1       4.754  -1.159  -0.082  0.00  0.00    +0.260 A 
ATOM      8  O   UNL     1       5.392  -2.199  -0.205  0.00  0.00    -0.267 OA
ATOM      9  C   UNL     1       5.408   0.161  -0.037  0.00  0.00    +0.067 A 
ATOM     10  C   UNL     1       4.579   1.275   0.152  0.00  0.00    +0.082 A 
ATOM     11  C   UNL     1       5.149   2.555   0.191  0.00  0.00    +0.058 A 
ATOM     12  C   UNL     1       6.529   2.699  -0.010  0.00  0.00    +0.093 A 
ATOM     13  N   UNL     1       7.295   3.838  -0.046  0.00  0.00    -0.215 NA
ATOM     14  C   UNL     1       8.508   3.437  -0.338  0.00  0.00    +0.194 A 
ATOM     15  N   UNL     1       9.617   4.159  -0.535  0.00  0.00    -0.310 N 
ATOM     16  H   UNL     1      10.465   3.795  -0.953  0.00  0.00    +0.149 HD
ATOM     17  N   UNL     1       8.566   2.071  -0.427  0.00  0.00    -0.326 N 
ATOM     18  H   UNL     1       9.400   1.537  -0.610  0.00  0.00    +0.169 HD
ATOM     19  C   UNL     1       7.309   1.567  -0.217  0.00  0.00    +0.068 A 
ATOM     20  C   UNL     1       6.797   0.268  -0.210  0.00  0.00    +0.043 A 
ATOM     21  N   UNL     1       3.183   1.160   0.275  0.00  0.00    -0.216 NA
ENDROOT
BRANCH  15  22
ATOM     22  C   UNL     1       9.678   5.551  -0.133  0.00  0.00    +0.146 C 
BRANCH  22  23
ATOM     23  C   UNL     1      10.952   5.849   0.611  0.00  0.00    +0.007 A 
ATOM     24  S   UNL     1      12.356   6.354  -0.231  0.00  0.00    -0.100 S 
ATOM     25  C   UNL     1      13.280   6.395   1.208  0.00  0.00    +0.045 A 
ATOM     26  C   UNL     1      12.537   6.035   2.311  0.00  0.00    +0.008 A 
ATOM     27  C   UNL     1      11.192   5.720   1.966  0.00  0.00    +0.013 A 
ENDBRANCH  22  23
ENDBRANCH  15  22
TORSDOF 2
