REMARK  Name = 
REMARK  13 active torsions:
REMARK  status: ('A' for Active; 'I' for Inactive)
REMARK    1  A    between atoms: C_2  and  C_3
REMARK    2  A    between atoms: C_2  and  C_5
REMARK    3  A    between atoms: C_2  and  C_23
REMARK    4  A    between atoms: C_3  and  C_4
REMARK    5  A    between atoms: C_9  and  N_10
REMARK    6  A    between atoms: C_11  and  C_13
REMARK    7  A    between atoms: C_13  and  N_14
REMARK    8  A    between atoms: C_15  and  O_17
REMARK    9  A    between atoms: O_17  and  C_18
REMARK   10  A    between atoms: C_18  and  C_19
REMARK   11  A    between atoms: C_18  and  C_20
REMARK   12  A    between atoms: C_18  and  C_21
REMARK   13  A    between atoms: C_24  and  O_25
REMARK                            x       y       z     vdW  Elec       q    Type
REMARK                         _______ _______ _______ _____ _____    ______ ____
ROOT
ATOM      1  C   UNL     1       2.575   0.164   1.381  0.00  0.00    -0.038 A 
ATOM      2  C   UNL     1       3.191  -0.871   2.106  0.00  0.00    +0.027 A 
ATOM      3  C   UNL     1       3.775  -0.644   3.356  0.00  0.00    +0.034 A 
ATOM      4  C   UNL     1       3.701   0.622   3.931  0.00  0.00    +0.023 A 
ATOM      5  C   UNL     1       3.124   1.671   3.212  0.00  0.00    +0.002 A 
ATOM      6  C   UNL     1       2.565   1.445   1.948  0.00  0.00    +0.004 A 
ENDROOT
BRANCH   3   7
ATOM      7  N   UNL     1       4.460  -1.668   4.037  0.00  0.00    -0.284 N 
ATOM      8  H   UNL     1       4.524  -1.597   5.047  0.00  0.00    +0.155 HD
ATOM      9  C   UNL     1       5.289  -2.580   3.394  0.00  0.00    +0.234 C 
ATOM     10  O   UNL     1       5.484  -2.629   2.178  0.00  0.00    -0.274 OA
BRANCH   9  11
ATOM     11  C   UNL     1       5.938  -3.608   4.323  0.00  0.00    +0.203 C 
BRANCH  11  12
ATOM     12  N   UNL     1       5.197  -4.848   4.257  0.00  0.00    -0.273 N 
ATOM     13  H   UNL     1       5.322  -5.487   3.482  0.00  0.00    +0.153 HD
ATOM     14  C   UNL     1       4.099  -5.019   5.048  0.00  0.00    +0.401 C 
ATOM     15  O   UNL     1       3.745  -4.198   5.876  0.00  0.00    -0.226 OA
BRANCH  14  16
ATOM     16  O   UNL     1       3.498  -6.204   4.776  0.00  0.00    -0.445 OA
BRANCH  16  17
ATOM     17  C   UNL     1       2.354  -6.605   5.579  0.00  0.00    +0.107 C 
ATOM     18  C   UNL     1       2.740  -6.731   7.060  0.00  0.00    +0.055 C 
ATOM     19  C   UNL     1       1.951  -8.002   5.077  0.00  0.00    +0.055 C 
ATOM     20  C   UNL     1       1.165  -5.659   5.364  0.00  0.00    +0.055 C 
ENDBRANCH  16  17
ENDBRANCH  14  16
ENDBRANCH  11  12
ENDBRANCH   9  11
ENDBRANCH   3   7
BRANCH   1  21
ATOM     21  C   UNL     1       1.991  -0.143   0.002  0.00  0.00    +0.059 C 
BRANCH  21  22
ATOM     22  C   UNL     1       0.469  -0.293   0.007  0.00  0.00    +0.086 A 
ATOM     23  C   UNL     1      -0.339   0.955  -0.117  0.00  0.00    +0.345 A 
ATOM     24  O   UNL     1       0.177   2.067  -0.155  0.00  0.00    -0.245 OA
ATOM     25  O   UNL     1      -1.721   0.835  -0.202  0.00  0.00    -0.422 OA
ATOM     26  C   UNL     1      -2.359  -0.412  -0.217  0.00  0.00    +0.143 A 
ATOM     27  C   UNL     1      -1.625  -1.580  -0.079  0.00  0.00    +0.059 A 
ATOM     28  C   UNL     1      -2.317  -2.799  -0.113  0.00  0.00    +0.015 A 
ATOM     29  C   UNL     1      -3.703  -2.830  -0.298  0.00  0.00    +0.001 A 
ATOM     30  C   UNL     1      -4.417  -1.641  -0.440  0.00  0.00    +0.004 A 
ATOM     31  C   UNL     1      -3.744  -0.422  -0.392  0.00  0.00    +0.047 A 
ATOM     32  C   UNL     1      -0.169  -1.483   0.058  0.00  0.00    +0.138 A 
BRANCH  32  33
ATOM     33  O   UNL     1       0.455  -2.706   0.201  0.00  0.00    -0.506 OA
ATOM     34  H   UNL     1       1.371  -2.589   0.495  0.00  0.00    +0.292 HD
ENDBRANCH  32  33
ENDBRANCH  21  22
BRANCH  21  35
ATOM     35  C   UNL     1       2.631   0.736  -1.103  0.00  0.00    +0.010 C 
ATOM     36  C   UNL     1       2.142   0.405  -2.508  0.00  0.00    +0.005 C 
ENDBRANCH  21  35
ENDBRANCH   1  21
TORSDOF 9
