REMARK  Name = 
REMARK  11 active torsions:
REMARK  status: ('A' for Active; 'I' for Inactive)
REMARK    1  A    between atoms: C_2  and  C_3
REMARK    2  A    between atoms: C_2  and  O_18
REMARK    3  A    between atoms: C_2  and  C_27
REMARK    4  A    between atoms: C_3  and  S_4
REMARK    5  A    between atoms: S_4  and  C_7
REMARK    6  A    between atoms: C_7  and  C_8
REMARK    7  A    between atoms: C_9  and  O_10
REMARK    8  A    between atoms: O_10  and  C_11
REMARK    9  A    between atoms: O_18  and  C_19
REMARK   10  A    between atoms: N_29  and  C_30
REMARK   11  A    between atoms: C_30  and  C_31
REMARK                            x       y       z     vdW  Elec       q    Type
REMARK                         _______ _______ _______ _____ _____    ______ ____
ROOT
ATOM      1  C   UNL     1       2.151  -0.029  -0.211  0.00  0.00    +0.284 C 
ENDROOT
BRANCH   1   2
ATOM      2  C   UNL     1       2.570   1.435  -0.449  0.00  0.00    +0.256 C 
ATOM      3  N   UNL     1       3.331   1.634  -1.578  0.00  0.00    -0.299 N 
ATOM      4  H   UNL     1       3.682   0.804  -2.046  0.00  0.00    +0.150 HD
ATOM      5  O   UNL     1       2.237   2.345   0.305  0.00  0.00    -0.272 OA
BRANCH   3   6
ATOM      6  C   UNL     1       3.914   2.919  -1.897  0.00  0.00    +0.223 C 
BRANCH   6   7
ATOM      7  C   UNL     1       4.766   2.848  -3.102  0.00  0.00    +0.081 C 
ATOM      8  N   UNL     1       5.419   2.756  -4.056  0.00  0.00    -0.195 NA
ENDBRANCH   6   7
ENDBRANCH   3   6
ENDBRANCH   1   2
BRANCH   1   9
ATOM      9  O   UNL     1       2.652  -0.841  -1.278  0.00  0.00    -0.436 OA
BRANCH   9  10
ATOM     10  C   UNL     1       2.232  -2.129  -1.329  0.00  0.00    +0.404 C 
ATOM     11  N   UNL     1       2.913  -2.840  -2.284  0.00  0.00    -0.263 N 
ATOM     12  C   UNL     1       2.778  -4.291  -2.370  0.00  0.00    +0.139 C 
ATOM     13  C   UNL     1       4.118  -4.967  -2.050  0.00  0.00    +0.179 C 
ATOM     14  O   UNL     1       5.173  -4.452  -2.883  0.00  0.00    -0.377 OA
ATOM     15  C   UNL     1       5.330  -3.037  -2.681  0.00  0.00    +0.179 C 
ATOM     16  C   UNL     1       4.041  -2.299  -3.048  0.00  0.00    +0.139 C 
ATOM     17  O   UNL     1       1.377  -2.588  -0.586  0.00  0.00    -0.226 OA
ENDBRANCH   9  10
ENDBRANCH   1   9
BRANCH   1  18
ATOM     18  C   UNL     1       2.603  -0.509   1.164  0.00  0.00    +0.220 C 
BRANCH  18  19
ATOM     19  S   UNL     1       4.390  -0.521   1.325  0.00  0.00    -0.023 S 
ATOM     20  O   UNL     1       4.908   0.819   1.124  0.00  0.00    -0.174 OA
ATOM     21  O   UNL     1       4.882  -1.587   0.469  0.00  0.00    -0.174 OA
BRANCH  19  22
ATOM     22  C   UNL     1       4.713  -1.022   3.014  0.00  0.00    +0.204 C 
BRANCH  22  23
ATOM     23  C   UNL     1       4.118  -0.142   4.097  0.00  0.00    +0.015 A 
ATOM     24  C   UNL     1       3.468   1.079   3.855  0.00  0.00    +0.009 A 
ATOM     25  C   UNL     1       2.807   1.772   4.867  0.00  0.00    +0.001 A 
ATOM     26  C   UNL     1       2.852   1.303   6.168  0.00  0.00    +0.004 A 
ATOM     27  C   UNL     1       3.578   0.151   6.462  0.00  0.00    +0.046 A 
ATOM     28  C   UNL     1       4.226  -0.561   5.443  0.00  0.00    +0.132 A 
BRANCH  28  29
ATOM     29  O   UNL     1       4.965  -1.694   5.680  0.00  0.00    -0.434 OA
BRANCH  29  30
ATOM     30  C   UNL     1       5.619  -1.729   6.946  0.00  0.00    +0.541 C 
ATOM     31  F   UNL     1       6.629  -2.630   6.856  0.00  0.00    -0.166 F 
ATOM     32  F   UNL     1       4.753  -2.210   7.872  0.00  0.00    -0.166 F 
ENDBRANCH  29  30
ENDBRANCH  28  29
ENDBRANCH  22  23
ENDBRANCH  19  22
ENDBRANCH  18  19
ENDBRANCH   1  18
TORSDOF 11
