REMARK  Name = 
REMARK  9 active torsions:
REMARK  status: ('A' for Active; 'I' for Inactive)
REMARK    1  A    between atoms: C_1  and  C_2
REMARK    2  A    between atoms: C_2  and  C_3
REMARK    3  A    between atoms: C_2  and  C_4
REMARK    4  A    between atoms: C_2  and  C_5
REMARK    5  A    between atoms: C_7  and  N_12
REMARK    6  A    between atoms: C_10  and  O_11
REMARK    7  A    between atoms: N_13  and  C_14
REMARK    8  A    between atoms: C_19  and  C_20
REMARK    9  A    between atoms: C_20  and  O_21
REMARK                            x       y       z     vdW  Elec       q    Type
REMARK                         _______ _______ _______ _____ _____    ______ ____
ROOT
ATOM      1  C   UNL     1       3.040  -1.118  -0.981  0.00  0.00    +0.001 A 
ATOM      2  C   UNL     1       2.848  -2.493  -0.750  0.00  0.00    +0.121 A 
ATOM      3  C   UNL     1       3.138  -3.457  -1.720  0.00  0.00    +0.048 A 
ATOM      4  C   UNL     1       3.628  -3.073  -2.963  0.00  0.00    +0.033 A 
ATOM      5  C   UNL     1       3.871  -1.728  -3.240  0.00  0.00    +0.087 A 
ATOM      6  C   UNL     1       3.563  -0.771  -2.252  0.00  0.00    +0.037 A 
ENDROOT
BRANCH   1   8
ATOM      7  C   UNL     1       1.113   0.261  -0.206  0.00  0.00    +0.015 C 
ATOM      8  C   UNL     1       2.612  -0.022   0.026  0.00  0.00    -0.009 C 
ATOM      9  C   UNL     1       2.816  -0.404   1.514  0.00  0.00    +0.015 C 
ATOM     10  C   UNL     1       3.379   1.315  -0.152  0.00  0.00    +0.015 C 
ENDBRANCH   1   8
BRANCH   2  11
ATOM     11  O   UNL     1       2.333  -2.934   0.435  0.00  0.00    -0.506 OA
ATOM     12  H   UNL     1       2.383  -3.903   0.469  0.00  0.00    +0.292 HD
ENDBRANCH   2  11
BRANCH   5  13
ATOM     13  N   UNL     1       4.356  -1.285  -4.490  0.00  0.00    -0.149 NA
ATOM     14  N   UNL     1       5.230  -2.045  -4.969  0.00  0.00    -0.148 NA
BRANCH  14  15
ATOM     15  C   UNL     1       5.783  -1.508  -6.158  0.00  0.00    +0.100 A 
ATOM     16  C   UNL     1       6.008  -2.301  -7.301  0.00  0.00    +0.086 A 
ATOM     17  C   UNL     1       6.579  -1.711  -8.448  0.00  0.00    +0.017 A 
ATOM     18  C   UNL     1       6.933  -0.361  -8.465  0.00  0.00    +0.001 A 
ATOM     19  C   UNL     1       6.741   0.416  -7.331  0.00  0.00    +0.002 A 
ATOM     20  C   UNL     1       6.183  -0.156  -6.188  0.00  0.00    +0.030 A 
BRANCH  16  21
ATOM     21  C   UNL     1       5.687  -3.757  -7.412  0.00  0.00    +0.339 C 
ATOM     22  O   UNL     1       5.815  -4.374  -8.460  0.00  0.00    -0.245 OA
BRANCH  21  23
ATOM     23  O   UNL     1       5.271  -4.369  -6.283  0.00  0.00    -0.477 OA
ATOM     24  H   UNL     1       5.222  -3.773  -5.510  0.00  0.00    +0.295 HD
ENDBRANCH  21  23
ENDBRANCH  16  21
ENDBRANCH  14  15
ENDBRANCH   5  13
TORSDOF 6
