REMARK  Name = 
REMARK  4 active torsions:
REMARK  status: ('A' for Active; 'I' for Inactive)
REMARK    1  A    between atoms: O_1  and  C_2
REMARK    2  A    between atoms: C_3  and  C_9
REMARK    3  A    between atoms: C_11  and  C_12
REMARK    4  A    between atoms: C_18  and  C_19
REMARK                            x       y       z     vdW  Elec       q    Type
REMARK                         _______ _______ _______ _____ _____    ______ ____
ROOT
ATOM      1  C   UNL     1       2.197   2.454  -0.173  0.00  0.00    +0.053 A 
ATOM      2  N   UNL     1       2.874   3.612   0.124  0.00  0.00    -0.321 N 
ATOM      3  H   UNL     1       3.846   3.569   0.420  0.00  0.00    +0.169 HD
ATOM      4  C   UNL     1       2.332   4.875   0.062  0.00  0.00    +0.267 A 
ATOM      5  O   UNL     1       3.033   5.863   0.253  0.00  0.00    -0.266 OA
ATOM      6  C   UNL     1       0.869   4.969  -0.232  0.00  0.00    +0.124 A 
ATOM      7  C   UNL     1       0.185   3.827  -0.471  0.00  0.00    +0.007 A 
ATOM      8  C   UNL     1       0.895   2.550  -0.499  0.00  0.00    +0.036 A 
ENDROOT
BRANCH   1  15
ATOM      9  C   UNL     1       4.320   1.047  -0.316  0.00  0.00    +0.126 A 
ATOM     10  C   UNL     1       4.987  -0.173  -0.185  0.00  0.00    +0.047 A 
ATOM     11  C   UNL     1       4.273  -1.332   0.109  0.00  0.00    +0.019 A 
ATOM     12  C   UNL     1       2.897  -1.252   0.291  0.00  0.00    +0.019 A 
ATOM     13 BR   UNL     1       1.909  -2.816   0.685  0.00  0.00    -0.050 Br
ATOM     14  C   UNL     1       2.234  -0.025   0.193  0.00  0.00    +0.028 A 
ATOM     15  C   UNL     1       2.928   1.159  -0.122  0.00  0.00    +0.041 A 
BRANCH   9  16
ATOM     16  O   UNL     1       5.107   2.116  -0.655  0.00  0.00    -0.506 OA
ATOM     17  H   UNL     1       4.602   2.667  -1.279  0.00  0.00    +0.292 HD
ENDBRANCH   9  16
ENDBRANCH   1  15
BRANCH   7  18
ATOM     18  C   UNL     1      -1.284   3.849  -0.676  0.00  0.00    -0.016 A 
ATOM     19  C   UNL     1      -2.154   3.711   0.417  0.00  0.00    +0.008 A 
ATOM     20  C   UNL     1      -3.536   3.705   0.223  0.00  0.00    +0.001 A 
ATOM     21  C   UNL     1      -4.063   3.828  -1.062  0.00  0.00    +0.000 A 
ATOM     22  C   UNL     1      -3.206   3.952  -2.154  0.00  0.00    +0.001 A 
ATOM     23  C   UNL     1      -1.820   3.958  -1.966  0.00  0.00    +0.008 A 
ENDBRANCH   7  18
BRANCH   6  24
ATOM     24  C   UNL     1       0.276   6.261  -0.208  0.00  0.00    +0.105 C 
ATOM     25  N   UNL     1      -0.240   7.305  -0.201  0.00  0.00    -0.191 NA
ENDBRANCH   6  24
TORSDOF 4
