REMARK  Name = 
REMARK  7 active torsions:
REMARK  status: ('A' for Active; 'I' for Inactive)
REMARK    1  A    between atoms: C_2  and  O_3
REMARK    2  A    between atoms: C_6  and  C_7
REMARK    3  A    between atoms: C_6  and  C_15
REMARK    4  A    between atoms: C_7  and  C_8
REMARK    5  A    between atoms: C_8  and  C_10
REMARK    6  A    between atoms: C_10  and  O_11
REMARK    7  A    between atoms: C_15  and  O_16
REMARK                            x       y       z     vdW  Elec       q    Type
REMARK                         _______ _______ _______ _____ _____    ______ ____
ROOT
ATOM      1  C   UNL     1       2.285   0.127  -0.288  0.00  0.00    +0.160 C 
ATOM      2  C   UNL     1       2.576  -1.098   0.526  0.00  0.00    +0.005 C 
ATOM      3  C   UNL     1       2.875  -1.071   1.837  0.00  0.00    -0.006 C 
ATOM      4  C   UNL     1       2.934   0.212   2.672  0.00  0.00    +0.111 C 
ATOM      5  C   UNL     1       2.823   1.448   1.779  0.00  0.00    -0.006 C 
ATOM      6  C   UNL     1       2.522   1.400   0.469  0.00  0.00    +0.005 C 
ENDROOT
BRANCH   1   7
ATOM      7  O   UNL     1       0.922   0.095  -0.668  0.00  0.00    -0.384 OA
ATOM      8  H   UNL     1       0.401   0.044   0.151  0.00  0.00    +0.211 HD
ENDBRANCH   1   7
BRANCH   4   9
ATOM      9  C   UNL     1       4.273   0.150   3.454  0.00  0.00    +0.319 C 
ATOM     10  O   UNL     1       4.383  -0.388   4.550  0.00  0.00    -0.250 OA
BRANCH   9  11
ATOM     11  O   UNL     1       5.349   0.654   2.808  0.00  0.00    -0.480 OA
ATOM     12  H   UNL     1       5.150   0.995   1.914  0.00  0.00    +0.295 HD
ENDBRANCH   9  11
ENDBRANCH   4   9
BRANCH   4  13
ATOM     13  C   UNL     1       1.763   0.170   3.677  0.00  0.00    +0.113 C 
BRANCH  13  14
ATOM     14  C   UNL     1       1.751   1.317   4.662  0.00  0.00    +0.241 C 
ATOM     15  O   UNL     1       2.524   2.270   4.686  0.00  0.00    -0.285 OA
BRANCH  14  16
ATOM     16  C   UNL     1       0.626   1.307   5.692  0.00  0.00    +0.373 C 
ATOM     17  O   UNL     1      -0.229   0.447   5.732  0.00  0.00    -0.242 OA
BRANCH  16  18
ATOM     18  O   UNL     1       0.703   2.388   6.490  0.00  0.00    -0.475 OA
ATOM     19  H   UNL     1       1.493   2.924   6.241  0.00  0.00    +0.295 HD
ENDBRANCH  16  18
ENDBRANCH  14  16
ENDBRANCH  13  14
ENDBRANCH   4  13
TORSDOF 7
