REMARK  Name = 
REMARK  4 active torsions:
REMARK  status: ('A' for Active; 'I' for Inactive)
REMARK    1  A    between atoms: N_1  and  S_2
REMARK    2  A    between atoms: S_2  and  C_5
REMARK    3  A    between atoms: C_8  and  N_9
REMARK    4  A    between atoms: C_10  and  C_12
REMARK                            x       y       z     vdW  Elec       q    Type
REMARK                         _______ _______ _______ _____ _____    ______ ____
ROOT
ATOM      1  N   UNL     1       4.802   5.468   1.466  0.00  0.00    -0.280 N 
ATOM      2  H   UNL     1       4.339   6.300   1.114  0.00  0.00    +0.155 HD
ATOM      3  C   UNL     1       6.043   5.680   2.052  0.00  0.00    +0.269 C 
ATOM      4  O   UNL     1       6.819   4.785   2.368  0.00  0.00    -0.268 OA
ENDROOT
BRANCH   3   5
ATOM      5  C   UNL     1       6.414   7.090   2.267  0.00  0.00    +0.155 A 
ATOM      6  C   UNL     1       7.639   7.509   2.869  0.00  0.00    +0.032 A 
ATOM      7  C   UNL     1       8.776   6.857   3.389  0.00  0.00    +0.012 A 
ATOM      8  C   UNL     1       9.820   7.616   3.917  0.00  0.00    +0.001 A 
ATOM      9  C   UNL     1       9.741   9.006   3.935  0.00  0.00    +0.002 A 
ATOM     10  C   UNL     1       8.618   9.678   3.427  0.00  0.00    +0.028 A 
ATOM     11  C   UNL     1       7.584   8.894   2.899  0.00  0.00    +0.066 A 
ATOM     12  N   UNL     1       6.376   9.210   2.334  0.00  0.00    -0.276 N 
ATOM     13  H   UNL     1       5.995  10.140   2.196  0.00  0.00    +0.189 HD
ATOM     14  N   UNL     1       5.640   8.144   1.936  0.00  0.00    -0.168 NA
ENDBRANCH   3   5
BRANCH   1  18
ATOM     15  C   UNL     1       2.947   1.718   0.898  0.00  0.00    +0.105 A 
ATOM     16  C   UNL     1       2.491   2.847   0.209  0.00  0.00    +0.030 A 
ATOM     17  C   UNL     1       3.115   4.087   0.410  0.00  0.00    +0.025 A 
ATOM     18  C   UNL     1       4.210   4.199   1.276  0.00  0.00    +0.034 A 
ATOM     19  C   UNL     1       4.658   3.049   1.937  0.00  0.00    +0.025 A 
ATOM     20  C   UNL     1       4.039   1.810   1.753  0.00  0.00    +0.030 A 
BRANCH  15  21
ATOM     21  S   UNL     1       2.101   0.176   0.744  0.00  0.00    +0.056 S 
ATOM     22  O   UNL     1       0.931   0.350  -0.085  0.00  0.00    -0.153 OA
ATOM     23  O   UNL     1       3.069  -0.873   0.520  0.00  0.00    -0.153 OA
BRANCH  21  24
ATOM     24  N   UNL     1       1.508  -0.047   2.301  0.00  0.00    -0.204 NA
ATOM     25  H   UNL     1       0.508   0.149   2.329  0.00  0.00    +0.144 HD
ATOM     26  H   UNL     1       1.757  -0.979   2.635  0.00  0.00    +0.144 HD
ENDBRANCH  21  24
ENDBRANCH  15  21
ENDBRANCH   1  18
TORSDOF 4
