REMARK  Name = 
REMARK  8 active torsions:
REMARK  status: ('A' for Active; 'I' for Inactive)
REMARK    1  A    between atoms: C_1  and  O_2
REMARK    2  A    between atoms: O_2  and  C_3
REMARK    3  A    between atoms: C_5  and  C_6
REMARK    4  A    between atoms: C_7  and  C_8
REMARK    5  A    between atoms: C_8  and  O_9
REMARK    6  A    between atoms: C_12  and  O_13
REMARK    7  A    between atoms: O_13  and  C_14
REMARK    8  A    between atoms: C_15  and  O_16
REMARK                            x       y       z     vdW  Elec       q    Type
REMARK                         _______ _______ _______ _____ _____    ______ ____
ROOT
ATOM      1  C   UNL     1       3.047   0.937   0.900  0.00  0.00    +0.166 A 
ATOM      2  C   UNL     1       3.944   0.459   1.879  0.00  0.00    +0.201 A 
ATOM      3  C   UNL     1       4.599   1.352   2.731  0.00  0.00    +0.166 A 
ATOM      4  C   UNL     1       4.325   2.727   2.605  0.00  0.00    +0.057 A 
ATOM      5  C   UNL     1       3.427   3.216   1.653  0.00  0.00    -0.018 A 
ATOM      6  C   UNL     1       2.815   2.311   0.781  0.00  0.00    +0.057 A 
ENDROOT
BRANCH   1   8
ATOM      7  C   UNL     1       1.252   0.372  -0.553  0.00  0.00    +0.277 C 
ATOM      8  O   UNL     1       2.488   0.006   0.056  0.00  0.00    -0.491 OA
ENDBRANCH   1   8
BRANCH   2   9
ATOM      9  O   UNL     1       4.104  -0.899   1.954  0.00  0.00    -0.501 OA
ATOM     10  H   UNL     1       5.055  -1.079   1.940  0.00  0.00    +0.292 HD
ENDBRANCH   2   9
BRANCH   3  11
ATOM     11  O   UNL     1       5.497   1.112   3.735  0.00  0.00    -0.491 OA
ATOM     12  C   UNL     1       5.909  -0.205   4.051  0.00  0.00    +0.277 C 
ENDBRANCH   3  11
BRANCH   5  13
ATOM     13  C   UNL     1       3.145   4.650   1.480  0.00  0.00    +0.015 C 
ATOM     14  C   UNL     1       3.049   5.521   2.496  0.00  0.00    +0.092 C 
BRANCH  14  15
ATOM     15  C   UNL     1       2.755   6.959   2.362  0.00  0.00    +0.330 C 
ATOM     16  O   UNL     1       3.102   7.765   3.208  0.00  0.00    -0.246 OA
BRANCH  15  17
ATOM     17  O   UNL     1       2.049   7.296   1.269  0.00  0.00    -0.478 OA
ATOM     18  H   UNL     1       1.693   6.546   0.763  0.00  0.00    +0.295 HD
ENDBRANCH  15  17
ENDBRANCH  14  15
ENDBRANCH   5  13
TORSDOF 6
