REMARK  Name = 
REMARK  2 active torsions:
REMARK  status: ('A' for Active; 'I' for Inactive)
REMARK    1  A    between atoms: C_2  and  C_3
REMARK    2  A    between atoms: N_7  and  C_8
REMARK                            x       y       z     vdW  Elec       q    Type
REMARK                         _______ _______ _______ _____ _____    ______ ____
ROOT
ATOM      1  C   UNL     1       2.540  -0.193  -0.110  0.00  0.00    +0.147 C 
ATOM      2  C   UNL     1       2.534  -1.774   0.095  0.00  0.00    +0.057 C 
ATOM      3  C   UNL     1       3.803  -2.509  -0.418  0.00  0.00    +0.042 C 
ATOM      4  C   UNL     1       3.600  -4.016  -0.621  0.00  0.00    +0.083 C 
ATOM      5  N   UNL     1       2.468  -4.376  -1.453  0.00  0.00    -0.316 NA
ATOM      6  H   UNL     1       2.692  -4.369  -2.446  0.00  0.00    +0.122 HD
ATOM      7  C   UNL     1       1.222  -3.703  -1.158  0.00  0.00    +0.083 C 
ATOM      8  C   UNL     1       1.304  -2.245  -0.729  0.00  0.00    +0.042 C 
ATOM      9  N   UNL     1       2.366  -2.131   1.544  0.00  0.00    -0.303 N 
ATOM     10  H   UNL     1       2.225  -3.107   1.780  0.00  0.00    +0.150 HD
ATOM     11  C   UNL     1       2.911  -1.421   2.605  0.00  0.00    +0.261 C 
ATOM     12  O   UNL     1       3.071  -1.972   3.691  0.00  0.00    -0.269 OA
ATOM     13  C   UNL     1       3.156  -0.021   2.337  0.00  0.00    +0.110 A 
ATOM     14  N   UNL     1       3.546   0.988   3.200  0.00  0.00    -0.339 N 
ATOM     15  C   UNL     1       3.344   2.227   2.604  0.00  0.00    +0.051 A 
ATOM     16  C   UNL     1       2.940   1.990   1.291  0.00  0.00    +0.005 A 
ATOM     17  C   UNL     1       2.597   3.080   0.465  0.00  0.00    +0.012 A 
ATOM     18  C   UNL     1       2.671   4.380   0.972  0.00  0.00    +0.021 A 
ATOM     19  C   UNL     1       3.107   4.599   2.272  0.00  0.00    +0.043 A 
ATOM     20 CL   UNL     1       3.200   6.213   2.868  0.00  0.00    -0.083 Cl
ATOM     21  C   UNL     1       3.457   3.535   3.113  0.00  0.00    +0.046 A 
ATOM     22  C   UNL     1       4.013   0.852   4.566  0.00  0.00    +0.149 C 
ATOM     23  C   UNL     1       2.944   0.575   1.106  0.00  0.00    +0.009 A 
ENDROOT
BRANCH   1  24
ATOM     24  C   UNL     1       3.325   0.233  -1.283  0.00  0.00    +0.073 C 
ATOM     25  N   UNL     1       3.920   0.563  -2.230  0.00  0.00    -0.196 NA
ENDBRANCH   1  24
TORSDOF 1
