REMARK  Name = 
REMARK  4 active torsions:
REMARK  status: ('A' for Active; 'I' for Inactive)
REMARK    1  A    between atoms: O_1  and  C_2
REMARK    2  A    between atoms: C_9  and  C_10
REMARK    3  A    between atoms: C_13  and  O_14
REMARK    4  A    between atoms: C_16  and  O_17
REMARK                            x       y       z     vdW  Elec       q    Type
REMARK                         _______ _______ _______ _____ _____    ______ ____
ROOT
ATOM      1  C   UNL     1       2.408  -0.131   0.073  0.00  0.00    +0.119 A 
ATOM      2  C   UNL     1       3.159  -1.306   0.111  0.00  0.00    +0.073 A 
ATOM      3  C   UNL     1       4.553  -1.167   0.118  0.00  0.00    +0.070 A 
ATOM      4  N   UNL     1       5.548  -2.099   0.155  0.00  0.00    -0.276 N 
ATOM      5  H   UNL     1       5.446  -3.105   0.191  0.00  0.00    +0.189 HD
ATOM      6  N   UNL     1       6.787  -1.590   0.161  0.00  0.00    -0.173 NA
ATOM      7  C   UNL     1       6.609  -0.253   0.102  0.00  0.00    +0.104 A 
ATOM      8  C   UNL     1       5.205   0.061   0.096  0.00  0.00    +0.028 A 
ATOM      9  C   UNL     1       4.408   1.227   0.094  0.00  0.00    +0.016 A 
ATOM     10  C   UNL     1       3.009   1.119   0.064  0.00  0.00    +0.046 A 
ENDROOT
BRANCH   7  11
ATOM     11  C   UNL     1       7.779   0.643   0.117  0.00  0.00    +0.044 A 
ATOM     12  C   UNL     1       7.827   1.882  -0.541  0.00  0.00    +0.130 A 
ATOM     13  C   UNL     1       8.948   2.717  -0.429  0.00  0.00    +0.091 A 
ATOM     14  C   UNL     1      10.043   2.303   0.317  0.00  0.00    +0.120 A 
ATOM     15  C   UNL     1      10.054   1.061   0.934  0.00  0.00    +0.046 A 
ATOM     16  C   UNL     1       8.925   0.239   0.833  0.00  0.00    +0.017 A 
BRANCH  12  17
ATOM     17  O   UNL     1       6.796   2.298  -1.339  0.00  0.00    -0.506 OA
ATOM     18  H   UNL     1       7.021   3.158  -1.728  0.00  0.00    +0.292 HD
ENDBRANCH  12  17
BRANCH  14  19
ATOM     19  O   UNL     1      11.101   3.157   0.413  0.00  0.00    -0.507 OA
ATOM     20  H   UNL     1      11.757   2.771   1.017  0.00  0.00    +0.292 HD
ENDBRANCH  14  19
ENDBRANCH   7  11
BRANCH   1  21
ATOM     21  O   UNL     1       1.048  -0.259   0.051  0.00  0.00    -0.507 OA
ATOM     22  H   UNL     1       0.654   0.627   0.014  0.00  0.00    +0.292 HD
ENDBRANCH   1  21
TORSDOF 4
