REMARK  Name = 
REMARK  6 active torsions:
REMARK  status: ('A' for Active; 'I' for Inactive)
REMARK    1  A    between atoms: C_2  and  C_3
REMARK    2  A    between atoms: C_2  and  C_6
REMARK    3  A    between atoms: C_2  and  C_13
REMARK    4  A    between atoms: C_3  and  C_4
REMARK    5  A    between atoms: C_3  and  C_5
REMARK    6  A    between atoms: C_14  and  O_15
REMARK                            x       y       z     vdW  Elec       q    Type
REMARK                         _______ _______ _______ _____ _____    ______ ____
ROOT
ATOM      1  C   UNL     1       2.372   1.258   1.075  0.00  0.00    +0.086 A 
ATOM      2  C   UNL     1       3.057   0.598   2.233  0.00  0.00    +0.345 A 
ATOM      3  O   UNL     1       3.274  -0.608   2.260  0.00  0.00    -0.245 OA
ATOM      4  O   UNL     1       3.420   1.400   3.311  0.00  0.00    -0.422 OA
ATOM      5  C   UNL     1       3.209   2.787   3.310  0.00  0.00    +0.143 A 
ATOM      6  C   UNL     1       3.685   3.516   4.399  0.00  0.00    +0.047 A 
ATOM      7  C   UNL     1       3.528   4.902   4.411  0.00  0.00    +0.004 A 
ATOM      8  C   UNL     1       2.893   5.540   3.347  0.00  0.00    +0.001 A 
ATOM      9  C   UNL     1       2.410   4.791   2.273  0.00  0.00    +0.015 A 
ATOM     10  C   UNL     1       2.566   3.400   2.244  0.00  0.00    +0.059 A 
ATOM     11  C   UNL     1       2.119   2.585   1.121  0.00  0.00    +0.138 A 
ENDROOT
BRANCH  11  12
ATOM     12  O   UNL     1       1.491   3.310   0.134  0.00  0.00    -0.506 OA
ATOM     13  H   UNL     1       1.358   2.766  -0.660  0.00  0.00    +0.292 HD
ENDBRANCH  11  12
BRANCH   1  14
ATOM     14  C   UNL     1       2.008   0.299  -0.070  0.00  0.00    +0.062 C 
BRANCH  14  15
ATOM     15  C   UNL     1       2.543   0.711  -1.464  0.00  0.00    -0.039 A 
ATOM     16  C   UNL     1       2.163  -0.012  -2.609  0.00  0.00    +0.005 A 
ATOM     17  C   UNL     1       2.482   0.444  -3.892  0.00  0.00    +0.015 A 
ATOM     18  C   UNL     1       3.202   1.623  -4.050  0.00  0.00    +0.018 A 
ATOM     19 BR   UNL     1       3.494   2.333  -5.774  0.00  0.00    -0.050 Br
ATOM     20  C   UNL     1       3.696   2.288  -2.937  0.00  0.00    +0.015 A 
ATOM     21  C   UNL     1       3.413   1.802  -1.659  0.00  0.00    +0.005 A 
ENDBRANCH  14  15
BRANCH  14  22
ATOM     22  C   UNL     1       0.468  -0.065  -0.060  0.00  0.00    -0.005 C 
ATOM     23  C   UNL     1      -0.010  -0.587   1.304  0.00  0.00    +0.008 C 
ATOM     24  C   UNL     1      -0.480   1.057  -0.510  0.00  0.00    +0.008 C 
ENDBRANCH  14  22
ENDBRANCH   1  14
TORSDOF 4
