REMARK  Name = 
REMARK  13 active torsions:
REMARK  status: ('A' for Active; 'I' for Inactive)
REMARK    1  A    between atoms: C_2  and  C_3
REMARK    2  A    between atoms: C_2  and  C_7
REMARK    3  A    between atoms: C_2  and  C_12
REMARK    4  A    between atoms: C_3  and  C_4
REMARK    5  A    between atoms: C_4  and  C_5
REMARK    6  A    between atoms: C_4  and  C_6
REMARK    7  A    between atoms: C_7  and  C_8
REMARK    8  A    between atoms: N_10  and  O_11
REMARK    9  A    between atoms: N_14  and  C_15
REMARK   10  A    between atoms: C_15  and  C_17
REMARK   11  A    between atoms: C_15  and  C_24
REMARK   12  A    between atoms: C_17  and  C_18
REMARK   13  A    between atoms: N_26  and  C_27
REMARK                            x       y       z     vdW  Elec       q    Type
REMARK                         _______ _______ _______ _____ _____    ______ ____
ROOT
ATOM      1  C   UNL     1       2.689   0.953   1.063  0.00  0.00    +0.217 C 
ATOM      2  N   UNL     1       3.880   0.632   1.647  0.00  0.00    -0.303 N 
ATOM      3  H   UNL     1       4.405  -0.190   1.360  0.00  0.00    +0.149 HD
ATOM      4  O   UNL     1       2.032   1.925   1.421  0.00  0.00    -0.275 OA
ENDROOT
BRANCH   1   5
ATOM      5  C   UNL     1       2.222   0.033  -0.060  0.00  0.00    +0.084 C 
BRANCH   5   6
ATOM      6  C   UNL     1       0.834   0.506  -0.527  0.00  0.00    +0.110 C 
BRANCH   6   7
ATOM      7  C   UNL     1       0.198  -0.391  -1.560  0.00  0.00    +0.236 C 
ATOM      8  N   UNL     1      -0.685   0.269  -2.383  0.00  0.00    -0.197 N 
ATOM      9  H   UNL     1      -1.118   1.152  -2.133  0.00  0.00    +0.182 HD
ATOM     10  O   UNL     1       0.408  -1.597  -1.655  0.00  0.00    -0.274 OA
BRANCH   8  11
ATOM     11  O   UNL     1      -1.392  -0.542  -3.302  0.00  0.00    -0.295 OA
ATOM     12  H   UNL     1      -1.012  -1.432  -3.132  0.00  0.00    +0.241 HD
ENDBRANCH   8  11
ENDBRANCH   6   7
ENDBRANCH   5   6
BRANCH   5  13
ATOM     13  C   UNL     1       3.254  -0.074  -1.206  0.00  0.00    +0.016 C 
BRANCH  13  14
ATOM     14  C   UNL     1       3.524   1.197  -2.041  0.00  0.00    -0.016 C 
ATOM     15  C   UNL     1       4.431   0.844  -3.226  0.00  0.00    +0.007 C 
ATOM     16  C   UNL     1       4.181   2.326  -1.245  0.00  0.00    +0.007 C 
ENDBRANCH  13  14
ENDBRANCH   5  13
ENDBRANCH   1   5
BRANCH   2  17
ATOM     17  C   UNL     1       4.505   1.460   2.686  0.00  0.00    +0.163 C 
BRANCH  17  18
ATOM     18  C   UNL     1       5.921   0.893   2.945  0.00  0.00    +0.233 C 
ATOM     19  N   UNL     1       6.681   1.595   3.861  0.00  0.00    -0.317 N 
ATOM     20  H   UNL     1       6.309   2.435   4.283  0.00  0.00    +0.148 HD
ATOM     21  C   UNL     1       7.973   1.134   4.308  0.00  0.00    +0.128 C 
ATOM     22  O   UNL     1       6.340  -0.103   2.352  0.00  0.00    -0.274 OA
ENDBRANCH  17  18
BRANCH  17  23
ATOM     23  C   UNL     1       3.665   1.569   3.980  0.00  0.00    +0.067 C 
BRANCH  23  24
ATOM     24  C   UNL     1       3.431   0.228   4.637  0.00  0.00    -0.045 A 
ATOM     25  C   UNL     1       2.386  -0.598   4.199  0.00  0.00    +0.004 A 
ATOM     26  C   UNL     1       2.273  -1.902   4.675  0.00  0.00    +0.000 A 
ATOM     27  C   UNL     1       3.188  -2.381   5.611  0.00  0.00    +0.000 A 
ATOM     28  C   UNL     1       4.195  -1.549   6.093  0.00  0.00    +0.000 A 
ATOM     29  C   UNL     1       4.315  -0.247   5.612  0.00  0.00    +0.004 A 
ENDBRANCH  23  24
ENDBRANCH  17  23
ENDBRANCH   2  17
TORSDOF 10
