REMARK  Name = 
REMARK  21 active torsions:
REMARK  status: ('A' for Active; 'I' for Inactive)
REMARK    1  A    between atoms: C_2  and  C_49
REMARK    2  A    between atoms: C_6  and  C_8
REMARK    3  A    between atoms: C_8  and  C_9
REMARK    4  A    between atoms: C_8  and  C_10
REMARK    5  A    between atoms: N_11  and  C_12
REMARK    6  A    between atoms: C_15  and  C_46
REMARK    7  A    between atoms: C_20  and  C_22
REMARK    8  A    between atoms: C_22  and  C_23
REMARK    9  A    between atoms: C_22  and  C_24
REMARK   10  A    between atoms: N_25  and  C_26
REMARK   11  A    between atoms: C_29  and  C_43
REMARK   12  A    between atoms: C_34  and  C_36
REMARK   13  A    between atoms: C_36  and  C_37
REMARK   14  A    between atoms: C_36  and  C_38
REMARK   15  A    between atoms: N_39  and  C_40
REMARK   16  A    between atoms: C_43  and  C_44
REMARK   17  A    between atoms: C_43  and  C_45
REMARK   18  A    between atoms: C_46  and  C_47
REMARK   19  A    between atoms: C_46  and  C_48
REMARK   20  A    between atoms: C_49  and  C_50
REMARK   21  A    between atoms: C_49  and  C_51
REMARK                            x       y       z     vdW  Elec       q    Type
REMARK                         _______ _______ _______ _____ _____    ______ ____
ROOT
ATOM      1  C   UNL     1       1.710  -0.089   0.241  0.00  0.00    +0.264 C 
ATOM      2  C   UNL     1       2.289   1.287  -0.512  0.00  0.00    +0.257 C 
ATOM      3  O   UNL     1       2.328   1.277  -1.752  0.00  0.00    -0.272 OA
ATOM      4  N   UNL     1       2.918   2.369   0.174  0.00  0.00    -0.288 N 
ATOM      5  C   UNL     1       2.076   3.168   1.055  0.00  0.00    +0.133 C 
ATOM      6  C   UNL     1       4.248   3.016  -0.374  0.00  0.00    +0.187 C 
ATOM      7  C   UNL     1       5.231   3.865   0.595  0.00  0.00    +0.329 C 
ATOM      8  O   UNL     1       4.873   4.754   1.364  0.00  0.00    -0.249 OA
ATOM      9  O   UNL     1       6.531   3.358   0.558  0.00  0.00    -0.450 OA
ATOM     10  C   UNL     1       7.238   3.110   1.821  0.00  0.00    +0.264 C 
ATOM     11  C   UNL     1       8.833   2.850   1.709  0.00  0.00    +0.257 C 
ATOM     12  O   UNL     1       9.580   3.818   1.554  0.00  0.00    -0.272 OA
ATOM     13  N   UNL     1       9.378   1.586   2.089  0.00  0.00    -0.288 N 
ATOM     14  C   UNL     1      10.294   1.635   3.235  0.00  0.00    +0.133 C 
ATOM     15  C   UNL     1       9.144   0.278   1.348  0.00  0.00    +0.187 C 
ATOM     16  C   UNL     1       8.907  -1.089   2.128  0.00  0.00    +0.329 C 
ATOM     17  O   UNL     1       9.639  -1.574   2.992  0.00  0.00    -0.249 OA
ATOM     18  O   UNL     1       7.701  -1.604   1.719  0.00  0.00    -0.450 OA
ATOM     19  C   UNL     1       6.901  -2.746   2.323  0.00  0.00    +0.264 C 
ATOM     20  C   UNL     1       6.255  -3.236   0.974  0.00  0.00    +0.257 C 
ATOM     21  O   UNL     1       6.941  -3.333  -0.050  0.00  0.00    -0.272 OA
ATOM     22  N   UNL     1       4.872  -3.461   0.902  0.00  0.00    -0.288 N 
ATOM     23  C   UNL     1       4.381  -4.689   1.500  0.00  0.00    +0.133 C 
ATOM     24  C   UNL     1       4.162  -2.898  -0.317  0.00  0.00    +0.187 C 
ATOM     25  C   UNL     1       2.726  -2.364  -0.066  0.00  0.00    +0.329 C 
ATOM     26  O   UNL     1       1.767  -3.012   0.328  0.00  0.00    -0.249 OA
ATOM     27  O   UNL     1       2.717  -1.022  -0.308  0.00  0.00    -0.450 OA
ENDROOT
BRANCH   1  28
ATOM     28  C   UNL     1       1.684  -0.199   1.804  0.00  0.00    +0.033 C 
ATOM     29  C   UNL     1       3.113  -0.171   2.211  0.00  0.00    +0.011 C 
ATOM     30  C   UNL     1       1.168  -1.418   2.576  0.00  0.00    +0.011 C 
ENDBRANCH   1  28
BRANCH   6  31
ATOM     31  C   UNL     1       4.181   3.763  -1.740  0.00  0.00    +0.014 C 
ATOM     32  C   UNL     1       5.593   3.849  -2.363  0.00  0.00    +0.009 C 
ATOM     33  C   UNL     1       3.584   5.169  -1.658  0.00  0.00    +0.009 C 
ENDBRANCH   6  31
BRANCH  10  34
ATOM     34  C   UNL     1       6.591   1.876   2.400  0.00  0.00    +0.033 C 
ATOM     35  C   UNL     1       5.118   1.805   2.465  0.00  0.00    +0.011 C 
ATOM     36  C   UNL     1       7.071   1.270   3.682  0.00  0.00    +0.011 C 
ENDBRANCH  10  34
BRANCH  15  37
ATOM     37  C   UNL     1       9.978   0.089   0.066  0.00  0.00    +0.014 C 
ATOM     38  C   UNL     1       9.234  -0.882  -0.867  0.00  0.00    +0.009 C 
ATOM     39  C   UNL     1      11.410  -0.407   0.295  0.00  0.00    +0.009 C 
ENDBRANCH  15  37
BRANCH  19  40
ATOM     40  C   UNL     1       6.014  -2.054   3.389  0.00  0.00    +0.033 C 
ATOM     41  C   UNL     1       6.801  -1.730   4.674  0.00  0.00    +0.011 C 
ATOM     42  C   UNL     1       4.720  -2.676   3.901  0.00  0.00    +0.011 C 
ENDBRANCH  19  40
BRANCH  24  43
ATOM     43  C   UNL     1       4.203  -3.726  -1.624  0.00  0.00    +0.014 C 
ATOM     44  C   UNL     1       3.827  -2.817  -2.814  0.00  0.00    +0.009 C 
ATOM     45  C   UNL     1       3.290  -4.953  -1.652  0.00  0.00    +0.009 C 
ENDBRANCH  24  43
TORSDOF 6
