REMARK  Name = 
REMARK  11 active torsions:
REMARK  status: ('A' for Active; 'I' for Inactive)
REMARK    1  A    between atoms: O_1  and  C_2
REMARK    2  A    between atoms: C_2  and  C_3
REMARK    3  A    between atoms: C_2  and  C_25
REMARK    4  A    between atoms: C_2  and  C_30
REMARK    5  A    between atoms: C_3  and  O_5
REMARK    6  A    between atoms: O_5  and  C_6
REMARK    7  A    between atoms: N_9  and  C_10
REMARK    8  A    between atoms: C_10  and  C_11
REMARK    9  A    between atoms: C_11  and  C_12
REMARK   10  A    between atoms: C_12  and  O_13
REMARK   11  A    between atoms: O_13  and  C_14
REMARK                            x       y       z     vdW  Elec       q    Type
REMARK                         _______ _______ _______ _____ _____    ______ ____
ROOT
ATOM      1  C   UNL     1       2.969  -1.252  -3.787  0.00  0.00    +0.225 C 
ATOM      2  C   UNL     1       4.259  -0.439  -3.964  0.00  0.00    +0.045 C 
ATOM      3  C   UNL     1       5.277  -0.923  -2.921  0.00  0.00    +0.058 C 
ATOM      4  C   UNL     1       5.547  -2.424  -3.057  0.00  0.00    +0.133 C 
ATOM      5  N   UNL     1       4.777  -2.984  -4.259  0.00  0.00    +0.246 N 
ATOM      6  C   UNL     1       5.223  -2.188  -5.523  0.00  0.00    +0.133 C 
ATOM      7  C   UNL     1       4.851  -0.709  -5.353  0.00  0.00    +0.058 C 
ATOM      8  C   UNL     1       3.264  -2.715  -4.132  0.00  0.00    +0.179 C 
ENDROOT
BRANCH   1   9
ATOM      9  O   UNL     1       1.922  -0.742  -4.622  0.00  0.00    -0.453 OA
BRANCH   9  10
ATOM     10  C   UNL     1       0.680  -1.302  -4.447  0.00  0.00    +0.350 C 
ATOM     11  O   UNL     1       0.511  -2.295  -3.743  0.00  0.00    -0.247 OA
BRANCH  10  12
ATOM     12  C   UNL     1      -0.451  -0.621  -5.281  0.00  0.00    +0.226 C 
BRANCH  12  13
ATOM     13  C   UNL     1      -0.233   0.879  -5.400  0.00  0.00    +0.037 A 
ATOM     14  S   UNL     1       1.108   1.538  -6.270  0.00  0.00    -0.098 S 
ATOM     15  C   UNL     1       0.789   3.116  -5.713  0.00  0.00    +0.045 A 
ATOM     16  C   UNL     1      -0.411   3.189  -5.046  0.00  0.00    +0.008 A 
ATOM     17  C   UNL     1      -1.011   1.907  -4.887  0.00  0.00    +0.015 A 
ENDBRANCH  12  13
BRANCH  12  18
ATOM     18  C   UNL     1      -0.682  -1.328  -6.609  0.00  0.00    +0.037 A 
ATOM     19  S   UNL     1       0.600  -2.070  -7.488  0.00  0.00    -0.098 S 
ATOM     20  C   UNL     1      -0.437  -2.534  -8.762  0.00  0.00    +0.045 A 
ATOM     21  C   UNL     1      -1.740  -2.163  -8.529  0.00  0.00    +0.008 A 
ATOM     22  C   UNL     1      -1.883  -1.474  -7.292  0.00  0.00    +0.015 A 
ENDBRANCH  12  18
BRANCH  12  23
ATOM     23  O   UNL     1      -1.674  -0.794  -4.536  0.00  0.00    -0.369 OA
ATOM     24  H   UNL     1      -1.831  -1.753  -4.466  0.00  0.00    +0.212 HD
ENDBRANCH  12  23
ENDBRANCH  10  12
ENDBRANCH   9  10
ENDBRANCH   1   9
BRANCH   5  25
ATOM     25  C   UNL     1       5.118  -4.488  -4.483  0.00  0.00    +0.136 C 
BRANCH  25  26
ATOM     26  C   UNL     1       4.855  -5.464  -3.310  0.00  0.00    +0.092 C 
BRANCH  26  27
ATOM     27  C   UNL     1       3.388  -5.531  -2.915  0.00  0.00    +0.234 C 
BRANCH  27  28
ATOM     28  O   UNL     1       2.985  -6.612  -2.090  0.00  0.00    -0.492 OA
BRANCH  28  29
ATOM     29  C   UNL     1       1.679  -6.447  -1.648  0.00  0.00    +0.121 A 
ATOM     30  C   UNL     1       1.325  -7.176  -0.514  0.00  0.00    +0.045 A 
ATOM     31  C   UNL     1       0.024  -7.100  -0.005  0.00  0.00    +0.004 A 
ATOM     32  C   UNL     1      -0.936  -6.291  -0.621  0.00  0.00    +0.000 A 
ATOM     33  C   UNL     1      -0.588  -5.547  -1.741  0.00  0.00    +0.004 A 
ATOM     34  C   UNL     1       0.710  -5.624  -2.251  0.00  0.00    +0.045 A 
ENDBRANCH  28  29
ENDBRANCH  27  28
ENDBRANCH  26  27
ENDBRANCH  25  26
ENDBRANCH   5  25
TORSDOF 11
