REMARK  Name = 
REMARK  4 active torsions:
REMARK  status: ('A' for Active; 'I' for Inactive)
REMARK    1  A    between atoms: O_1  and  C_2
REMARK    2  A    between atoms: C_2  and  C_4
REMARK    3  A    between atoms: C_4  and  C_5
REMARK    4  A    between atoms: C_7  and  N_11
REMARK                            x       y       z     vdW  Elec       q    Type
REMARK                         _______ _______ _______ _____ _____    ______ ____
ROOT
ATOM      1  C   UNL     1       4.636  -0.515   0.767  0.00  0.00    -0.030 A 
ATOM      2  C   UNL     1       5.471  -1.637   0.643  0.00  0.00    +0.004 A 
ATOM      3  C   UNL     1       6.836  -1.487   0.386  0.00  0.00    +0.007 A 
ATOM      4  C   UNL     1       7.390  -0.213   0.254  0.00  0.00    +0.084 A 
ATOM      5  C   UNL     1       6.568   0.911   0.400  0.00  0.00    +0.273 A 
ATOM      6  C   UNL     1       5.198   0.767   0.667  0.00  0.00    +0.088 A 
ENDROOT
BRANCH   5   7
ATOM      7  N   UNL     1       7.140   2.254   0.241  0.00  0.00    +0.080 N 
ATOM      8  O   UNL     1       8.347   2.341  -0.025  0.00  0.00    +0.041 OA
ATOM      9  O   UNL     1       6.377   3.224   0.365  0.00  0.00    -0.576 OA
ENDBRANCH   5   7
BRANCH   1  10
ATOM     10  C   UNL     1       3.152  -0.685   0.996  0.00  0.00    +0.155 C 
BRANCH  10  11
ATOM     11  C   UNL     1       2.735  -0.753   2.449  0.00  0.00    +0.309 C 
ATOM     12  O   UNL     1       3.480  -0.699   3.414  0.00  0.00    -0.251 OA
BRANCH  11  13
ATOM     13  O   UNL     1       1.391  -0.889   2.590  0.00  0.00    -0.480 OA
ATOM     14  H   UNL     1       0.895  -0.917   1.750  0.00  0.00    +0.295 HD
ENDBRANCH  11  13
ENDBRANCH  10  11
ENDBRANCH   1  10
TORSDOF 4
