REMARK  Name = 
REMARK  4 active torsions:
REMARK  status: ('A' for Active; 'I' for Inactive)
REMARK    1  A    between atoms: C_1  and  N_2
REMARK    2  A    between atoms: C_4  and  C_5
REMARK    3  A    between atoms: C_6  and  C_7
REMARK    4  A    between atoms: C_7  and  C_8
REMARK                            x       y       z     vdW  Elec       q    Type
REMARK                         _______ _______ _______ _____ _____    ______ ____
ROOT
ATOM      1  C   UNL     1       1.108  -0.033   0.006  0.00  0.00    +0.149 C 
ATOM      2  N   UNL     1       2.554   0.012   0.005  0.00  0.00    -0.349 N 
ATOM      3  C   UNL     1       3.378  -1.093   0.005  0.00  0.00    +0.049 A 
ATOM      4  C   UNL     1       4.694  -0.617   0.003  0.00  0.00    +0.007 A 
ATOM      5  C   UNL     1       5.748  -1.558   0.003  0.00  0.00    +0.010 A 
ATOM      6  C   UNL     1       5.460  -2.927   0.004  0.00  0.00    +0.001 A 
ATOM      7  C   UNL     1       4.143  -3.371   0.006  0.00  0.00    +0.002 A 
ATOM      8  C   UNL     1       4.629   0.813   0.001  0.00  0.00    +0.000 A 
ATOM      9  C   UNL     1       3.079  -2.465   0.007  0.00  0.00    +0.026 A 
ATOM     10  C   UNL     1       3.297   1.164   0.003  0.00  0.00    +0.094 A 
ENDROOT
BRANCH   8  11
ATOM     11  C   UNL     1       5.745   1.711  -0.001  0.00  0.00    +0.013 C 
ATOM     12  C   UNL     1       5.674   3.051  -0.004  0.00  0.00    +0.046 C 
BRANCH  12  13
ATOM     13  C   UNL     1       6.819   4.000  -0.007  0.00  0.00    +0.153 C 
ATOM     14  O   UNL     1       6.567   5.206  -0.009  0.00  0.00    -0.293 OA
ATOM     15  C   UNL     1       8.249   3.524  -0.007  0.00  0.00    +0.091 C 
ENDBRANCH  12  13
ENDBRANCH   8  11
TORSDOF 2
