REMARK  Name = 
REMARK  10 active torsions:
REMARK  status: ('A' for Active; 'I' for Inactive)
REMARK    1  A    between atoms: C_2  and  N_3
REMARK    2  A    between atoms: C_2  and  C_11
REMARK    3  A    between atoms: C_2  and  C_14
REMARK    4  A    between atoms: C_4  and  O_6
REMARK    5  A    between atoms: O_6  and  C_7
REMARK    6  A    between atoms: C_7  and  C_8
REMARK    7  A    between atoms: C_7  and  C_9
REMARK    8  A    between atoms: C_7  and  C_10
REMARK    9  A    between atoms: C_11  and  C_12
REMARK   10  A    between atoms: C_11  and  C_13
REMARK                            x       y       z     vdW  Elec       q    Type
REMARK                         _______ _______ _______ _____ _____    ______ ____
ROOT
ATOM      1  C   UNL     1       1.970   0.246   0.103  0.00  0.00    +0.166 C 
ENDROOT
BRANCH   1   2
ATOM      2  C   UNL     1       2.355  -0.700   1.205  0.00  0.00    +0.237 A 
ATOM      3  O   UNL     1       3.020  -1.851   0.867  0.00  0.00    -0.425 OA
ATOM      4  C   UNL     1       3.187  -2.433   2.089  0.00  0.00    +0.332 A 
ATOM      5  N   UNL     1       2.687  -1.730   3.077  0.00  0.00    -0.116 NA
ATOM      6  N   UNL     1       2.127  -0.610   2.501  0.00  0.00    -0.111 NA
ENDBRANCH   1   2
BRANCH   1   7
ATOM      7  N   UNL     1       0.522   0.451   0.181  0.00  0.00    -0.269 N 
ATOM      8  H   UNL     1       0.137   0.273   1.102  0.00  0.00    +0.153 HD
ATOM      9  C   UNL     1      -0.324  -0.028  -0.773  0.00  0.00    +0.401 C 
ATOM     10  O   UNL     1      -1.309  -0.678  -0.451  0.00  0.00    -0.226 OA
BRANCH   9  11
ATOM     11  O   UNL     1       0.009   0.344  -2.035  0.00  0.00    -0.445 OA
BRANCH  11  12
ATOM     12  C   UNL     1      -0.839  -0.037  -3.158  0.00  0.00    +0.107 C 
ATOM     13  C   UNL     1      -0.674  -1.535  -3.437  0.00  0.00    +0.055 C 
ATOM     14  C   UNL     1      -0.315   0.748  -4.373  0.00  0.00    +0.055 C 
ATOM     15  C   UNL     1      -2.319   0.345  -2.976  0.00  0.00    +0.055 C 
ENDBRANCH  11  12
ENDBRANCH   9  11
ENDBRANCH   1   7
BRANCH   1  16
ATOM     16  C   UNL     1       2.743   1.582   0.177  0.00  0.00    +0.012 C 
ATOM     17  C   UNL     1       4.253   1.365  -0.012  0.00  0.00    +0.009 C 
ATOM     18  C   UNL     1       2.499   2.391   1.459  0.00  0.00    +0.009 C 
ENDBRANCH   1  16
TORSDOF 5
