REMARK  Name = 
REMARK  4 active torsions:
REMARK  status: ('A' for Active; 'I' for Inactive)
REMARK    1  A    between atoms: O_1  and  C_2
REMARK    2  A    between atoms: N_8  and  C_9
REMARK    3  A    between atoms: C_9  and  C_10
REMARK    4  A    between atoms: C_10  and  C_11
REMARK                            x       y       z     vdW  Elec       q    Type
REMARK                         _______ _______ _______ _____ _____    ______ ____
ROOT
ATOM      1  C   UNL     1       2.566   0.007  -0.032  0.00  0.00    +0.384 C 
ATOM      2  O   UNL     1       3.367  -0.316   1.002  0.00  0.00    -0.441 OA
ATOM      3  C   UNL     1       4.638   0.186   0.593  0.00  0.00    +0.137 C 
ATOM      4  C   UNL     1       4.883   1.528   1.284  0.00  0.00    +0.065 C 
ATOM      5  C   UNL     1       6.275   2.075   0.982  0.00  0.00    +0.088 C 
ATOM      6  N   UNL     1       7.344   1.114   1.293  0.00  0.00    -0.302 NA
ATOM      7  C   UNL     1       7.123  -0.200   0.662  0.00  0.00    +0.088 C 
ATOM      8  C   UNL     1       5.749  -0.780   0.996  0.00  0.00    +0.065 C 
ATOM      9  C   UNL     1       4.480   0.313  -0.930  0.00  0.00    +0.196 C 
ATOM     10  N   UNL     1       3.027   0.420  -1.158  0.00  0.00    -0.213 NA
ENDROOT
BRANCH   1  11
ATOM     11  O   UNL     1       1.265  -0.123   0.219  0.00  0.00    -0.466 OA
ATOM     12  H   UNL     1       0.794   0.150  -0.585  0.00  0.00    +0.297 HD
ENDBRANCH   1  11
BRANCH   6  13
ATOM     13  C   UNL     1       8.674   1.635   0.896  0.00  0.00    +0.089 C 
BRANCH  13  14
ATOM     14  C   UNL     1       9.061   2.966   1.568  0.00  0.00    +0.050 C 
BRANCH  14  15
ATOM     15  C   UNL     1      10.427   3.441   1.137  0.00  0.00    -0.046 A 
ATOM     16  C   UNL     1      11.566   3.086   1.869  0.00  0.00    +0.003 A 
ATOM     17  C   UNL     1      12.828   3.521   1.462  0.00  0.00    +0.000 A 
ATOM     18  C   UNL     1      12.962   4.310   0.321  0.00  0.00    +0.000 A 
ATOM     19  C   UNL     1      11.835   4.667  -0.416  0.00  0.00    +0.000 A 
ATOM     20  C   UNL     1      10.572   4.233  -0.011  0.00  0.00    +0.003 A 
ENDBRANCH  14  15
ENDBRANCH  13  14
ENDBRANCH   6  13
TORSDOF 4
