REMARK  Name = 
REMARK  11 active torsions:
REMARK  status: ('A' for Active; 'I' for Inactive)
REMARK    1  A    between atoms: C_1  and  C_2
REMARK    2  A    between atoms: C_2  and  C_3
REMARK    3  A    between atoms: C_2  and  C_4
REMARK    4  A    between atoms: C_2  and  N_5
REMARK    5  A    between atoms: N_5  and  C_6
REMARK    6  A    between atoms: C_6  and  C_7
REMARK    7  A    between atoms: C_7  and  O_9
REMARK    8  A    between atoms: C_7  and  C_10
REMARK    9  A    between atoms: C_10  and  O_11
REMARK   10  A    between atoms: O_11  and  C_12
REMARK   11  A    between atoms: C_19  and  C_21
REMARK                            x       y       z     vdW  Elec       q    Type
REMARK                         _______ _______ _______ _____ _____    ______ ____
ROOT
ATOM      1  O   UNL     1       7.019  -3.542  -1.950  0.00  0.00    -0.489 OA
ENDROOT
BRANCH   1   2
ATOM      2  C   UNL     1       8.371  -3.553  -2.142  0.00  0.00    +0.126 A 
ATOM      3  C   UNL     1       9.201  -2.471  -2.391  0.00  0.00    +0.026 A 
ATOM      4  C   UNL     1       8.935  -1.007  -2.532  0.00  0.00    +0.107 C 
ATOM      5  C   UNL     1      10.318  -0.537  -2.847  0.00  0.00    +0.122 C 
ATOM      6  N   UNL     1      11.253  -1.437  -2.893  0.00  0.00    -0.241 NA
ATOM      7  C   UNL     1      10.581  -2.647  -2.618  0.00  0.00    +0.072 A 
ATOM      8  C   UNL     1      11.163  -3.899  -2.600  0.00  0.00    +0.028 A 
ATOM      9  C   UNL     1      10.341  -4.999  -2.356  0.00  0.00    +0.006 A 
ATOM     10  C   UNL     1       8.961  -4.825  -2.139  0.00  0.00    +0.046 A 
BRANCH   5  11
ATOM     11  C   UNL     1      10.642   0.834  -3.093  0.00  0.00    +0.115 C 
ATOM     12  N   UNL     1      10.833   1.966  -3.285  0.00  0.00    -0.190 NA
ENDBRANCH   5  11
ENDBRANCH   1   2
BRANCH   1  13
ATOM     13  C   UNL     1       6.439  -2.339  -1.443  0.00  0.00    +0.261 C 
BRANCH  13  14
ATOM     14  C   UNL     1       4.913  -2.458  -1.308  0.00  0.00    +0.166 C 
BRANCH  14  15
ATOM     15  O   UNL     1       4.310  -2.612  -2.604  0.00  0.00    -0.387 OA
ATOM     16  H   UNL     1       4.749  -2.003  -3.222  0.00  0.00    +0.210 HD
ENDBRANCH  14  15
BRANCH  14  17
ATOM     17  C   UNL     1       4.445  -3.627  -0.428  0.00  0.00    +0.116 C 
BRANCH  17  18
ATOM     18  N   UNL     1       4.980  -3.564   0.939  0.00  0.00    -0.309 NA
ATOM     19  H   UNL     1       5.999  -3.596   0.888  0.00  0.00    +0.123 HD
BRANCH  18  21
ATOM     20  C   UNL     1       4.992  -6.032   1.295  0.00  0.00    +0.027 C 
ATOM     21  C   UNL     1       4.545  -4.661   1.829  0.00  0.00    +0.011 C 
ATOM     22  C   UNL     1       5.244  -4.418   3.182  0.00  0.00    +0.027 C 
ATOM     23  C   UNL     1       3.026  -4.646   2.060  0.00  0.00    +0.027 C 
ENDBRANCH  18  21
ENDBRANCH  17  18
ENDBRANCH  14  17
ENDBRANCH  13  14
ENDBRANCH   1  13
TORSDOF 8
