REMARK  Name = 
REMARK  7 active torsions:
REMARK  status: ('A' for Active; 'I' for Inactive)
REMARK    1  A    between atoms: C_1  and  N_2
REMARK    2  A    between atoms: N_5  and  N_8
REMARK    3  A    between atoms: N_8  and  C_9
REMARK    4  A    between atoms: C_9  and  N_11
REMARK    5  A    between atoms: N_11  and  C_12
REMARK    6  A    between atoms: C_15  and  S_18
REMARK    7  A    between atoms: S_18  and  N_19
REMARK                            x       y       z     vdW  Elec       q    Type
REMARK                         _______ _______ _______ _____ _____    ______ ____
ROOT
ATOM      1  N   UNL     1       4.429   1.182  -4.481  0.00  0.00    -0.296 N 
ATOM      2  H   UNL     1       3.950   1.762  -3.804  0.00  0.00    +0.154 HD
ENDROOT
BRANCH   1   3
ATOM      3  C   UNL     1       4.591   1.666  -5.790  0.00  0.00    +0.033 A 
ATOM      4  C   UNL     1       4.535   3.037  -6.046  0.00  0.00    +0.025 A 
ATOM      5  C   UNL     1       4.859   3.513  -7.322  0.00  0.00    +0.030 A 
ATOM      6  C   UNL     1       5.175   2.604  -8.343  0.00  0.00    +0.105 A 
ATOM      7  C   UNL     1       5.104   1.231  -8.116  0.00  0.00    +0.030 A 
ATOM      8  C   UNL     1       4.802   0.767  -6.841  0.00  0.00    +0.025 A 
BRANCH   6   9
ATOM      9  S   UNL     1       5.818   3.175  -9.888  0.00  0.00    +0.056 S 
ATOM     10  O   UNL     1       6.696   2.164 -10.436  0.00  0.00    -0.153 OA
ATOM     11  O   UNL     1       6.209   4.555  -9.760  0.00  0.00    -0.153 OA
BRANCH   9  12
ATOM     12  N   UNL     1       4.455   3.169 -10.864  0.00  0.00    -0.204 NA
ATOM     13  H   UNL     1       4.581   2.489 -11.616  0.00  0.00    +0.144 HD
ATOM     14  H   UNL     1       4.280   4.118 -11.198  0.00  0.00    +0.144 HD
ENDBRANCH   9  12
ENDBRANCH   6   9
ENDBRANCH   1   3
BRANCH   1  15
ATOM     15  C   UNL     1       5.168   0.171  -3.902  0.00  0.00    +0.149 C 
ATOM     16  S   UNL     1       6.719  -0.325  -4.301  0.00  0.00    -0.017 S 
BRANCH  15  17
ATOM     17  N   UNL     1       4.548  -0.476  -2.856  0.00  0.00    -0.259 N 
ATOM     18  H   UNL     1       5.082  -1.256  -2.475  0.00  0.00    +0.168 HD
BRANCH  17  23
ATOM     19  C   UNL     1       0.930  -3.138  -1.241  0.00  0.00    +0.105 C 
ATOM     20  N   UNL     1       2.383  -3.086  -1.399  0.00  0.00    -0.303 NA
ATOM     21  C   UNL     1       2.962  -1.936  -0.678  0.00  0.00    +0.101 C 
ATOM     22  C   UNL     1       2.717  -0.563  -1.343  0.00  0.00    +0.121 C 
ATOM     23  N   UNL     1       3.137  -0.500  -2.755  0.00  0.00    -0.225 NA
ATOM     24  C   UNL     1       2.573  -1.653  -3.503  0.00  0.00    +0.121 C 
ATOM     25  C   UNL     1       2.770  -3.029  -2.822  0.00  0.00    +0.101 C 
ENDBRANCH  17  23
ENDBRANCH  15  17
ENDBRANCH   1  15
TORSDOF 6
