REMARK  Name = 
REMARK  4 active torsions:
REMARK  status: ('A' for Active; 'I' for Inactive)
REMARK    1  A    between atoms: C_2  and  N_3
REMARK    2  A    between atoms: C_2  and  C_4
REMARK    3  A    between atoms: C_2  and  C_15
REMARK    4  A    between atoms: C_4  and  C_5
REMARK                            x       y       z     vdW  Elec       q    Type
REMARK                         _______ _______ _______ _____ _____    ______ ____
ROOT
ATOM      1  C   UNL     1       2.520   0.343  -1.256  0.00  0.00    +0.063 C 
ENDROOT
BRANCH   1   2
ATOM      2  C   UNL     1       2.160  -0.704  -2.307  0.00  0.00    -0.038 A 
ATOM      3  C   UNL     1       2.464  -2.089  -2.124  0.00  0.00    -0.015 A 
ATOM      4  C   UNL     1       3.140  -2.621  -0.998  0.00  0.00    +0.009 A 
ATOM      5  C   UNL     1       3.391  -3.991  -0.861  0.00  0.00    +0.001 A 
ATOM      6  C   UNL     1       2.982  -4.874  -1.849  0.00  0.00    +0.001 A 
ATOM      7  C   UNL     1       2.332  -4.387  -2.979  0.00  0.00    +0.008 A 
ATOM      8  C   UNL     1       2.077  -3.015  -3.133  0.00  0.00    -0.018 A 
ATOM      9  C   UNL     1       1.442  -2.564  -4.294  0.00  0.00    +0.008 A 
ATOM     10  C   UNL     1       1.194  -1.213  -4.490  0.00  0.00    +0.001 A 
ATOM     11  C   UNL     1       1.556  -0.294  -3.512  0.00  0.00    +0.004 A 
ENDBRANCH   1   2
BRANCH   1  12
ATOM     12  C   UNL     1       1.612   1.589  -1.177  0.00  0.00    +0.142 C 
BRANCH  12  13
ATOM     13  C   UNL     1       0.152   1.221  -0.839  0.00  0.00    +0.228 C 
ATOM     14  O   UNL     1      -0.795   1.492  -1.571  0.00  0.00    -0.274 OA
ATOM     15  N   UNL     1      -0.059   0.627   0.375  0.00  0.00    -0.328 N 
ATOM     16  H   UNL     1      -1.002   0.304   0.555  0.00  0.00    +0.145 HD
ATOM     17  H   UNL     1       0.688   0.205   0.908  0.00  0.00    +0.145 HD
ENDBRANCH  12  13
BRANCH  12  18
ATOM     18  N   UNL     1       2.110   2.550  -0.160  0.00  0.00    -0.320 NA
ATOM     19  H   UNL     1       1.558   3.406  -0.250  0.00  0.00    +0.119 HD
ATOM     20  H   UNL     1       1.890   2.194   0.770  0.00  0.00    +0.119 HD
ENDBRANCH  12  18
ENDBRANCH   1  12
TORSDOF 4
