REMARK  Name = 
REMARK  8 active torsions:
REMARK  status: ('A' for Active; 'I' for Inactive)
REMARK    1  A    between atoms: O_1  and  C_2
REMARK    2  A    between atoms: C_2  and  C_4
REMARK    3  A    between atoms: C_4  and  C_5
REMARK    4  A    between atoms: C_5  and  C_6
REMARK    5  A    between atoms: C_6  and  C_7
REMARK    6  A    between atoms: C_7  and  C_8
REMARK    7  A    between atoms: C_8  and  N_9
REMARK    8  A    between atoms: N_12  and  C_13
REMARK                            x       y       z     vdW  Elec       q    Type
REMARK                         _______ _______ _______ _____ _____    ______ ____
ROOT
ATOM      1  N   UNL     1       9.262  -1.361   2.946  0.00  0.00    -0.299 N 
ATOM      2  H   UNL     1       9.638  -0.721   2.263  0.00  0.00    +0.150 HD
ATOM      3  C   UNL     1      10.095  -1.741   3.967  0.00  0.00    +0.300 C 
ATOM      4  N   UNL     1      11.409  -1.480   3.673  0.00  0.00    -0.297 N 
ATOM      5  H   UNL     1      11.640  -1.462   2.692  0.00  0.00    +0.151 HD
ATOM      6  O   UNL     1       9.713  -2.241   5.015  0.00  0.00    -0.253 OA
ENDROOT
BRANCH   4   7
ATOM      7  C   UNL     1      12.466  -1.850   4.609  0.00  0.00    +0.074 C 
ATOM      8  C   UNL     1      13.655  -0.892   4.488  0.00  0.00    +0.022 C 
ATOM      9  C   UNL     1      14.460  -1.103   3.207  0.00  0.00    +0.002 C 
ATOM     10  C   UNL     1      14.891  -2.556   3.043  0.00  0.00    +0.000 C 
ATOM     11  C   UNL     1      13.708  -3.516   3.132  0.00  0.00    +0.002 C 
ATOM     12  C   UNL     1      12.907  -3.309   4.417  0.00  0.00    +0.022 C 
ENDBRANCH   4   7
BRANCH   1  13
ATOM     13  C   UNL     1       7.823  -1.456   3.079  0.00  0.00    +0.106 C 
BRANCH  13  14
ATOM     14  C   UNL     1       7.212  -2.332   1.990  0.00  0.00    +0.019 C 
BRANCH  14  15
ATOM     15  C   UNL     1       7.740  -3.770   2.023  0.00  0.00    +0.002 C 
BRANCH  15  16
ATOM     16  C   UNL     1       7.082  -4.680   0.982  0.00  0.00    +0.011 C 
BRANCH  16  17
ATOM     17  C   UNL     1       7.325  -4.221  -0.456  0.00  0.00    +0.120 C 
BRANCH  17  18
ATOM     18  C   UNL     1       6.707  -5.157  -1.468  0.00  0.00    +0.305 C 
ATOM     19  O   UNL     1       6.095  -6.180  -1.209  0.00  0.00    -0.251 OA
BRANCH  18  20
ATOM     20  O   UNL     1       6.901  -4.730  -2.739  0.00  0.00    -0.481 OA
ATOM     21  H   UNL     1       7.402  -3.896  -2.801  0.00  0.00    +0.295 HD
ENDBRANCH  18  20
ENDBRANCH  17  18
ENDBRANCH  16  17
ENDBRANCH  15  16
ENDBRANCH  14  15
ENDBRANCH  13  14
ENDBRANCH   1  13
TORSDOF 8
