REMARK  Name = 
REMARK  8 active torsions:
REMARK  status: ('A' for Active; 'I' for Inactive)
REMARK    1  A    between atoms: C_2  and  N_3
REMARK    2  A    between atoms: C_2  and  C_4
REMARK    3  A    between atoms: C_2  and  C_22
REMARK    4  A    between atoms: C_4  and  O_5
REMARK    5  A    between atoms: O_5  and  C_6
REMARK    6  A    between atoms: C_10  and  C_12
REMARK    7  A    between atoms: C_18  and  C_19
REMARK    8  A    between atoms: C_22  and  C_23
REMARK                            x       y       z     vdW  Elec       q    Type
REMARK                         _______ _______ _______ _____ _____    ______ ____
ROOT
ATOM      1  O   UNL     1       2.028  -0.531  -2.389  0.00  0.00    -0.489 OA
ENDROOT
BRANCH   1   2
ATOM      2  C   UNL     1       2.423  -0.329  -3.685  0.00  0.00    +0.139 A 
ATOM      3  C   UNL     1       1.832  -1.155  -4.647  0.00  0.00    +0.057 A 
ATOM      4  C   UNL     1       2.147  -1.025  -6.011  0.00  0.00    +0.004 A 
ATOM      5  C   UNL     1       3.089  -0.037  -6.318  0.00  0.00    +0.119 A 
ATOM      6  N   UNL     1       3.687   0.784  -5.424  0.00  0.00    -0.259 NA
ATOM      7  C   UNL     1       3.341   0.615  -4.130  0.00  0.00    +0.156 A 
BRANCH   4   8
ATOM      8  C   UNL     1       1.535  -1.865  -7.068  0.00  0.00    -0.016 A 
ATOM      9  C   UNL     1       1.217  -3.221  -6.838  0.00  0.00    +0.020 A 
ATOM     10  C   UNL     1       0.669  -4.011  -7.871  0.00  0.00    +0.023 A 
ATOM     11  C   UNL     1       0.447  -3.436  -9.114  0.00  0.00    +0.066 A 
ATOM     12  N   UNL     1      -0.067  -4.439  -9.891  0.00  0.00    -0.277 N 
ATOM     13  H   UNL     1      -0.342  -4.387 -10.865  0.00  0.00    +0.189 HD
ATOM     14  N   UNL     1      -0.207  -5.614  -9.254  0.00  0.00    -0.178 NA
ATOM     15  C   UNL     1       0.730  -2.101  -9.393  0.00  0.00    +0.028 A 
ATOM     16  C   UNL     1       0.243  -5.361  -8.018  0.00  0.00    +0.067 A 
ATOM     17  C   UNL     1       0.255  -6.431  -6.992  0.00  0.00    +0.068 C 
ATOM     18  C   UNL     1       1.268  -1.336  -8.348  0.00  0.00    +0.010 A 
ENDBRANCH   4   8
ENDBRANCH   1   2
BRANCH   1  19
ATOM     19  C   UNL     1       2.585   0.377  -1.425  0.00  0.00    +0.247 C 
BRANCH  19  20
ATOM     20  C   UNL     1       2.032   0.073  -0.016  0.00  0.00    +0.093 C 
BRANCH  20  21
ATOM     21  N   UNL     1       2.448  -1.279   0.402  0.00  0.00    -0.324 NA
ATOM     22  H   UNL     1       2.010  -1.492   1.301  0.00  0.00    +0.119 HD
ATOM     23  H   UNL     1       2.074  -1.953  -0.268  0.00  0.00    +0.119 HD
ENDBRANCH  20  21
BRANCH  20  24
ATOM     24  C   UNL     1       2.533   1.159   0.960  0.00  0.00    +0.059 C 
BRANCH  24  25
ATOM     25  C   UNL     1       1.968   1.061   2.344  0.00  0.00    -0.021 A 
ATOM     26  C   UNL     1       2.561   0.387   3.461  0.00  0.00    +0.003 A 
ATOM     27  C   UNL     1       1.733   0.591   4.564  0.00  0.00    +0.047 A 
ATOM     28  C   UNL     1       2.027   0.081   5.835  0.00  0.00    +0.026 A 
ATOM     29  C   UNL     1       3.199  -0.667   5.979  0.00  0.00    +0.002 A 
ATOM     30  C   UNL     1       4.040  -0.899   4.894  0.00  0.00    +0.001 A 
ATOM     31  N   UNL     1       0.670   1.348   4.134  0.00  0.00    -0.360 N 
ATOM     32  H   UNL     1      -0.091   1.653   4.726  0.00  0.00    +0.165 HD
ATOM     33  C   UNL     1       3.734  -0.377   3.632  0.00  0.00    +0.010 A 
ATOM     34  C   UNL     1       0.798   1.636   2.801  0.00  0.00    +0.087 A 
ENDBRANCH  24  25
ENDBRANCH  20  24
ENDBRANCH  19  20
ENDBRANCH   1  19
TORSDOF 7
