REMARK  Name = 
REMARK  9 active torsions:
REMARK  status: ('A' for Active; 'I' for Inactive)
REMARK    1  A    between atoms: O_1  and  C_2
REMARK    2  A    between atoms: C_2  and  C_4
REMARK    3  A    between atoms: C_4  and  O_5
REMARK    4  A    between atoms: O_5  and  C_6
REMARK    5  A    between atoms: C_9  and  C_12
REMARK    6  A    between atoms: C_15  and  C_16
REMARK    7  A    between atoms: C_16  and  N_17
REMARK    8  A    between atoms: C_24  and  S_25
REMARK    9  A    between atoms: S_25  and  C_26
REMARK                            x       y       z     vdW  Elec       q    Type
REMARK                         _______ _______ _______ _____ _____    ______ ____
ROOT
ATOM      1  C   UNL     1       9.457  -7.856   3.248  0.00  0.00    +0.180 C 
ENDROOT
BRANCH   1   2
ATOM      2  N   UNL     1       8.284  -8.629   2.903  0.00  0.00    -0.292 N 
ATOM      3  H   UNL     1       8.258  -9.067   1.997  0.00  0.00    +0.151 HD
ATOM      4  C   UNL     1       7.316  -8.897   3.845  0.00  0.00    +0.306 C 
ATOM      5  N   UNL     1       6.251  -9.569   3.299  0.00  0.00    -0.248 N 
ATOM      6  H   UNL     1       6.092  -9.509   2.311  0.00  0.00    +0.158 HD
ATOM      7  C   UNL     1       5.179  -9.940   4.071  0.00  0.00    +0.167 A 
ATOM      8  S   UNL     1       3.758 -10.248   3.185  0.00  0.00    -0.045 S 
ATOM      9  C   UNL     1       2.885 -10.427   4.666  0.00  0.00    +0.072 A 
ATOM     10  C   UNL     1       3.782 -10.347   5.714  0.00  0.00    +0.135 A 
ATOM     11  N   UNL     1       5.097 -10.074   5.367  0.00  0.00    -0.232 NA
ATOM     12  O   UNL     1       7.435  -8.506   4.997  0.00  0.00    -0.252 OA
BRANCH   9  13
ATOM     13  S   UNL     1       1.139 -10.532   4.635  0.00  0.00    -0.061 S 
BRANCH  13  14
ATOM     14  C   UNL     1       0.660 -11.517   6.043  0.00  0.00    +0.102 A 
ATOM     15  C   UNL     1      -0.700 -11.797   6.176  0.00  0.00    +0.035 A 
ATOM     16  C   UNL     1      -1.140 -12.578   7.242  0.00  0.00    +0.004 A 
ATOM     17  C   UNL     1      -0.210 -13.052   8.155  0.00  0.00    +0.020 A 
ATOM     18  C   UNL     1       1.119 -12.721   7.961  0.00  0.00    +0.112 A 
ATOM     19  N   UNL     1       1.574 -11.970   6.927  0.00  0.00    -0.248 NA
ENDBRANCH  13  14
ENDBRANCH   9  13
ENDBRANCH   1   2
BRANCH   1  22
ATOM     20  C   UNL     1       8.939  -4.351   2.521  0.00  0.00    +0.089 A 
ATOM     21  N   UNL     1       9.362  -5.602   2.122  0.00  0.00    -0.231 NA
ATOM     22  C   UNL     1       9.138  -6.404   3.145  0.00  0.00    +0.125 A 
ATOM     23  N   UNL     1       8.553  -5.719   4.181  0.00  0.00    -0.346 N 
ATOM     24  H   UNL     1       8.256  -6.135   5.058  0.00  0.00    +0.167 HD
ATOM     25  C   UNL     1       8.441  -4.408   3.805  0.00  0.00    +0.112 A 
BRANCH  20  29
ATOM     26  C   UNL     1       9.501  -0.865   0.111  0.00  0.00    +0.121 A 
ATOM     27  C   UNL     1       9.842  -2.125  -0.378  0.00  0.00    +0.046 A 
ATOM     28  C   UNL     1       9.631  -3.265   0.408  0.00  0.00    +0.013 A 
ATOM     29  C   UNL     1       9.065  -3.163   1.687  0.00  0.00    +0.002 A 
ATOM     30  C   UNL     1       8.661  -1.899   2.135  0.00  0.00    +0.013 A 
ATOM     31  C   UNL     1       8.866  -0.760   1.349  0.00  0.00    +0.046 A 
BRANCH  26  32
ATOM     32  O   UNL     1       9.837   0.203  -0.680  0.00  0.00    -0.481 OA
BRANCH  32  33
ATOM     33  C   UNL     1      10.069   1.416   0.050  0.00  0.00    +0.349 C 
BRANCH  33  34
ATOM     34  C   UNL     1      10.942   2.354  -0.764  0.00  0.00    +0.343 C 
ATOM     35  O   UNL     1      11.336   3.439  -0.359  0.00  0.00    -0.247 OA
BRANCH  34  36
ATOM     36  O   UNL     1      11.248   1.876  -1.994  0.00  0.00    -0.478 OA
ATOM     37  H   UNL     1      10.840   0.989  -2.111  0.00  0.00    +0.295 HD
ENDBRANCH  34  36
ENDBRANCH  33  34
ENDBRANCH  32  33
ENDBRANCH  26  32
ENDBRANCH  20  29
ENDBRANCH   1  22
TORSDOF 9
