REMARK  Name = 
REMARK  15 active torsions:
REMARK  status: ('A' for Active; 'I' for Inactive)
REMARK    1  A    between atoms: C_2  and  O_3
REMARK    2  A    between atoms: C_2  and  C_4
REMARK    3  A    between atoms: C_2  and  C_18
REMARK    4  A    between atoms: C_4  and  N_5
REMARK    5  A    between atoms: N_5  and  C_6
REMARK    6  A    between atoms: N_5  and  S_10
REMARK    7  A    between atoms: C_6  and  C_7
REMARK    8  A    between atoms: S_10  and  C_13
REMARK    9  A    between atoms: C_18  and  C_20
REMARK   10  A    between atoms: C_18  and  N_27
REMARK   11  A    between atoms: C_20  and  C_21
REMARK   12  A    between atoms: C_28  and  C_30
REMARK   13  A    between atoms: C_30  and  C_31
REMARK   14  A    between atoms: C_31  and  C_32
REMARK   15  A    between atoms: N_34  and  C_35
REMARK                            x       y       z     vdW  Elec       q    Type
REMARK                         _______ _______ _______ _____ _____    ______ ____
ROOT
ATOM      1  C   UNL     1       2.542   0.938   1.085  0.00  0.00    +0.107 C 
ENDROOT
BRANCH   1   2
ATOM      2  N   UNL     1       4.006   0.912   1.241  0.00  0.00    -0.310 N 
ATOM      3  H   UNL     1       4.413   1.582   1.882  0.00  0.00    +0.149 HD
ATOM      4  C   UNL     1       4.810   0.077   0.512  0.00  0.00    +0.214 C 
ATOM      5  O   UNL     1       4.378  -0.741  -0.300  0.00  0.00    -0.276 OA
BRANCH   4   6
ATOM      6  C   UNL     1       6.290   0.236   0.803  0.00  0.00    +0.105 C 
BRANCH   6   7
ATOM      7  C   UNL     1       7.147  -0.257  -0.353  0.00  0.00    +0.105 C 
BRANCH   7   8
ATOM      8  C   UNL     1       6.883   0.565  -1.601  0.00  0.00    +0.213 C 
ATOM      9  N   UNL     1       5.913   0.036  -2.419  0.00  0.00    -0.318 N 
ATOM     10  H   UNL     1       5.320  -0.694  -2.021  0.00  0.00    +0.148 HD
ATOM     11  C   UNL     1       5.443   0.695  -3.609  0.00  0.00    +0.128 C 
ATOM     12  O   UNL     1       7.464   1.624  -1.814  0.00  0.00    -0.276 OA
ENDBRANCH   7   8
ENDBRANCH   6   7
ENDBRANCH   4   6
ENDBRANCH   1   2
BRANCH   1  13
ATOM     13  C   UNL     1       2.145   2.266   0.383  0.00  0.00    +0.151 C 
BRANCH  13  14
ATOM     14  O   UNL     1       2.314   3.375   1.277  0.00  0.00    -0.389 OA
ATOM     15  H   UNL     1       1.871   4.134   0.848  0.00  0.00    +0.210 HD
ENDBRANCH  13  14
BRANCH  13  16
ATOM     16  C   UNL     1       0.703   2.260  -0.160  0.00  0.00    +0.142 C 
BRANCH  16  17
ATOM     17  N   UNL     1       0.362   3.534  -0.930  0.00  0.00    -0.171 NA
BRANCH  17  18
ATOM     18  S   UNL     1      -1.346   3.602  -1.283  0.00  0.00    +0.094 S 
ATOM     19  O   UNL     1      -1.664   2.438  -2.080  0.00  0.00    -0.150 OA
ATOM     20  O   UNL     1      -1.691   4.940  -1.712  0.00  0.00    -0.150 OA
BRANCH  18  21
ATOM     21  C   UNL     1      -2.247   3.400   0.253  0.00  0.00    +0.258 A 
ATOM     22  O   UNL     1      -2.573   2.150   0.742  0.00  0.00    -0.445 OA
ATOM     23  C   UNL     1      -3.250   2.319   1.901  0.00  0.00    +0.197 A 
ATOM     24  C   UNL     1      -3.369   3.652   2.203  0.00  0.00    +0.043 A 
ATOM     25  C   UNL     1      -2.725   4.344   1.155  0.00  0.00    +0.071 A 
ENDBRANCH  18  21
ENDBRANCH  17  18
BRANCH  17  26
ATOM     26  C   UNL     1       1.190   3.660  -2.188  0.00  0.00    +0.113 C 
BRANCH  26  27
ATOM     27  C   UNL     1       0.892   4.894  -2.991  0.00  0.00    +0.005 C 
ATOM     28  C   UNL     1       1.990   5.725  -3.613  0.00  0.00    +0.005 C 
ATOM     29  C   UNL     1       1.210   6.264  -2.446  0.00  0.00    +0.005 C 
ENDBRANCH  26  27
ENDBRANCH  17  26
ENDBRANCH  16  17
ENDBRANCH  13  16
ENDBRANCH   1  13
BRANCH   1  30
ATOM     30  C   UNL     1       1.863   0.684   2.456  0.00  0.00    +0.060 C 
BRANCH  30  31
ATOM     31  C   UNL     1       2.299  -0.593   3.167  0.00  0.00    -0.046 A 
ATOM     32  C   UNL     1       2.691  -1.746   2.469  0.00  0.00    +0.004 A 
ATOM     33  C   UNL     1       3.202  -2.858   3.142  0.00  0.00    +0.000 A 
ATOM     34  C   UNL     1       3.274  -2.859   4.530  0.00  0.00    +0.000 A 
ATOM     35  C   UNL     1       2.812  -1.756   5.244  0.00  0.00    +0.000 A 
ATOM     36  C   UNL     1       2.325  -0.632   4.569  0.00  0.00    +0.004 A 
ENDBRANCH  30  31
ENDBRANCH   1  30
TORSDOF 14
