REMARK  Name = 
REMARK  1 active torsions:
REMARK  status: ('A' for Active; 'I' for Inactive)
REMARK    1  A    between atoms: C_1  and  C_2
REMARK                            x       y       z     vdW  Elec       q    Type
REMARK                         _______ _______ _______ _____ _____    ______ ____
ROOT
ATOM      1  C   UNL     1       0.992   0.201   0.073  0.00  0.00    +0.066 C 
ATOM      2  C   UNL     1       2.487   0.057   0.109  0.00  0.00    +0.047 A 
ATOM      3  C   UNL     1       3.111  -1.189   0.072  0.00  0.00    +0.005 A 
ATOM      4  C   UNL     1       2.303  -2.455   0.046  0.00  0.00    +0.107 C 
ATOM      5  S   UNL     1       3.194  -3.958  -0.419  0.00  0.00    -0.156 S 
ATOM      6  C   UNL     1       4.680  -3.660   0.568  0.00  0.00    +0.075 C 
ATOM      7  C   UNL     1       5.360  -2.386   0.097  0.00  0.00    +0.066 C 
ATOM      8  C   UNL     1       4.498  -1.152   0.151  0.00  0.00    +0.051 A 
ATOM      9  N   UNL     1       5.193   0.008   0.227  0.00  0.00    -0.219 NA
ATOM     10  C   UNL     1       4.498   1.142   0.263  0.00  0.00    +0.213 A 
ATOM     11  N   UNL     1       5.205   2.324   0.333  0.00  0.00    -0.327 N 
ATOM     12  H   UNL     1       6.131   2.182  -0.044  0.00  0.00    +0.145 HD
ATOM     13  H   UNL     1       4.650   3.068  -0.066  0.00  0.00    +0.145 HD
ATOM     14  N   UNL     1       3.172   1.218   0.191  0.00  0.00    -0.220 NA
ENDROOT
TORSDOF 0
