REMARK  Name = 
REMARK  6 active torsions:
REMARK  status: ('A' for Active; 'I' for Inactive)
REMARK    1  A    between atoms: C_1  and  O_2
REMARK    2  A    between atoms: O_2  and  C_3
REMARK    3  A    between atoms: C_8  and  C_9
REMARK    4  A    between atoms: C_10  and  C_11
REMARK    5  A    between atoms: C_11  and  C_13
REMARK    6  A    between atoms: C_13  and  O_14
REMARK                            x       y       z     vdW  Elec       q    Type
REMARK                         _______ _______ _______ _____ _____    ______ ____
ROOT
ATOM      1  C   UNL     1       2.988  -0.823  -0.982  0.00  0.00    +0.127 A 
ATOM      2  C   UNL     1       2.815  -2.199  -0.722  0.00  0.00    +0.017 A 
ATOM      3  C   UNL     1       3.366  -3.126  -1.624  0.00  0.00    +0.011 A 
ATOM      4  C   UNL     1       4.099  -2.703  -2.736  0.00  0.00    +0.001 A 
ATOM      5  C   UNL     1       4.302  -1.346  -2.957  0.00  0.00    +0.004 A 
ATOM      6  C   UNL     1       3.758  -0.410  -2.078  0.00  0.00    +0.046 A 
ENDROOT
BRANCH   1   8
ATOM      7  C   UNL     1       1.973   1.298  -0.713  0.00  0.00    +0.277 C 
ATOM      8  O   UNL     1       2.399   0.073  -0.122  0.00  0.00    -0.495 OA
ENDBRANCH   1   8
BRANCH   2   9
ATOM      9  C   UNL     1       1.991  -2.741   0.379  0.00  0.00    +0.015 C 
ATOM     10  C   UNL     1       1.951  -2.236   1.621  0.00  0.00    +0.059 C 
BRANCH  10  11
ATOM     11  C   UNL     1       1.016  -2.797   2.628  0.00  0.00    +0.262 C 
ATOM     12  O   UNL     1       0.251  -3.737   2.430  0.00  0.00    -0.280 OA
BRANCH  11  13
ATOM     13  C   UNL     1       0.956  -2.112   3.995  0.00  0.00    +0.377 C 
ATOM     14  O   UNL     1       1.720  -1.240   4.355  0.00  0.00    -0.241 OA
BRANCH  13  15
ATOM     15  O   UNL     1      -0.065  -2.609   4.724  0.00  0.00    -0.475 OA
ATOM     16  H   UNL     1      -0.519  -3.313   4.203  0.00  0.00    +0.296 HD
ENDBRANCH  13  15
ENDBRANCH  11  13
ENDBRANCH  10  11
ENDBRANCH   2   9
TORSDOF 5
