REMARK  Name = 
REMARK  11 active torsions:
REMARK  status: ('A' for Active; 'I' for Inactive)
REMARK    1  A    between atoms: C_1  and  C_2
REMARK    2  A    between atoms: C_4  and  O_5
REMARK    3  A    between atoms: O_5  and  C_6
REMARK    4  A    between atoms: C_6  and  C_7
REMARK    5  A    between atoms: C_7  and  O_8
REMARK    6  A    between atoms: C_7  and  C_9
REMARK    7  A    between atoms: C_9  and  N_10
REMARK    8  A    between atoms: N_10  and  C_11
REMARK    9  A    between atoms: C_11  and  C_12
REMARK   10  A    between atoms: C_11  and  C_13
REMARK   11  A    between atoms: C_11  and  C_14
REMARK                            x       y       z     vdW  Elec       q    Type
REMARK                         _______ _______ _______ _____ _____    ______ ____
ROOT
ATOM      1  C   UNL     1       4.732   3.627  -0.383  0.00  0.00    +0.261 C 
ENDROOT
BRANCH   1   2
ATOM      2  O   UNL     1       3.661   3.605  -1.333  0.00  0.00    -0.488 OA
BRANCH   2   9
ATOM      3  C   UNL     1       1.697  -0.289   1.052  0.00  0.00    +0.044 C 
ATOM      4  C   UNL     1       1.668   0.745  -0.035  0.00  0.00    -0.047 A 
ATOM      5  C   UNL     1       0.591   0.799  -0.925  0.00  0.00    +0.005 A 
ATOM      6  C   UNL     1       0.550   1.776  -1.921  0.00  0.00    +0.024 A 
ATOM      7  C   UNL     1       1.588   2.705  -2.030  0.00  0.00    +0.083 A 
ATOM      8 CL   UNL     1       1.479   3.901  -3.277  0.00  0.00    -0.080 Cl
ATOM      9  C   UNL     1       2.679   2.664  -1.150  0.00  0.00    +0.139 A 
ATOM     10  C   UNL     1       2.708   1.679  -0.157  0.00  0.00    +0.050 A 
ENDBRANCH   2   9
ENDBRANCH   1   2
BRANCH   1  11
ATOM     11  C   UNL     1       5.622   4.843  -0.665  0.00  0.00    +0.166 C 
BRANCH  11  12
ATOM     12  O   UNL     1       6.166   4.734  -1.988  0.00  0.00    -0.387 OA
ATOM     13  H   UNL     1       5.403   4.569  -2.578  0.00  0.00    +0.210 HD
ENDBRANCH  11  12
BRANCH  11  14
ATOM     14  C   UNL     1       4.870   6.185  -0.544  0.00  0.00    +0.116 C 
BRANCH  14  15
ATOM     15  N   UNL     1       4.317   6.404   0.798  0.00  0.00    -0.309 NA
ATOM     16  H   UNL     1       5.080   6.383   1.477  0.00  0.00    +0.123 HD
BRANCH  15  17
ATOM     17  C   UNL     1       3.558   7.658   0.972  0.00  0.00    +0.011 C 
ATOM     18  C   UNL     1       4.438   8.892   0.715  0.00  0.00    +0.027 C 
ATOM     19  C   UNL     1       3.095   7.689   2.444  0.00  0.00    +0.027 C 
ATOM     20  C   UNL     1       2.305   7.702   0.081  0.00  0.00    +0.027 C 
ENDBRANCH  15  17
ENDBRANCH  14  15
ENDBRANCH  11  14
ENDBRANCH   1  11
TORSDOF 7
