REMARK  Name = 
REMARK  6 active torsions:
REMARK  status: ('A' for Active; 'I' for Inactive)
REMARK    1  A    between atoms: C_1  and  C_2
REMARK    2  A    between atoms: C_2  and  C_3
REMARK    3  A    between atoms: C_5  and  N_12
REMARK    4  A    between atoms: C_7  and  C_8
REMARK    5  A    between atoms: C_7  and  C_9
REMARK    6  A    between atoms: N_10  and  O_11
REMARK                            x       y       z     vdW  Elec       q    Type
REMARK                         _______ _______ _______ _____ _____    ______ ____
ROOT
ATOM      1  C   UNL     1       0.952   0.007   0.345  0.00  0.00    +0.030 C 
ATOM      2  C   UNL     1       2.472   0.049   0.065  0.00  0.00    +0.043 C 
ATOM      3  N   UNL     1       2.813   1.065  -0.977  0.00  0.00    -0.180 NA
ATOM      4  C   UNL     1       2.496   0.705  -2.390  0.00  0.00    +0.043 C 
ATOM      5  C   UNL     1       3.168   1.737  -3.340  0.00  0.00    +0.030 C 
ATOM      6  C   UNL     1       0.985   0.818  -2.692  0.00  0.00    +0.030 C 
ATOM      7  C   UNL     1       3.024  -0.698  -2.751  0.00  0.00    +0.047 C 
ATOM      8  C   UNL     1       2.623  -1.774  -1.730  0.00  0.00    +0.088 C 
ATOM      9  C   UNL     1       3.006  -1.357  -0.304  0.00  0.00    +0.047 C 
ATOM     10  C   UNL     1       3.106   0.486   1.416  0.00  0.00    +0.030 C 
ENDROOT
BRANCH   8  11
ATOM     11  N   UNL     1       3.169  -3.075  -2.147  0.00  0.00    -0.239 N 
ATOM     12  C   UNL     1       2.430  -3.972  -2.869  0.00  0.00    +0.222 C 
ATOM     13  O   UNL     1       1.248  -3.882  -3.165  0.00  0.00    -0.275 OA
ATOM     14  C   UNL     1       3.300  -5.132  -3.244  0.00  0.00    +0.105 C 
ATOM     15  C   UNL     1       4.698  -4.601  -3.029  0.00  0.00    +0.105 C 
ATOM     16  C   UNL     1       4.502  -3.394  -2.164  0.00  0.00    +0.222 C 
ATOM     17  O   UNL     1       5.426  -2.780  -1.654  0.00  0.00    -0.275 OA
ENDBRANCH   8  11
BRANCH   3  18
ATOM     18  O   UNL     1       4.276   1.157  -0.940  0.00  0.00    -0.311 OA
ATOM     19  H   UNL     1       4.406   2.106  -0.754  0.00  0.00    +0.237 HD
ENDBRANCH   3  18
TORSDOF 2
