REMARK  Name = 
REMARK  6 active torsions:
REMARK  status: ('A' for Active; 'I' for Inactive)
REMARK    1  A    between atoms: C_1  and  C_2
REMARK    2  A    between atoms: C_2  and  C_3
REMARK    3  A    between atoms: C_3  and  S_4
REMARK    4  A    between atoms: S_4  and  N_7
REMARK    5  A    between atoms: C_13  and  C_14
REMARK    6  A    between atoms: B_16  and  O_17
REMARK                            x       y       z     vdW  Elec       q    Type
REMARK                         _______ _______ _______ _____ _____    ______ ____
ROOT
ATOM      1  N   UNL     1       5.488  -0.063   2.969  0.00  0.00    +0.000 N 
ATOM      2  B   UNL     1       5.747   1.229   3.730  0.00  0.00    +0.000 B 
ATOM      3  C   UNL     1       6.250   1.031   5.187  0.00  0.00    +0.000 A 
ATOM      4  C   UNL     1       6.563   2.000   6.143  0.00  0.00    +0.000 A 
ATOM      5  C   UNL     1       6.974   1.432   7.347  0.00  0.00    +0.000 A 
ATOM      6  S   UNL     1       6.948  -0.253   7.220  0.00  0.00    +0.000 S 
ATOM      7  C   UNL     1       7.376   2.184   8.571  0.00  0.00    +0.000 C 
ATOM      8  C   UNL     1       6.412  -0.265   5.630  0.00  0.00    +0.000 A 
ATOM      9  C   UNL     1       6.132  -1.443   4.781  0.00  0.00    +0.000 C 
ATOM     10  N   UNL     1       5.707  -1.298   3.562  0.00  0.00    +0.000 NA
ENDROOT
BRANCH   1  11
ATOM     11  S   UNL     1       4.797   0.012   1.359  0.00  0.00    +0.000 S 
ATOM     12  O   UNL     1       5.930   0.540   0.466  0.00  0.00    +0.000 OA
ATOM     13  O   UNL     1       4.673  -1.455   0.915  0.00  0.00    +0.000 OA
BRANCH  11  14
ATOM     14  C   UNL     1       3.240   0.942   1.247  0.00  0.00    +0.000 C 
BRANCH  14  16
ATOM     15  C   UNL     1       1.381   1.711  -0.245  0.00  0.00    +0.000 C 
ATOM     16  C   UNL     1       2.683   0.920  -0.173  0.00  0.00    +0.000 C 
ENDBRANCH  14  16
ENDBRANCH  11  14
ENDBRANCH   1  11
BRANCH   2  17
ATOM     17  O   UNL     1       5.459   2.542   3.143  0.00  0.00    +0.000 OA
ATOM     18  H   UNL     1       6.007   3.200   3.638  0.00  0.00    +0.000 HD
ENDBRANCH   2  17
TORSDOF 4
