REMARK  Name = 
REMARK  13 active torsions:
REMARK  status: ('A' for Active; 'I' for Inactive)
REMARK    1  A    between atoms: C_2  and  C_3
REMARK    2  A    between atoms: C_2  and  N_8
REMARK    3  A    between atoms: C_2  and  C_32
REMARK    4  A    between atoms: C_3  and  C_4
REMARK    5  A    between atoms: C_4  and  C_5
REMARK    6  A    between atoms: C_5  and  O_6
REMARK    7  A    between atoms: N_8  and  S_9
REMARK    8  A    between atoms: S_9  and  C_12
REMARK    9  A    between atoms: C_19  and  O_20
REMARK   10  A    between atoms: O_20  and  C_21
REMARK   11  A    between atoms: C_21  and  C_22
REMARK   12  A    between atoms: C_25  and  C_28
REMARK   13  A    between atoms: C_32  and  O_33
REMARK                            x       y       z     vdW  Elec       q    Type
REMARK                         _______ _______ _______ _____ _____    ______ ____
ROOT
ATOM      1  C   UNL     1       2.613   1.387  -3.783  0.00  0.00    +0.106 A 
ATOM      2  C   UNL     1       2.356   2.747  -3.604  0.00  0.00    +0.029 A 
ATOM      3  C   UNL     1       2.652   3.647  -4.621  0.00  0.00    +0.010 A 
ATOM      4  C   UNL     1       3.144   3.187  -5.844  0.00  0.00    -0.014 A 
ATOM      5  C   UNL     1       3.346   4.083  -6.893  0.00  0.00    +0.054 A 
ATOM      6  C   UNL     1       3.806   3.636  -8.130  0.00  0.00    +0.122 A 
ATOM      7  C   UNL     1       4.024   2.276  -8.339  0.00  0.00    +0.046 A 
ATOM      8  C   UNL     1       3.840   1.367  -7.294  0.00  0.00    +0.012 A 
ATOM      9  C   UNL     1       3.402   1.810  -6.037  0.00  0.00    -0.016 A 
ATOM     10  C   UNL     1       3.161   0.919  -4.983  0.00  0.00    +0.037 A 
ENDROOT
BRANCH   1  11
ATOM     11  S   UNL     1       2.044   0.215  -2.586  0.00  0.00    +0.059 S 
ATOM     12  O   UNL     1       0.645   0.467  -2.339  0.00  0.00    -0.153 OA
ATOM     13  O   UNL     1       2.524  -1.095  -2.952  0.00  0.00    -0.153 OA
BRANCH  11  14
ATOM     14  N   UNL     1       2.880   0.561  -1.171  0.00  0.00    -0.176 NA
ATOM     15  H   UNL     1       3.491  -0.191  -0.855  0.00  0.00    +0.149 HD
BRANCH  14  16
ATOM     16  C   UNL     1       2.312   1.552  -0.237  0.00  0.00    +0.185 C 
BRANCH  16  17
ATOM     17  C   UNL     1       1.057   1.098   0.503  0.00  0.00    +0.324 C 
ATOM     18  O   UNL     1       0.286   1.870   1.055  0.00  0.00    -0.249 OA
BRANCH  17  19
ATOM     19  O   UNL     1       0.903  -0.245   0.572  0.00  0.00    -0.479 OA
ATOM     20  H   UNL     1       1.465  -0.719  -0.069  0.00  0.00    +0.295 HD
ENDBRANCH  17  19
ENDBRANCH  16  17
BRANCH  16  21
ATOM     21  C   UNL     1       3.378   2.090   0.723  0.00  0.00    +0.043 C 
BRANCH  21  22
ATOM     22  C   UNL     1       4.062   1.066   1.633  0.00  0.00    +0.122 C 
BRANCH  22  23
ATOM     23  C   UNL     1       5.082   1.748   2.523  0.00  0.00    +0.305 C 
ATOM     24  O   UNL     1       5.358   2.936   2.486  0.00  0.00    -0.251 OA
BRANCH  23  25
ATOM     25  O   UNL     1       5.700   0.893   3.366  0.00  0.00    -0.481 OA
ATOM     26  H   UNL     1       5.400  -0.032   3.311  0.00  0.00    +0.295 HD
ENDBRANCH  23  25
ENDBRANCH  22  23
ENDBRANCH  21  22
ENDBRANCH  16  21
ENDBRANCH  14  16
ENDBRANCH  11  14
ENDBRANCH   1  11
BRANCH   6  27
ATOM     27  O   UNL     1       4.060   4.458  -9.193  0.00  0.00    -0.487 OA
BRANCH  27  28
ATOM     28  C   UNL     1       4.339   5.814  -8.838  0.00  0.00    +0.264 C 
BRANCH  28  29
ATOM     29  C   UNL     1       5.120   6.444  -9.959  0.00  0.00    -0.010 A 
ATOM     30  C   UNL     1       6.448   6.835  -9.755  0.00  0.00    +0.008 A 
ATOM     31  C   UNL     1       7.189   7.367 -10.808  0.00  0.00    +0.019 A 
ATOM     32  C   UNL     1       6.610   7.510 -12.073  0.00  0.00    +0.052 A 
ATOM     33  C   UNL     1       5.273   7.140 -12.276  0.00  0.00    +0.019 A 
ATOM     34  C   UNL     1       4.531   6.611 -11.221  0.00  0.00    +0.008 A 
BRANCH  32  35
ATOM     35  C   UNL     1       7.388   8.012 -13.165  0.00  0.00    +0.099 C 
ATOM     36  N   UNL     1       8.022   8.420 -14.047  0.00  0.00    -0.191 NA
ENDBRANCH  32  35
ENDBRANCH  28  29
ENDBRANCH  27  28
ENDBRANCH   6  27
TORSDOF 13
