REMARK  Name = 
REMARK  13 active torsions:
REMARK  status: ('A' for Active; 'I' for Inactive)
REMARK    1  A    between atoms: N_7  and  C_8
REMARK    2  A    between atoms: C_8  and  N_10
REMARK    3  A    between atoms: N_10  and  C_11
REMARK    4  A    between atoms: C_11  and  C_12
REMARK    5  A    between atoms: C_12  and  C_13
REMARK    6  A    between atoms: C_13  and  C_14
REMARK    7  A    between atoms: C_14  and  C_15
REMARK    8  A    between atoms: C_15  and  C_16
REMARK    9  A    between atoms: C_16  and  C_17
REMARK   10  A    between atoms: C_17  and  C_18
REMARK   11  A    between atoms: C_19  and  O_21
REMARK   12  A    between atoms: C_22  and  O_24
REMARK   13  A    between atoms: C_25  and  O_27
REMARK                            x       y       z     vdW  Elec       q    Type
REMARK                         _______ _______ _______ _____ _____    ______ ____
ROOT
ATOM      1  C   UNL     1       2.017  -0.050   0.096  0.00  0.00    +0.134 C 
ATOM      2  C   UNL     1       2.383  -1.532  -0.170  0.00  0.00    +0.168 C 
ATOM      3  C   UNL     1       3.787  -1.975   0.361  0.00  0.00    +0.177 C 
ATOM      4  C   UNL     1       4.729  -0.866   0.912  0.00  0.00    +0.193 C 
ATOM      5  C   UNL     1       4.060   0.528   0.918  0.00  0.00    +0.239 C 
ATOM      6  O   UNL     1       4.031   1.013  -0.445  0.00  0.00    -0.354 OA
ATOM      7  N   UNL     1       2.670   0.398   1.311  0.00  0.00    -0.277 N 
ATOM      8  C   UNL     1       2.674   0.888  -0.903  0.00  0.00    +0.187 C 
ENDROOT
BRANCH   2   9
ATOM      9  O   UNL     1       2.242  -1.833  -1.569  0.00  0.00    -0.387 OA
ATOM     10  H   UNL     1       3.125  -1.818  -1.982  0.00  0.00    +0.210 HD
ENDBRANCH   2   9
BRANCH   3  11
ATOM     11  O   UNL     1       3.580  -2.962   1.398  0.00  0.00    -0.386 OA
ATOM     12  H   UNL     1       3.145  -2.523   2.151  0.00  0.00    +0.210 HD
ENDBRANCH   3  11
BRANCH   4  13
ATOM     13  O   UNL     1       5.939  -0.871   0.131  0.00  0.00    -0.385 OA
ATOM     14  H   UNL     1       6.341   0.014   0.196  0.00  0.00    +0.210 HD
ENDBRANCH   4  13
BRANCH   7  15
ATOM     15  C   UNL     1       2.192   0.472   2.605  0.00  0.00    +0.135 C 
ATOM     16  S   UNL     1       3.187   0.801   3.921  0.00  0.00    -0.019 S 
BRANCH  15  17
ATOM     17  N   UNL     1       0.838   0.239   2.736  0.00  0.00    -0.326 N 
ATOM     18  H   UNL     1       0.278   0.337   1.904  0.00  0.00    +0.148 HD
BRANCH  17  19
ATOM     19  C   UNL     1       0.089   0.381   3.989  0.00  0.00    +0.103 C 
BRANCH  19  20
ATOM     20  C   UNL     1      -1.394   0.040   3.850  0.00  0.00    +0.019 C 
BRANCH  20  21
ATOM     21  C   UNL     1      -1.628  -1.416   3.449  0.00  0.00    +0.002 C 
BRANCH  21  22
ATOM     22  C   UNL     1      -3.121  -1.742   3.381  0.00  0.00    +0.000 C 
BRANCH  22  23
ATOM     23  C   UNL     1      -3.348  -3.187   2.936  0.00  0.00    -0.000 C 
BRANCH  23  24
ATOM     24  C   UNL     1      -4.838  -3.519   2.854  0.00  0.00    -0.000 C 
BRANCH  24  25
ATOM     25  C   UNL     1      -5.060  -4.963   2.406  0.00  0.00    -0.003 C 
ATOM     26  C   UNL     1      -6.541  -5.297   2.321  0.00  0.00    +0.004 C 
ENDBRANCH  24  25
ENDBRANCH  23  24
ENDBRANCH  22  23
ENDBRANCH  21  22
ENDBRANCH  20  21
ENDBRANCH  19  20
ENDBRANCH  17  19
ENDBRANCH  15  17
ENDBRANCH   7  15
TORSDOF 12
