REMARK  Name = 
REMARK  12 active torsions:
REMARK  status: ('A' for Active; 'I' for Inactive)
REMARK    1  A    between atoms: C_2  and  C_3
REMARK    2  A    between atoms: C_3  and  O_4
REMARK    3  A    between atoms: N_7  and  O_8
REMARK    4  A    between atoms: O_8  and  C_9
REMARK    5  A    between atoms: N_11  and  C_12
REMARK    6  A    between atoms: C_18  and  N_20
REMARK    7  A    between atoms: C_21  and  C_23
REMARK    8  A    between atoms: C_23  and  C_24
REMARK    9  A    between atoms: C_24  and  C_25
REMARK   10  A    between atoms: C_25  and  C_26
REMARK   11  A    between atoms: C_27  and  O_29
REMARK   12  A    between atoms: C_30  and  O_32
REMARK                            x       y       z     vdW  Elec       q    Type
REMARK                         _______ _______ _______ _____ _____    ______ ____
ROOT
ATOM      1  C   UNL     1       2.031  -0.088   0.077  0.00  0.00    +0.231 C 
ATOM      2  C   UNL     1       2.494   1.006  -0.901  0.00  0.00    +0.188 C 
ATOM      3  C   UNL     1       2.249   0.645  -2.374  0.00  0.00    +0.176 C 
ATOM      4  C   UNL     1       2.749  -0.777  -2.682  0.00  0.00    +0.193 C 
ATOM      5  C   UNL     1       2.229  -1.750  -1.640  0.00  0.00    +0.251 C 
ATOM      6  N   UNL     1       1.694  -2.868  -2.006  0.00  0.00    -0.037 NA
ATOM      7  O   UNL     1       2.404  -1.426  -0.341  0.00  0.00    -0.468 OA
ENDROOT
BRANCH   4   8
ATOM      8  N   UNL     1       4.222  -0.836  -2.750  0.00  0.00    -0.302 N 
ATOM      9  H   UNL     1       4.723  -1.490  -2.158  0.00  0.00    +0.150 HD
ATOM     10  C   UNL     1       4.850  -0.379  -3.895  0.00  0.00    +0.214 C 
ATOM     11  O   UNL     1       4.224   0.036  -4.864  0.00  0.00    -0.276 OA
BRANCH  10  12
ATOM     12  C   UNL     1       6.366  -0.397  -3.835  0.00  0.00    +0.096 C 
BRANCH  12  13
ATOM     13  C   UNL     1       6.941   0.579  -4.866  0.00  0.00    +0.009 C 
BRANCH  13  14
ATOM     14  C   UNL     1       8.464   0.662  -4.819  0.00  0.00    -0.003 C 
ATOM     15  C   UNL     1       8.987   1.663  -5.841  0.00  0.00    +0.004 C 
ENDBRANCH  13  14
ENDBRANCH  12  13
ENDBRANCH  10  12
ENDBRANCH   4   8
BRANCH   2  16
ATOM     16  O   UNL     1       3.898   1.231  -0.667  0.00  0.00    -0.385 OA
ATOM     17  H   UNL     1       4.405   0.603  -1.213  0.00  0.00    +0.210 HD
ENDBRANCH   2  16
BRANCH   3  18
ATOM     18  O   UNL     1       0.888   0.834  -2.763  0.00  0.00    -0.387 OA
ATOM     19  H   UNL     1       0.292   0.336  -2.163  0.00  0.00    +0.210 HD
ENDBRANCH   3  18
BRANCH   1  20
ATOM     20  C   UNL     1       0.521  -0.066   0.358  0.00  0.00    +0.203 C 
BRANCH  20  21
ATOM     21  O   UNL     1      -0.229  -0.456  -0.791  0.00  0.00    -0.391 OA
ATOM     22  H   UNL     1      -0.270  -1.434  -0.793  0.00  0.00    +0.210 HD
ENDBRANCH  20  21
ENDBRANCH   1  20
BRANCH   6  23
ATOM     23  O   UNL     1       1.242  -3.656  -0.925  0.00  0.00    -0.296 OA
BRANCH  23  24
ATOM     24  C   UNL     1       0.762  -4.854  -1.430  0.00  0.00    +0.430 C 
ATOM     25  N   UNL     1       0.351  -5.677  -0.405  0.00  0.00    -0.249 N 
ATOM     26  H   UNL     1       0.331  -5.256   0.512  0.00  0.00    +0.158 HD
ATOM     27  O   UNL     1       0.711  -5.116  -2.626  0.00  0.00    -0.224 OA
BRANCH  25  28
ATOM     28  C   UNL     1       0.009  -7.044  -0.511  0.00  0.00    +0.037 A 
ATOM     29  C   UNL     1      -0.464  -7.697   0.634  0.00  0.00    +0.023 A 
ATOM     30  C   UNL     1      -0.752  -9.070   0.603  0.00  0.00    +0.002 A 
ATOM     31  C   UNL     1      -0.561  -9.804  -0.565  0.00  0.00    +0.000 A 
ATOM     32  C   UNL     1      -0.105  -9.157  -1.708  0.00  0.00    +0.002 A 
ATOM     33  C   UNL     1       0.173  -7.788  -1.683  0.00  0.00    +0.023 A 
ENDBRANCH  25  28
ENDBRANCH  23  24
ENDBRANCH   6  23
TORSDOF 11
