REMARK  Name = 
REMARK  6 active torsions:
REMARK  status: ('A' for Active; 'I' for Inactive)
REMARK    1  A    between atoms: C_1  and  N_2
REMARK    2  A    between atoms: N_2  and  C_3
REMARK    3  A    between atoms: N_2  and  C_4
REMARK    4  A    between atoms: C_7  and  C_10
REMARK    5  A    between atoms: N_11  and  C_12
REMARK    6  A    between atoms: C_16  and  O_17
REMARK                            x       y       z     vdW  Elec       q    Type
REMARK                         _______ _______ _______ _____ _____    ______ ____
ROOT
ATOM      1  C   UNL     1       5.218  -3.630   3.280  0.00  0.00    +0.255 A 
ATOM      2  S   UNL     1       5.154  -5.292   2.820  0.00  0.00    -0.014 S 
ATOM      3  C   UNL     1       6.225  -5.771   4.066  0.00  0.00    +0.093 A 
ATOM      4  C   UNL     1       6.630  -4.650   4.782  0.00  0.00    +0.223 A 
ATOM      5  C   UNL     1       7.569  -4.807   5.826  0.00  0.00    +0.083 A 
ATOM      6  C   UNL     1       8.043  -6.090   6.137  0.00  0.00    +0.052 A 
ATOM      7  C   UNL     1       7.588  -7.191   5.426  0.00  0.00    +0.118 A 
ATOM      8  C   UNL     1       6.678  -7.058   4.380  0.00  0.00    +0.067 A 
ATOM      9  N   UNL     1       6.003  -3.484   4.346  0.00  0.00    -0.187 N 
ATOM     10  C   UNL     1       6.196  -2.224   5.053  0.00  0.00    +0.440 C 
ENDROOT
BRANCH   1  14
ATOM     11  C   UNL     1       3.042  -0.705   0.873  0.00  0.00    +0.029 A 
ATOM     12  C   UNL     1       2.584  -2.015   1.058  0.00  0.00    +0.024 A 
ATOM     13  C   UNL     1       3.267  -2.945   1.859  0.00  0.00    +0.017 A 
ATOM     14  C   UNL     1       4.475  -2.619   2.497  0.00  0.00    +0.054 A 
ATOM     15  C   UNL     1       4.956  -1.323   2.299  0.00  0.00    +0.017 A 
ATOM     16  C   UNL     1       4.243  -0.389   1.523  0.00  0.00    +0.024 A 
BRANCH  11  18
ATOM     17  C   UNL     1       2.850   1.575  -0.087  0.00  0.00    +0.129 C 
ATOM     18  N   UNL     1       2.369   0.206   0.070  0.00  0.00    -0.336 N 
ATOM     19  C   UNL     1       0.995  -0.057  -0.357  0.00  0.00    +0.129 C 
ENDBRANCH  11  18
ENDBRANCH   1  14
BRANCH   7  20
ATOM     20  O   UNL     1       8.015  -8.451   5.714  0.00  0.00    -0.507 OA
ATOM     21  H   UNL     1       8.642  -8.439   6.457  0.00  0.00    +0.292 HD
ENDBRANCH   7  20
TORSDOF 3
