REMARK  Name = 
REMARK  3 active torsions:
REMARK  status: ('A' for Active; 'I' for Inactive)
REMARK    1  A    between atoms: C_2  and  C_19
REMARK    2  A    between atoms: C_8  and  S_15
REMARK    3  A    between atoms: S_15  and  N_16
REMARK                            x       y       z     vdW  Elec       q    Type
REMARK                         _______ _______ _______ _____ _____    ______ ____
ROOT
ATOM      1  C   UNL     1       2.086   0.076  -0.078  0.00  0.00    +0.192 C 
ATOM      2  N   UNL     1       2.436  -1.076   0.735  0.00  0.00    -0.167 NA
ATOM      3  H   UNL     1       2.034  -1.070   1.670  0.00  0.00    +0.150 HD
ATOM      4  S   UNL     1       4.054  -1.467   0.774  0.00  0.00    +0.062 S 
ATOM      5  O   UNL     1       4.424  -1.987  -0.522  0.00  0.00    -0.153 OA
ATOM      6  O   UNL     1       4.275  -2.196   2.000  0.00  0.00    -0.153 OA
ATOM      7  C   UNL     1       4.835   0.101   0.922  0.00  0.00    +0.128 A 
ATOM      8  C   UNL     1       4.071   1.258   0.773  0.00  0.00    +0.057 A 
ATOM      9  C   UNL     1       4.720   2.484   0.976  0.00  0.00    +0.047 A 
ATOM     10  C   UNL     1       6.106   2.557   1.194  0.00  0.00    +0.069 A 
ATOM     11  C   UNL     1       6.855   1.381   1.245  0.00  0.00    +0.125 A 
ATOM     12 CL   UNL     1       6.775   4.140   1.362  0.00  0.00    -0.081 Cl
ATOM     13  C   UNL     1       6.215   0.141   1.143  0.00  0.00    +0.060 A 
ATOM     14  N   UNL     1       2.692   1.248   0.559  0.00  0.00    -0.324 N 
ATOM     15  H   UNL     1       2.343   2.120   0.156  0.00  0.00    +0.148 HD
ENDROOT
BRANCH   1  16
ATOM     16  C   UNL     1       2.376  -0.044  -1.611  0.00  0.00    +0.207 C 
ATOM     17 CL   UNL     1       1.825   1.449  -2.456  0.00  0.00    -0.101 Cl
ATOM     18 CL   UNL     1       1.530  -1.439  -2.338  0.00  0.00    -0.101 Cl
ENDBRANCH   1  16
BRANCH  11  19
ATOM     19  S   UNL     1       8.614   1.409   1.370  0.00  0.00    +0.057 S 
ATOM     20  O   UNL     1       9.113   0.069   1.169  0.00  0.00    -0.153 OA
ATOM     21  O   UNL     1       9.003   2.210   2.504  0.00  0.00    -0.153 OA
BRANCH  19  22
ATOM     22  N   UNL     1       9.056   2.242  -0.019  0.00  0.00    -0.203 NA
ATOM     23  H   UNL     1       9.633   1.649  -0.617  0.00  0.00    +0.144 HD
ATOM     24  H   UNL     1       9.489   3.133   0.228  0.00  0.00    +0.144 HD
ENDBRANCH  19  22
ENDBRANCH  11  19
TORSDOF 3
