REMARK  Name = 
REMARK  16 active torsions:
REMARK  status: ('A' for Active; 'I' for Inactive)
REMARK    1  A    between atoms: C_1  and  C_2
REMARK    2  A    between atoms: C_2  and  C_3
REMARK    3  A    between atoms: C_3  and  C_4
REMARK    4  A    between atoms: C_5  and  O_6
REMARK    5  A    between atoms: O_6  and  C_7
REMARK    6  A    between atoms: C_7  and  C_8
REMARK    7  A    between atoms: C_8  and  C_9
REMARK    8  A    between atoms: C_9  and  O_10
REMARK    9  A    between atoms: O_10  and  C_11
REMARK   10  A    between atoms: C_14  and  O_15
REMARK   11  A    between atoms: O_15  and  C_16
REMARK   12  A    between atoms: C_16  and  C_17
REMARK   13  A    between atoms: C_17  and  O_18
REMARK   14  A    between atoms: C_24  and  C_25
REMARK   15  A    between atoms: C_25  and  C_26
REMARK   16  A    between atoms: C_28  and  O_29
REMARK                            x       y       z     vdW  Elec       q    Type
REMARK                         _______ _______ _______ _____ _____    ______ ____
ROOT
ATOM      1  C   UNL     1       3.295   1.610  -1.452  0.00  0.00    +0.232 C 
ENDROOT
BRANCH   1   2
ATOM      2  O   UNL     1       4.697   1.363  -1.261  0.00  0.00    -0.491 OA
BRANCH   2   8
ATOM      3  C   UNL     1       6.223  -0.135  -0.173  0.00  0.00    +0.036 A 
ATOM      4  C   UNL     1       6.592  -0.836   1.003  0.00  0.00    +0.134 A 
ATOM      5  C   UNL     1       5.799  -0.814   2.170  0.00  0.00    +0.059 A 
ATOM      6  C   UNL     1       4.655  -0.018   2.175  0.00  0.00    +0.018 A 
ATOM      7  C   UNL     1       4.311   0.732   1.048  0.00  0.00    +0.047 A 
ATOM      8  C   UNL     1       5.054   0.656  -0.137  0.00  0.00    +0.127 A 
BRANCH   5   9
ATOM      9  C   UNL     1       6.193  -1.631   3.364  0.00  0.00    +0.164 C 
ATOM     10  O   UNL     1       7.284  -2.205   3.354  0.00  0.00    -0.292 OA
ATOM     11  C   UNL     1       5.286  -1.753   4.566  0.00  0.00    +0.092 C 
ENDBRANCH   5   9
BRANCH   4  12
ATOM     12  O   UNL     1       7.767  -1.555   0.962  0.00  0.00    -0.506 OA
ATOM     13  H   UNL     1       7.927  -1.948   1.850  0.00  0.00    +0.292 HD
ENDBRANCH   4  12
BRANCH   3  14
ATOM     14  C   UNL     1       7.027  -0.341  -1.449  0.00  0.00    +0.042 C 
BRANCH  14  16
ATOM     15  C   UNL     1       8.691   0.499  -3.145  0.00  0.00    +0.004 C 
ATOM     16  C   UNL     1       7.797   0.877  -1.965  0.00  0.00    +0.001 C 
ENDBRANCH  14  16
ENDBRANCH   3  14
ENDBRANCH   2   8
ENDBRANCH   1   2
BRANCH   1  17
ATOM     17  C   UNL     1       2.933   3.087  -1.267  0.00  0.00    +0.082 C 
BRANCH  17  18
ATOM     18  C   UNL     1       3.486   3.941  -2.407  0.00  0.00    +0.232 C 
BRANCH  18  19
ATOM     19  O   UNL     1       2.943   5.263  -2.328  0.00  0.00    -0.492 OA
BRANCH  19  20
ATOM     20  C   UNL     1       3.003   6.038  -3.457  0.00  0.00    +0.121 A 
ATOM     21  C   UNL     1       2.609   7.370  -3.300  0.00  0.00    +0.049 A 
ATOM     22  C   UNL     1       2.592   8.257  -4.391  0.00  0.00    +0.049 A 
ATOM     23  C   UNL     1       2.974   7.816  -5.655  0.00  0.00    +0.122 A 
ATOM     24  C   UNL     1       3.382   6.493  -5.813  0.00  0.00    +0.049 A 
ATOM     25  C   UNL     1       3.400   5.611  -4.725  0.00  0.00    +0.049 A 
BRANCH  23  26
ATOM     26  O   UNL     1       3.033   8.582  -6.789  0.00  0.00    -0.481 OA
BRANCH  26  27
ATOM     27  C   UNL     1       2.143   9.702  -6.834  0.00  0.00    +0.349 C 
BRANCH  27  28
ATOM     28  C   UNL     1       2.298  10.409  -8.174  0.00  0.00    +0.343 C 
ATOM     29  O   UNL     1       1.627  11.373  -8.525  0.00  0.00    -0.247 OA
BRANCH  28  30
ATOM     30  O   UNL     1       3.273   9.876  -8.952  0.00  0.00    -0.478 OA
ATOM     31  H   UNL     1       3.689   9.114  -8.484  0.00  0.00    +0.295 HD
ENDBRANCH  28  30
ENDBRANCH  27  28
ENDBRANCH  26  27
ENDBRANCH  23  26
ENDBRANCH  19  20
ENDBRANCH  18  19
ENDBRANCH  17  18
ENDBRANCH   1  17
TORSDOF 14
