REMARK  Name = 
REMARK  3 active torsions:
REMARK  status: ('A' for Active; 'I' for Inactive)
REMARK    1  A    between atoms: C_2  and  C_18
REMARK    2  A    between atoms: N_3  and  C_4
REMARK    3  A    between atoms: C_8  and  C_9
REMARK                            x       y       z     vdW  Elec       q    Type
REMARK                         _______ _______ _______ _____ _____    ______ ____
ROOT
ATOM      1  C   UNL     1       2.347   2.090  -1.376  0.00  0.00    +0.082 A 
ATOM      2  C   UNL     1       2.660   3.465  -1.228  0.00  0.00    +0.149 A 
ATOM      3  N   UNL     1       1.878   4.254  -1.983  0.00  0.00    -0.169 NA
ATOM      4  N   UNL     1       1.084   3.372  -2.623  0.00  0.00    -0.282 N 
ATOM      5  H   UNL     1       0.393   3.727  -3.275  0.00  0.00    +0.188 HD
ATOM      6  C   UNL     1       1.319   2.073  -2.286  0.00  0.00    +0.129 A 
ENDROOT
BRANCH   2   7
ATOM      7  C   UNL     1       3.728   4.014  -0.347  0.00  0.00    +0.161 A 
ATOM      8  N   UNL     1       3.967   5.354  -0.208  0.00  0.00    -0.337 N 
ATOM      9  H   UNL     1       3.452   6.075  -0.694  0.00  0.00    +0.167 HD
ATOM     10  C   UNL     1       4.968   5.517   0.712  0.00  0.00    +0.067 A 
ATOM     11  C   UNL     1       5.570   6.650   1.262  0.00  0.00    +0.028 A 
ATOM     12  C   UNL     1       6.584   6.428   2.200  0.00  0.00    +0.002 A 
ATOM     13  C   UNL     1       6.980   5.135   2.551  0.00  0.00    +0.002 A 
ATOM     14  C   UNL     1       6.361   4.015   1.982  0.00  0.00    +0.030 A 
ATOM     15  C   UNL     1       5.328   4.217   1.056  0.00  0.00    +0.090 A 
ATOM     16  N   UNL     1       4.551   3.294   0.395  0.00  0.00    -0.226 NA
ENDBRANCH   2   7
BRANCH   1  19
ATOM     17  O   UNL     1       1.937  -0.724  -1.852  0.00  0.00    -0.270 OA
ATOM     18  C   UNL     1       2.707  -0.303  -0.992  0.00  0.00    +0.248 C 
ATOM     19  N   UNL     1       2.954   1.028  -0.723  0.00  0.00    -0.278 N 
ATOM     20  H   UNL     1       3.626   1.308  -0.014  0.00  0.00    +0.155 HD
BRANCH  18  21
ATOM     21  C   UNL     1       3.438  -1.298  -0.151  0.00  0.00    +0.037 A 
ATOM     22  C   UNL     1       2.881  -2.582  -0.044  0.00  0.00    +0.013 A 
ATOM     23  C   UNL     1       3.514  -3.569   0.709  0.00  0.00    +0.001 A 
ATOM     24  C   UNL     1       4.710  -3.283   1.362  0.00  0.00    +0.000 A 
ATOM     25  C   UNL     1       5.279  -2.013   1.254  0.00  0.00    +0.001 A 
ATOM     26  C   UNL     1       4.649  -1.019   0.498  0.00  0.00    +0.013 A 
ENDBRANCH  18  21
ENDBRANCH   1  19
TORSDOF 3
