REMARK  Name = 
REMARK  6 active torsions:
REMARK  status: ('A' for Active; 'I' for Inactive)
REMARK    1  A    between atoms: O_1  and  C_2
REMARK    2  A    between atoms: C_2  and  C_4
REMARK    3  A    between atoms: C_4  and  C_5
REMARK    4  A    between atoms: C_5  and  C_6
REMARK    5  A    between atoms: C_6  and  N_7
REMARK    6  A    between atoms: N_10  and  C_11
REMARK                            x       y       z     vdW  Elec       q    Type
REMARK                         _______ _______ _______ _____ _____    ______ ____
ROOT
ATOM      1  N   UNL     1       6.709   2.010   1.166  0.00  0.00    -0.299 N 
ATOM      2  H   UNL     1       7.079   1.158   0.772  0.00  0.00    +0.150 HD
ATOM      3  C   UNL     1       7.584   3.008   1.514  0.00  0.00    +0.300 C 
ATOM      4  N   UNL     1       8.873   2.563   1.439  0.00  0.00    -0.297 N 
ATOM      5  H   UNL     1       9.021   1.733   0.889  0.00  0.00    +0.151 HD
ATOM      6  O   UNL     1       7.246   4.124   1.886  0.00  0.00    -0.253 OA
ENDROOT
BRANCH   4   7
ATOM      7  C   UNL     1      10.044   3.373   1.750  0.00  0.00    +0.074 C 
ATOM      8  C   UNL     1      10.503   4.193   0.538  0.00  0.00    +0.022 C 
ATOM      9  C   UNL     1      11.002   3.304  -0.602  0.00  0.00    +0.002 C 
ATOM     10  C   UNL     1      12.079   2.320  -0.144  0.00  0.00    +0.000 C 
ATOM     11  C   UNL     1      11.689   1.543   1.110  0.00  0.00    +0.002 C 
ATOM     12  C   UNL     1      11.182   2.461   2.225  0.00  0.00    +0.022 C 
ENDBRANCH   4   7
BRANCH   1  13
ATOM     13  C   UNL     1       5.277   2.161   1.241  0.00  0.00    +0.106 C 
BRANCH  13  14
ATOM     14  C   UNL     1       4.703   2.679  -0.069  0.00  0.00    +0.030 C 
BRANCH  14  15
ATOM     15  C   UNL     1       3.189   2.802   0.021  0.00  0.00    +0.122 C 
BRANCH  15  16
ATOM     16  C   UNL     1       2.626   3.306  -1.279  0.00  0.00    +0.305 C 
ATOM     17  O   UNL     1       2.269   2.577  -2.191  0.00  0.00    -0.251 OA
BRANCH  16  18
ATOM     18  O   UNL     1       2.583   4.653  -1.360  0.00  0.00    -0.481 OA
ATOM     19  H   UNL     1       2.930   5.112  -0.571  0.00  0.00    +0.295 HD
ENDBRANCH  16  18
ENDBRANCH  15  16
ENDBRANCH  14  15
ENDBRANCH  13  14
ENDBRANCH   1  13
TORSDOF 6
