REMARK  Name = 
REMARK  4 active torsions:
REMARK  status: ('A' for Active; 'I' for Inactive)
REMARK    1  A    between atoms: N_1  and  C_2
REMARK    2  A    between atoms: C_2  and  C_3
REMARK    3  A    between atoms: C_3  and  C_18
REMARK    4  A    between atoms: N_6  and  C_9
REMARK                            x       y       z     vdW  Elec       q    Type
REMARK                         _______ _______ _______ _____ _____    ______ ____
ROOT
ATOM      1  C   UNL     1       2.839   1.007   1.041  0.00  0.00    +0.011 C 
ATOM      2  C   UNL     1       2.799   2.501   0.597  0.00  0.00    +0.032 C 
ATOM      3  C   UNL     1       3.671   2.803  -0.623  0.00  0.00    +0.107 C 
ATOM      4  N   UNL     1       5.024   2.314  -0.407  0.00  0.00    -0.315 N 
ATOM      5  C   UNL     1       5.214   0.944   0.024  0.00  0.00    +0.107 C 
ATOM      6  C   UNL     1       4.341   0.652   1.245  0.00  0.00    +0.032 C 
ENDROOT
BRANCH   4   7
ATOM      7  C   UNL     1       6.094   3.129  -0.725  0.00  0.00    +0.134 A 
ATOM      8  N   UNL     1       5.971   4.466  -0.496  0.00  0.00    -0.220 NA
ATOM      9  C   UNL     1       7.029   5.276  -0.693  0.00  0.00    +0.225 A 
ATOM     10  N   UNL     1       8.254   4.947  -1.128  0.00  0.00    -0.218 NA
ATOM     11  C   UNL     1       8.333   3.637  -1.395  0.00  0.00    +0.143 A 
ATOM     12  N   UNL     1       9.457   3.018  -1.871  0.00  0.00    -0.346 N 
ATOM     13  H   UNL     1      10.327   3.499  -2.045  0.00  0.00    +0.167 HD
ATOM     14  C   UNL     1       9.200   1.691  -2.086  0.00  0.00    +0.085 A 
ATOM     15  C   UNL     1       7.893   1.456  -1.716  0.00  0.00    +0.032 A 
ATOM     16  C   UNL     1       7.335   2.685  -1.243  0.00  0.00    +0.059 A 
ENDBRANCH   4   7
BRANCH   1  17
ATOM     17  C   UNL     1       2.088   0.749   2.376  0.00  0.00    -0.040 A 
ATOM     18  C   UNL     1       1.327   1.739   3.023  0.00  0.00    +0.005 A 
ATOM     19  C   UNL     1       0.619   1.461   4.198  0.00  0.00    +0.020 A 
ATOM     20  C   UNL     1       0.659   0.186   4.749  0.00  0.00    +0.041 A 
ATOM     21 CL   UNL     1      -0.237  -0.163   6.176  0.00  0.00    -0.084 Cl
ATOM     22  C   UNL     1       1.413  -0.811   4.144  0.00  0.00    +0.020 A 
ATOM     23  C   UNL     1       2.120  -0.530   2.971  0.00  0.00    +0.005 A 
ENDBRANCH   1  17
BRANCH   1  24
ATOM     24  C   UNL     1       2.234   0.079  -0.073  0.00  0.00    +0.089 C 
BRANCH  24  25
ATOM     25  N   UNL     1       0.812   0.287  -0.344  0.00  0.00    -0.329 NA
ATOM     26  H   UNL     1       0.640   1.235  -0.670  0.00  0.00    +0.118 HD
ATOM     27  H   UNL     1       0.510  -0.337  -1.090  0.00  0.00    +0.118 HD
ENDBRANCH  24  25
ENDBRANCH   1  24
TORSDOF 4
