REMARK  Name = 
REMARK  6 active torsions:
REMARK  status: ('A' for Active; 'I' for Inactive)
REMARK    1  A    between atoms: C_2  and  N_3
REMARK    2  A    between atoms: C_8  and  N_10
REMARK    3  A    between atoms: C_13  and  N_14
REMARK    4  A    between atoms: N_14  and  C_15
REMARK    5  A    between atoms: C_19  and  C_20
REMARK    6  A    between atoms: C_22  and  C_25
REMARK                            x       y       z     vdW  Elec       q    Type
REMARK                         _______ _______ _______ _____ _____    ______ ____
ROOT
ATOM      1  N   UNL     1       2.113   2.346  -0.298  0.00  0.00    -0.309 N 
ATOM      2  H   UNL     1       2.688   1.605   0.074  0.00  0.00    +0.149 HD
ATOM      3  C   UNL     1       0.951   2.481   0.416  0.00  0.00    +0.217 A 
ATOM      4  N   UNL     1       0.090   3.476   0.195  0.00  0.00    -0.222 NA
ATOM      5  C   UNL     1      -1.150   3.314   0.714  0.00  0.00    +0.131 A 
ATOM      6  C   UNL     1      -1.550   2.193   1.414  0.00  0.00    +0.095 A 
ATOM      7  C   UNL     1      -0.558   1.291   1.725  0.00  0.00    +0.140 A 
ATOM      8  N   UNL     1       0.690   1.460   1.233  0.00  0.00    -0.199 NA
ENDROOT
BRANCH   1  10
ATOM      9  C   UNL     1       3.445   4.418   0.001  0.00  0.00    +0.071 C 
ATOM     10  C   UNL     1       2.740   3.456  -0.994  0.00  0.00    +0.090 C 
ATOM     11  C   UNL     1       3.752   2.878  -2.006  0.00  0.00    +0.024 C 
ATOM     12  C   UNL     1       4.555   3.960  -2.729  0.00  0.00    +0.002 C 
ATOM     13  C   UNL     1       5.166   4.997  -1.788  0.00  0.00    +0.002 C 
ATOM     14  C   UNL     1       4.145   5.533  -0.787  0.00  0.00    +0.020 C 
BRANCH   9  15
ATOM     15  N   UNL     1       4.405   3.732   0.894  0.00  0.00    -0.326 NA
ATOM     16  H   UNL     1       3.913   2.970   1.362  0.00  0.00    +0.119 HD
ATOM     17  H   UNL     1       5.153   3.302   0.353  0.00  0.00    +0.119 HD
ENDBRANCH   9  15
ENDBRANCH   1  10
BRANCH   6  18
ATOM     18  C   UNL     1      -2.983   1.958   1.634  0.00  0.00    +0.246 C 
ATOM     19  O   UNL     1      -3.763   2.893   1.786  0.00  0.00    -0.270 OA
ATOM     20  N   UNL     1      -3.417   0.662   1.576  0.00  0.00    -0.325 N 
ATOM     21  H   UNL     1      -4.409   0.482   1.569  0.00  0.00    +0.145 HD
ATOM     22  H   UNL     1      -2.791  -0.108   1.358  0.00  0.00    +0.145 HD
ENDBRANCH   6  18
BRANCH   7  23
ATOM     23  N   UNL     1      -0.845   0.123   2.484  0.00  0.00    -0.299 N 
ATOM     24  H   UNL     1      -1.317   0.352   3.353  0.00  0.00    +0.154 HD
BRANCH  23  25
ATOM     25  C   UNL     1       0.026  -0.989   2.602  0.00  0.00    +0.033 A 
ATOM     26  C   UNL     1       0.872  -1.336   1.543  0.00  0.00    +0.026 A 
ATOM     27  C   UNL     1       1.891  -2.274   1.692  0.00  0.00    -0.049 A 
ATOM     28  C   UNL     1       2.971  -2.310   0.655  0.00  0.00    +0.044 C 
ATOM     29  C   UNL     1       1.956  -3.010   2.873  0.00  0.00    +0.003 A 
ATOM     30  C   UNL     1       1.024  -2.783   3.890  0.00  0.00    +0.002 A 
ATOM     31  C   UNL     1       0.072  -1.763   3.763  0.00  0.00    +0.023 A 
ENDBRANCH  23  25
ENDBRANCH   7  23
TORSDOF 5
