REMARK  Name = 
REMARK  6 active torsions:
REMARK  status: ('A' for Active; 'I' for Inactive)
REMARK    1  A    between atoms: C_2  and  C_12
REMARK    2  A    between atoms: CA_14  and  C_15
REMARK    3  A    between atoms: C_15  and  O_16
REMARK    4  A    between atoms: C_18  and  C_20
REMARK    5  A    between atoms: C_20  and  C_21
REMARK    6  A    between atoms: C_20  and  C_22
REMARK                            x       y       z     vdW  Elec       q    Type
REMARK                         _______ _______ _______ _____ _____    ______ ____
ROOT
ATOM      1  C   UNL     1       2.397  -0.253  -1.576  0.00  0.00    +0.097 A 
ATOM      2  S   UNL     1       1.772  -1.759  -2.140  0.00  0.00    -0.074 S 
ATOM      3  C   UNL     1       2.681  -1.603  -3.584  0.00  0.00    +0.026 A 
ATOM      4  CA  UNL     1       3.139  -0.302  -3.689  0.00  0.00    +0.158 A 
ATOM      5  N   UNL     1       3.049   0.449  -2.492  0.00  0.00    -0.236 NA
ENDROOT
BRANCH   1   6
ATOM      6  C   UNL     1       2.147   0.096  -0.107  0.00  0.00    +0.114 C 
ATOM      7  N   UNL     1       2.591  -0.984   0.814  0.00  0.00    -0.303 NA
ATOM      8  H   UNL     1       2.352  -0.709   1.766  0.00  0.00    +0.123 HD
ATOM      9  C   UNL     1       4.049  -1.154   0.749  0.00  0.00    +0.117 C 
ATOM     10  C   UNL     1       4.814   0.135   0.912  0.00  0.00    -0.030 A 
ATOM     11  C   UNL     1       6.184   0.094   1.208  0.00  0.00    +0.005 A 
ATOM     12  C   UNL     1       6.906   1.274   1.377  0.00  0.00    +0.000 A 
ATOM     13  C   UNL     1       6.266   2.505   1.262  0.00  0.00    +0.000 A 
ATOM     14  C   UNL     1       4.910   2.560   0.939  0.00  0.00    +0.004 A 
ATOM     15  C   UNL     1       4.187   1.380   0.727  0.00  0.00    -0.041 A 
ATOM     16  C   UNL     1       2.723   1.446   0.358  0.00  0.00    +0.061 C 
ENDBRANCH   1   6
BRANCH   3  17
ATOM     17  C   UNL     1       2.887  -2.797  -4.489  0.00  0.00    +0.022 C 
ATOM     18  C   UNL     1       1.572  -3.363  -5.021  0.00  0.00    +0.013 C 
ATOM     19  C   UNL     1       3.700  -3.879  -3.764  0.00  0.00    +0.013 C 
ENDBRANCH   3  17
BRANCH   4  20
ATOM     20  C   UNL     1       3.769   0.284  -4.882  0.00  0.00    +0.356 C 
ATOM     21  OXT UNL     1       3.668  -0.164  -6.013  0.00  0.00    -0.243 OA
BRANCH  20  22
ATOM     22  O   UNL     1       4.486   1.402  -4.597  0.00  0.00    -0.476 OA
ATOM     23  H   UNL     1       4.414   1.564  -3.631  0.00  0.00    +0.295 HD
ENDBRANCH  20  22
ENDBRANCH   4  20
TORSDOF 4
