REMARK  Name = 
REMARK  6 active torsions:
REMARK  status: ('A' for Active; 'I' for Inactive)
REMARK    1  A    between atoms: C_4  and  N_28
REMARK    2  A    between atoms: C_6  and  C_8
REMARK    3  A    between atoms: N_10  and  C_11
REMARK    4  A    between atoms: C_17  and  C_18
REMARK    5  A    between atoms: C_18  and  C_19
REMARK    6  A    between atoms: C_19  and  C_20
REMARK                            x       y       z     vdW  Elec       q    Type
REMARK                         _______ _______ _______ _____ _____    ______ ____
ROOT
ATOM      1  C   UNL     1       5.348  -4.931  -0.018  0.00  0.00    +0.034 A 
ATOM      2  C   UNL     1       6.757  -4.881  -0.041  0.00  0.00    +0.033 A 
ATOM      3  C   UNL     1       7.521  -6.079  -0.052  0.00  0.00    +0.005 A 
ATOM      4  C   UNL     1       6.832  -7.293  -0.045  0.00  0.00    +0.047 A 
ATOM      5  N   UNL     1       7.762  -8.302  -0.046  0.00  0.00    -0.360 N 
ATOM      6  H   UNL     1       7.537  -9.287  -0.036  0.00  0.00    +0.165 HD
ATOM      7  C   UNL     1       9.022  -7.776  -0.038  0.00  0.00    +0.087 A 
ATOM      8  C   UNL     1       5.442  -7.377  -0.033  0.00  0.00    +0.028 A 
ATOM      9  C   UNL     1       8.927  -6.395  -0.061  0.00  0.00    -0.022 A 
ATOM     10  C   UNL     1       4.721  -6.179  -0.016  0.00  0.00    +0.025 A 
ENDROOT
BRANCH   1  12
ATOM     11  C   UNL     1       3.244  -3.579   0.026  0.00  0.00    +0.248 C 
ATOM     12  N   UNL     1       4.625  -3.704  -0.002  0.00  0.00    -0.281 N 
ATOM     13  H   UNL     1       5.182  -2.862  -0.058  0.00  0.00    +0.155 HD
ATOM     14  O   UNL     1       2.433  -4.501   0.053  0.00  0.00    -0.270 OA
BRANCH  11  18
ATOM     15  F   UNL     1       3.158   1.204   1.073  0.00  0.00    -0.205 F 
ATOM     16  C   UNL     1       2.588   0.123   0.524  0.00  0.00    +0.126 A 
ATOM     17  C   UNL     1       3.270  -1.091   0.560  0.00  0.00    +0.051 A 
ATOM     18  C   UNL     1       2.663  -2.207  -0.003  0.00  0.00    +0.041 A 
ATOM     19  C   UNL     1       1.384  -2.076  -0.576  0.00  0.00    +0.036 A 
ATOM     20  C   UNL     1       0.679  -0.863  -0.608  0.00  0.00    +0.033 A 
ATOM     21  C   UNL     1       1.320   0.245  -0.054  0.00  0.00    +0.061 A 
BRANCH  20  22
ATOM     22  N   UNL     1      -0.561  -0.817  -1.221  0.00  0.00    -0.325 N 
ATOM     23  C   UNL     1      -1.599  -1.779  -0.783  0.00  0.00    +0.133 C 
ATOM     24  C   UNL     1      -2.575  -2.028  -1.945  0.00  0.00    +0.178 C 
ATOM     25  O   UNL     1      -3.146  -0.800  -2.435  0.00  0.00    -0.377 OA
ATOM     26  C   UNL     1      -2.109   0.099  -2.866  0.00  0.00    +0.178 C 
ATOM     27  C   UNL     1      -1.144   0.440  -1.715  0.00  0.00    +0.133 C 
ENDBRANCH  20  22
ENDBRANCH  11  18
ENDBRANCH   1  12
BRANCH   9  28
ATOM     28  C   UNL     1      10.075  -5.424  -0.050  0.00  0.00    +0.042 C 
BRANCH  28  29
ATOM     29  C   UNL     1      11.340  -5.958  -0.742  0.00  0.00    +0.040 C 
BRANCH  29  30
ATOM     30  C   UNL     1      12.500  -4.991  -0.732  0.00  0.00    -0.044 A 
ATOM     31  C   UNL     1      13.058  -4.532  -1.928  0.00  0.00    +0.023 A 
ATOM     32  C   UNL     1      14.151  -3.678  -1.870  0.00  0.00    +0.111 A 
ATOM     33  N   UNL     1      14.717  -3.257  -0.720  0.00  0.00    -0.263 NA
ATOM     34  C   UNL     1      14.171  -3.719   0.424  0.00  0.00    +0.111 A 
ATOM     35  C   UNL     1      13.082  -4.577   0.470  0.00  0.00    +0.023 A 
ENDBRANCH  29  30
ENDBRANCH  28  29
ENDBRANCH   9  28
TORSDOF 6
