REMARK  Name = 
REMARK  6 active torsions:
REMARK  status: ('A' for Active; 'I' for Inactive)
REMARK    1  A    between atoms: C_2  and  C_19
REMARK    2  A    between atoms: N_6  and  C_7
REMARK    3  A    between atoms: C_8  and  C_9
REMARK    4  A    between atoms: C_10  and  C_11
REMARK    5  A    between atoms: C_11  and  C_13
REMARK    6  A    between atoms: C_21  and  O_22
REMARK                            x       y       z     vdW  Elec       q    Type
REMARK                         _______ _______ _______ _____ _____    ______ ____
ROOT
ATOM      1  C   UNL     1       2.180   0.009   0.204  0.00  0.00    +0.138 C 
ATOM      2  C   UNL     1       2.533  -1.139  -0.697  0.00  0.00    +0.041 C 
ATOM      3  C   UNL     1       3.346  -0.925  -1.771  0.00  0.00    +0.018 C 
ATOM      4  C   UNL     1       3.953  -2.069  -2.568  0.00  0.00    +0.061 C 
ATOM      5  N   UNL     1       3.680   0.405  -2.154  0.00  0.00    -0.289 N 
ATOM      6  C   UNL     1       4.573   0.608  -3.311  0.00  0.00    +0.137 C 
ATOM      7  C   UNL     1       3.101   1.516  -1.531  0.00  0.00    +0.137 C 
ATOM      8  S   UNL     1       3.312   3.139  -1.893  0.00  0.00    -0.018 S 
ATOM      9  N   UNL     1       2.245   1.256  -0.511  0.00  0.00    -0.315 N 
ATOM     10  H   UNL     1       1.889   2.079  -0.043  0.00  0.00    +0.149 HD
ENDROOT
BRANCH   1  11
ATOM     11  C   UNL     1       3.006   0.081   1.480  0.00  0.00    -0.019 A 
ATOM     12  C   UNL     1       2.376  -0.063   2.726  0.00  0.00    +0.006 A 
ATOM     13  C   UNL     1       3.106   0.035   3.911  0.00  0.00    +0.004 A 
ATOM     14  C   UNL     1       4.477   0.278   3.866  0.00  0.00    +0.045 A 
ATOM     15  C   UNL     1       5.110   0.413   2.639  0.00  0.00    +0.117 A 
ATOM     16  C   UNL     1       4.392   0.319   1.450  0.00  0.00    +0.051 A 
BRANCH  15  17
ATOM     17  O   UNL     1       6.454   0.643   2.639  0.00  0.00    -0.507 OA
ATOM     18  H   UNL     1       6.765   0.668   1.719  0.00  0.00    +0.292 HD
ENDBRANCH  15  17
ENDBRANCH   1  11
BRANCH   2  19
ATOM     19  C   UNL     1       2.045  -2.528  -0.319  0.00  0.00    +0.193 C 
ATOM     20  O   UNL     1       2.594  -3.545  -0.741  0.00  0.00    -0.287 OA
BRANCH  19  21
ATOM     21  C   UNL     1       0.896  -2.752   0.613  0.00  0.00    +0.022 A 
ATOM     22  C   UNL     1       0.972  -3.849   1.489  0.00  0.00    +0.012 A 
ATOM     23  C   UNL     1      -0.054  -4.113   2.402  0.00  0.00    +0.001 A 
ATOM     24  C   UNL     1      -1.165  -3.276   2.458  0.00  0.00    +0.000 A 
ATOM     25  C   UNL     1      -1.280  -2.219   1.558  0.00  0.00    +0.001 A 
ATOM     26  C   UNL     1      -0.276  -1.986   0.609  0.00  0.00    +0.012 A 
ENDBRANCH  19  21
ENDBRANCH   2  19
TORSDOF 4
