REMARK  Name = 
REMARK  7 active torsions:
REMARK  status: ('A' for Active; 'I' for Inactive)
REMARK    1  A    between atoms: C_1  and  C_2
REMARK    2  A    between atoms: C_2  and  C_3
REMARK    3  A    between atoms: C_6  and  C_9
REMARK    4  A    between atoms: C_9  and  C_11
REMARK    5  A    between atoms: C_11  and  C_12
REMARK    6  A    between atoms: C_11  and  C_13
REMARK    7  A    between atoms: C_13  and  N_14
REMARK                            x       y       z     vdW  Elec       q    Type
REMARK                         _______ _______ _______ _____ _____    ______ ____
ROOT
ATOM      1  C   UNL     1       4.069  -5.339  -1.766  0.00  0.00    +0.167 C 
ATOM      2  O   UNL     1       3.840  -4.863  -2.879  0.00  0.00    -0.292 OA
ENDROOT
BRANCH   1   6
ATOM      3  C   UNL     1       7.453  -4.145   0.578  0.00  0.00    -0.048 A 
ATOM      4  C   UNL     1       7.500  -4.093  -0.824  0.00  0.00    +0.004 A 
ATOM      5  C   UNL     1       6.373  -4.420  -1.583  0.00  0.00    +0.011 A 
ATOM      6  C   UNL     1       5.195  -4.812  -0.945  0.00  0.00    +0.018 A 
ATOM      7  C   UNL     1       5.115  -4.767   0.454  0.00  0.00    +0.011 A 
ATOM      8  C   UNL     1       6.242  -4.452   1.208  0.00  0.00    +0.004 A 
BRANCH   3  10
ATOM      9  C   UNL     1       9.427  -5.282   1.594  0.00  0.00    +0.009 C 
ATOM     10  C   UNL     1       8.700  -3.957   1.398  0.00  0.00    +0.032 C 
ENDBRANCH   3  10
ENDBRANCH   1   6
BRANCH   1  11
ATOM     11  C   UNL     1       3.252  -6.493  -1.181  0.00  0.00    +0.071 C 
ATOM     12  C   UNL     1       1.777  -6.090  -1.137  0.00  0.00    +0.017 C 
BRANCH  11  13
ATOM     13  C   UNL     1       3.459  -7.788  -1.989  0.00  0.00    +0.095 C 
BRANCH  13  14
ATOM     14  N   UNL     1       4.829  -8.348  -1.995  0.00  0.00    -0.302 NA
ATOM     15  C   UNL     1       4.894  -9.582  -2.802  0.00  0.00    +0.084 C 
ATOM     16  C   UNL     1       4.237 -10.801  -2.137  0.00  0.00    +0.015 C 
ATOM     17  C   UNL     1       4.723 -11.015  -0.705  0.00  0.00    +0.002 C 
ATOM     18  C   UNL     1       4.711  -9.718   0.096  0.00  0.00    +0.015 C 
ATOM     19  C   UNL     1       5.416  -8.602  -0.673  0.00  0.00    +0.084 C 
ENDBRANCH  13  14
ENDBRANCH  11  13
ENDBRANCH   1  11
TORSDOF 5
