REMARK  Name = 
REMARK  1 active torsions:
REMARK  status: ('A' for Active; 'I' for Inactive)
REMARK    1  A    between atoms: C_3  and  C_10
REMARK                            x       y       z     vdW  Elec       q    Type
REMARK                         _______ _______ _______ _____ _____    ______ ____
ROOT
ATOM      1  N   UNL     1      -1.586   0.943   0.049  0.00  0.00    -0.276 N 
ATOM      2  H   UNL     1      -2.004   1.865   0.074  0.00  0.00    +0.189 HD
ATOM      3  C   UNL     1      -0.255   0.636   0.024  0.00  0.00    +0.066 A 
ATOM      4  C   UNL     1       0.881   1.453   0.029  0.00  0.00    +0.028 A 
ATOM      5  C   UNL     1       2.124   0.816  -0.014  0.00  0.00    +0.002 A 
ATOM      6  C   UNL     1       2.218  -0.573  -0.072  0.00  0.00    +0.001 A 
ATOM      7  C   UNL     1       1.066  -1.369  -0.080  0.00  0.00    +0.012 A 
ATOM      8  C   UNL     1      -0.202  -0.754  -0.014  0.00  0.00    +0.027 A 
ATOM      9  C   UNL     1      -1.573  -1.181   0.022  0.00  0.00    +0.100 A 
ATOM     10  N   UNL     1      -2.401  -0.121   0.033  0.00  0.00    -0.173 NA
ENDROOT
BRANCH   9  11
ATOM     11  C   UNL     1      -2.118  -2.541   0.046  0.00  0.00    +0.006 A 
ATOM     12  C   UNL     1      -1.443  -3.589   0.675  0.00  0.00    +0.030 A 
ATOM     13  C   UNL     1      -2.022  -4.848   0.672  0.00  0.00    +0.111 A 
ATOM     14  N   UNL     1      -3.212  -5.128   0.103  0.00  0.00    -0.263 NA
ATOM     15  C   UNL     1      -3.860  -4.099  -0.481  0.00  0.00    +0.111 A 
ATOM     16  C   UNL     1      -3.361  -2.808  -0.536  0.00  0.00    +0.030 A 
ENDBRANCH   9  11
TORSDOF 1
