REMARK  Name = 
REMARK  6 active torsions:
REMARK  status: ('A' for Active; 'I' for Inactive)
REMARK    1  A    between atoms: O_1  and  C_2
REMARK    2  A    between atoms: C_2  and  C_4
REMARK    3  A    between atoms: C_5  and  C_6
REMARK    4  A    between atoms: C_6  and  N_7
REMARK    5  A    between atoms: N_7  and  C_8
REMARK    6  A    between atoms: C_11  and  C_15
REMARK                            x       y       z     vdW  Elec       q    Type
REMARK                         _______ _______ _______ _____ _____    ______ ____
ROOT
ATOM      1  C   UNL     1       7.738   2.508  -2.228  0.00  0.00    +0.103 C 
ATOM      2  C   UNL     1       9.042   2.319  -1.987  0.00  0.00    +0.165 C 
ATOM      3  C   UNL     1      10.108   3.128  -2.632  0.00  0.00    +0.366 C 
ATOM      4  O   UNL     1      10.019   3.998  -3.474  0.00  0.00    -0.243 OA
ATOM      5  O   UNL     1      11.240   2.666  -2.032  0.00  0.00    -0.402 OA
ATOM      6  C   UNL     1      10.847   1.705  -1.161  0.00  0.00    +0.232 C 
ATOM      7  N   UNL     1       9.583   1.441  -1.084  0.00  0.00    -0.204 NA
ENDROOT
BRANCH   6   8
ATOM      8  C   UNL     1      11.920   1.056  -0.394  0.00  0.00    +0.037 A 
ATOM      9  C   UNL     1      13.253   1.466  -0.515  0.00  0.00    +0.013 A 
ATOM     10  C   UNL     1      14.250   0.813   0.212  0.00  0.00    +0.001 A 
ATOM     11  C   UNL     1      13.919  -0.241   1.065  0.00  0.00    +0.000 A 
ATOM     12  C   UNL     1      12.591  -0.643   1.197  0.00  0.00    +0.001 A 
ATOM     13  C   UNL     1      11.591   0.004   0.470  0.00  0.00    +0.013 A 
ENDBRANCH   6   8
BRANCH   1  14
ATOM     14  N   UNL     1       6.669   1.849  -1.638  0.00  0.00    -0.344 N 
ATOM     15  H   UNL     1       5.873   2.467  -1.492  0.00  0.00    +0.146 HD
BRANCH  14  16
ATOM     16  C   UNL     1       6.217   0.546  -2.118  0.00  0.00    +0.128 C 
BRANCH  16  18
ATOM     17  C   UNL     1       6.951  -0.298   0.145  0.00  0.00    +0.088 C 
ATOM     18  C   UNL     1       6.365  -0.490  -1.048  0.00  0.00    -0.001 C 
BRANCH  17  19
ATOM     19  C   UNL     1       7.086  -1.395   1.118  0.00  0.00    +0.329 C 
ATOM     20  O   UNL     1       6.685  -2.530   0.949  0.00  0.00    -0.246 OA
BRANCH  19  21
ATOM     21  O   UNL     1       7.725  -0.986   2.234  0.00  0.00    -0.478 OA
ATOM     22  H   UNL     1       7.978  -0.044   2.231  0.00  0.00    +0.295 HD
ENDBRANCH  19  21
ENDBRANCH  17  19
ENDBRANCH  16  18
ENDBRANCH  14  16
ENDBRANCH   1  14
TORSDOF 6
