REMARK  Name = 
REMARK  0 active torsions:
REMARK  status: ('A' for Active; 'I' for Inactive)
REMARK                            x       y       z     vdW  Elec       q    Type
REMARK                         _______ _______ _______ _____ _____    ______ ____
ROOT
ATOM      1  O   UNL     1       0.985   0.246  -0.081  0.00  0.00    -0.270 OA
ATOM      2  C   UNL     1       2.189   0.029  -0.079  0.00  0.00    +0.245 C 
ATOM      3  C   UNL     1       2.993  -1.152  -0.079  0.00  0.00    +0.052 A 
ATOM      4  C   UNL     1       4.368  -0.794  -0.078  0.00  0.00    -0.008 A 
ATOM      5  C   UNL     1       5.356  -1.815  -0.079  0.00  0.00    +0.015 A 
ATOM      6  C   UNL     1       6.736  -1.615  -0.080  0.00  0.00    +0.008 A 
ATOM      7  C   UNL     1       7.248  -2.928  -0.080  0.00  0.00    +0.048 A 
ATOM      8  C   UNL     1       8.622  -3.198  -0.081  0.00  0.00    +0.026 A 
ATOM      9  C   UNL     1       9.501  -2.112  -0.082  0.00  0.00    +0.002 A 
ATOM     10  C   UNL     1       9.023  -0.804  -0.082  0.00  0.00    +0.001 A 
ATOM     11  N   UNL     1       6.178  -3.821  -0.080  0.00  0.00    -0.353 N 
ATOM     12  H   UNL     1       6.280  -4.824  -0.081  0.00  0.00    +0.166 HD
ATOM     13  C   UNL     1       7.647  -0.541  -0.081  0.00  0.00    +0.010 A 
ATOM     14  C   UNL     1       4.995  -3.135  -0.080  0.00  0.00    +0.072 A 
ATOM     15  C   UNL     1       3.709  -3.575  -0.080  0.00  0.00    +0.072 A 
ATOM     16  N   UNL     1       3.245  -4.850  -0.080  0.00  0.00    -0.352 N 
ATOM     17  H   UNL     1       3.767  -5.713  -0.080  0.00  0.00    +0.166 HD
ATOM     18  C   UNL     1       1.862  -4.647  -0.080  0.00  0.00    +0.048 A 
ATOM     19  C   UNL     1       0.854  -5.624  -0.080  0.00  0.00    +0.026 A 
ATOM     20  C   UNL     1      -0.481  -5.215  -0.079  0.00  0.00    +0.002 A 
ATOM     21  C   UNL     1      -0.815  -3.867  -0.078  0.00  0.00    +0.001 A 
ATOM     22  C   UNL     1       0.179  -2.882  -0.079  0.00  0.00    +0.010 A 
ATOM     23  C   UNL     1       1.545  -3.239  -0.079  0.00  0.00    +0.008 A 
ATOM     24  C   UNL     1       4.520   0.667  -0.076  0.00  0.00    +0.141 C 
ATOM     25  C   UNL     1       2.772  -2.538  -0.080  0.00  0.00    +0.022 A 
ATOM     26  N   UNL     1       3.122   1.062  -0.078  0.00  0.00    -0.307 N 
ATOM     27  H   UNL     1       2.798   2.018  -0.078  0.00  0.00    +0.149 HD
ENDROOT
TORSDOF 0
