REMARK  Name = 
REMARK  4 active torsions:
REMARK  status: ('A' for Active; 'I' for Inactive)
REMARK    1  A    between atoms: O_1  and  C_2
REMARK    2  A    between atoms: C_2  and  C_3
REMARK    3  A    between atoms: C_6  and  C_12
REMARK    4  A    between atoms: C_8  and  N_9
REMARK                            x       y       z     vdW  Elec       q    Type
REMARK                         _______ _______ _______ _____ _____    ______ ____
ROOT
ATOM      1  C   UNL     1       3.077  -1.242  -0.205  0.00  0.00    +0.094 A 
ATOM      2  C   UNL     1       3.207  -2.091   0.918  0.00  0.00    +0.284 A 
ATOM      3  C   UNL     1       3.604  -3.442   0.760  0.00  0.00    +0.097 A 
ATOM      4  C   UNL     1       3.885  -3.971  -0.512  0.00  0.00    +0.061 A 
ATOM      5  C   UNL     1       3.828  -3.111  -1.615  0.00  0.00    +0.013 A 
ATOM      6  C   UNL     1       3.430  -1.774  -1.462  0.00  0.00    +0.019 A 
ENDROOT
BRANCH   1   7
ATOM      7  C   UNL     1       2.405   0.080  -0.240  0.00  0.00    +0.144 C 
ATOM      8  C   UNL     1       2.969   1.304  -0.189  0.00  0.00    +0.102 C 
ATOM      9  C   UNL     1       4.401   1.561   0.104  0.00  0.00    +0.170 C 
ATOM     10  O   UNL     1       5.302   0.899  -0.406  0.00  0.00    -0.292 OA
ATOM     11  C   UNL     1       4.676   2.653   1.127  0.00  0.00    +0.080 C 
ATOM     12  C   UNL     1       3.793   3.882   0.923  0.00  0.00    +0.016 C 
ATOM     13  C   UNL     1       2.316   3.518   0.867  0.00  0.00    +0.080 C 
ATOM     14  C   UNL     1       2.084   2.501  -0.226  0.00  0.00    +0.170 C 
ATOM     15  O   UNL     1       1.244   2.682  -1.105  0.00  0.00    -0.292 OA
BRANCH   7  16
ATOM     16  O   UNL     1       1.018  -0.025  -0.324  0.00  0.00    -0.505 OA
ATOM     17  H   UNL     1       0.729  -0.931  -0.118  0.00  0.00    +0.292 HD
ENDBRANCH   7  16
ENDBRANCH   1   7
BRANCH   4  18
ATOM     18  C   UNL     1       4.203  -5.443  -0.677  0.00  0.00    +0.418 C 
ATOM     19  F   UNL     1       3.190  -6.233  -0.229  0.00  0.00    -0.166 F 
ATOM     20  F   UNL     1       5.310  -5.819   0.018  0.00  0.00    -0.166 F 
ATOM     21  F   UNL     1       4.421  -5.811  -1.968  0.00  0.00    -0.166 F 
ENDBRANCH   4  18
BRANCH   2  22
ATOM     22  N   UNL     1       2.899  -1.642   2.292  0.00  0.00    +0.080 N 
ATOM     23  O   UNL     1       2.899  -2.490   3.185  0.00  0.00    +0.041 OA
ATOM     24  O   UNL     1       2.659  -0.437   2.468  0.00  0.00    -0.576 OA
ENDBRANCH   2  22
TORSDOF 4
