REMARK  Name = 
REMARK  3 active torsions:
REMARK  status: ('A' for Active; 'I' for Inactive)
REMARK    1  A    between atoms: N_1  and  C_2
REMARK    2  A    between atoms: N_8  and  C_20
REMARK    3  A    between atoms: C_10  and  C_11
REMARK                            x       y       z     vdW  Elec       q    Type
REMARK                         _______ _______ _______ _____ _____    ______ ____
ROOT
ATOM      1  C   UNL     1       2.525   0.129   0.139  0.00  0.00    +0.131 A 
ATOM      2  N   UNL     1       3.284   1.243   0.098  0.00  0.00    -0.220 NA
ATOM      3  C   UNL     1       4.622   1.114   0.053  0.00  0.00    +0.225 A 
ATOM      4  N   UNL     1       5.334  -0.020   0.063  0.00  0.00    -0.216 NA
ATOM      5  C   UNL     1       4.540  -1.104   0.086  0.00  0.00    +0.164 A 
ATOM      6  N   UNL     1       4.944  -2.408   0.109  0.00  0.00    -0.243 N 
ATOM      7  N   UNL     1       3.918  -3.287   0.103  0.00  0.00    -0.168 NA
ATOM      8  C   UNL     1       2.809  -2.518   0.056  0.00  0.00    +0.107 A 
ATOM      9  C   UNL     1       3.152  -1.125   0.098  0.00  0.00    +0.086 A 
ENDROOT
BRANCH   8  10
ATOM     10  C   UNL     1       1.488  -3.156  -0.022  0.00  0.00    +0.022 A 
ATOM     11  C   UNL     1       0.411  -2.548  -0.667  0.00  0.00    +0.123 A 
ATOM     12  N   UNL     1      -0.862  -3.019  -0.748  0.00  0.00    -0.237 NA
ATOM     13  C   UNL     1      -0.998  -4.234  -0.191  0.00  0.00    +0.138 A 
ATOM     14  N   UNL     1      -2.170  -4.937  -0.148  0.00  0.00    -0.346 N 
ATOM     15  H   UNL     1      -3.045  -4.587  -0.509  0.00  0.00    +0.167 HD
ATOM     16  C   UNL     1      -1.950  -6.169   0.413  0.00  0.00    +0.085 A 
ATOM     17  C   UNL     1      -0.621  -6.233   0.782  0.00  0.00    +0.029 A 
ATOM     18  C   UNL     1      -0.012  -4.999   0.420  0.00  0.00    +0.019 A 
ATOM     19  C   UNL     1       1.273  -4.434   0.523  0.00  0.00    +0.023 A 
ENDBRANCH   8  10
BRANCH   6  20
ATOM     20  C   UNL     1       6.316  -2.867   0.168  0.00  0.00    +0.109 C 
ATOM     21  C   UNL     1       6.744  -3.760  -1.003  0.00  0.00    +0.027 C 
ATOM     22  C   UNL     1       7.760  -4.750  -0.428  0.00  0.00    +0.002 C 
ATOM     23  C   UNL     1       7.954  -4.366   1.034  0.00  0.00    +0.002 C 
ATOM     24  C   UNL     1       6.651  -3.683   1.418  0.00  0.00    +0.027 C 
ENDBRANCH   6  20
BRANCH   1  25
ATOM     25  N   UNL     1       1.157   0.345   0.249  0.00  0.00    -0.342 N 
ATOM     26  H   UNL     1       0.989   1.331   0.429  0.00  0.00    +0.144 HD
ATOM     27  H   UNL     1       0.688  -0.278   0.895  0.00  0.00    +0.144 HD
ENDBRANCH   1  25
TORSDOF 3
