REMARK  Name = 
REMARK  24 active torsions:
REMARK  status: ('A' for Active; 'I' for Inactive)
REMARK    1  A    between atoms: C_2  and  O_3
REMARK    2  A    between atoms: C_2  and  C_4
REMARK    3  A    between atoms: C_2  and  C_24
REMARK    4  A    between atoms: N_6  and  C_7
REMARK    5  A    between atoms: C_7  and  C_8
REMARK    6  A    between atoms: C_8  and  C_9
REMARK    7  A    between atoms: N_11  and  C_12
REMARK    8  A    between atoms: C_12  and  C_13
REMARK    9  A    between atoms: C_13  and  S_14
REMARK   10  A    between atoms: S_14  and  C_15
REMARK   11  A    between atoms: C_15  and  C_17
REMARK   12  A    between atoms: C_17  and  C_18
REMARK   13  A    between atoms: C_18  and  C_19
REMARK   14  A    between atoms: C_19  and  C_20
REMARK   15  A    between atoms: C_20  and  C_21
REMARK   16  A    between atoms: C_21  and  C_22
REMARK   17  A    between atoms: C_22  and  C_23
REMARK   18  A    between atoms: C_24  and  C_25
REMARK   19  A    between atoms: C_24  and  C_26
REMARK   20  A    between atoms: C_24  and  C_27
REMARK   21  A    between atoms: C_27  and  O_28
REMARK   22  A    between atoms: O_28  and  P_29
REMARK   23  A    between atoms: P_29  and  O_30
REMARK   24  A    between atoms: P_29  and  O_31
REMARK                            x       y       z     vdW  Elec       q    Type
REMARK                         _______ _______ _______ _____ _____    ______ ____
ROOT
ATOM      1  C   UNL     1       1.001  -0.334  -2.058  0.00  0.00    +0.242 C 
ATOM      2  N   UNL     1       2.184  -0.946  -2.418  0.00  0.00    -0.313 N 
ATOM      3  H   UNL     1       2.728  -1.389  -1.684  0.00  0.00    +0.149 HD
ATOM      4  O   UNL     1       0.283   0.267  -2.853  0.00  0.00    -0.273 OA
ENDROOT
BRANCH   2   5
ATOM      5  C   UNL     1       2.741  -0.834  -3.755  0.00  0.00    +0.113 C 
BRANCH   5   6
ATOM      6  C   UNL     1       2.288  -1.948  -4.694  0.00  0.00    +0.114 C 
BRANCH   6   7
ATOM      7  C   UNL     1       2.850  -1.744  -6.096  0.00  0.00    +0.215 C 
ATOM      8  N   UNL     1       2.415  -2.672  -7.011  0.00  0.00    -0.314 N 
ATOM      9  H   UNL     1       1.898  -3.485  -6.699  0.00  0.00    +0.149 HD
ATOM     10  O   UNL     1       3.638  -0.849  -6.377  0.00  0.00    -0.276 OA
BRANCH   8  11
ATOM     11  C   UNL     1       2.850  -2.632  -8.401  0.00  0.00    +0.115 C 
BRANCH  11  12
ATOM     12  C   UNL     1       4.201  -3.312  -8.649  0.00  0.00    +0.096 C 
BRANCH  12  13
ATOM     13  S   UNL     1       4.093  -5.103  -8.313  0.00  0.00    -0.087 S 
BRANCH  13  14
ATOM     14  C   UNL     1       5.746  -5.578  -8.708  0.00  0.00    +0.189 C 
ATOM     15  O   UNL     1       6.569  -4.774  -9.126  0.00  0.00    -0.285 OA
BRANCH  14  16
ATOM     16  C   UNL     1       6.014  -7.064  -8.536  0.00  0.00    +0.086 C 
BRANCH  16  17
ATOM     17  C   UNL     1       7.480  -7.341  -8.213  0.00  0.00    +0.008 C 
BRANCH  17  18
ATOM     18  C   UNL     1       7.728  -8.836  -7.998  0.00  0.00    +0.000 C 
BRANCH  18  19
ATOM     19  C   UNL     1       9.192  -9.115  -7.650  0.00  0.00    +0.000 C 
BRANCH  19  20
ATOM     20  C   UNL     1       9.447 -10.610  -7.439  0.00  0.00    -0.000 C 
BRANCH  20  21
ATOM     21  C   UNL     1      10.912 -10.877  -7.092  0.00  0.00    -0.003 C 
ATOM     22  C   UNL     1      11.177 -12.359  -6.879  0.00  0.00    +0.004 C 
ENDBRANCH  20  21
ENDBRANCH  19  20
ENDBRANCH  18  19
ENDBRANCH  17  18
ENDBRANCH  16  17
ENDBRANCH  14  16
ENDBRANCH  13  14
ENDBRANCH  12  13
ENDBRANCH  11  12
ENDBRANCH   8  11
ENDBRANCH   6   7
ENDBRANCH   5   6
ENDBRANCH   2   5
BRANCH   1  23
ATOM     23  C   UNL     1       0.618  -0.495  -0.565  0.00  0.00    +0.208 C 
BRANCH  23  24
ATOM     24  C   UNL     1       0.987   0.709   0.360  0.00  0.00    +0.024 C 
ATOM     25  C   UNL     1       0.449   2.032  -0.218  0.00  0.00    +0.016 C 
ATOM     26  C   UNL     1       2.513   0.841   0.528  0.00  0.00    +0.016 C 
BRANCH  24  27
ATOM     27  C   UNL     1       0.333   0.458   1.754  0.00  0.00    +0.181 C 
BRANCH  27  28
ATOM     28  O   UNL     1       0.582   1.512   2.692  0.00  0.00    -0.286 OA
BRANCH  28  29
ATOM     29  P   UNL     1      -0.183   1.262   4.223  0.00  0.00    +0.472 P 
ATOM     30  O   UNL     1      -0.868   1.038   5.594  0.00  0.00    -0.228 OA
BRANCH  29  31
ATOM     31  O   UNL     1       1.195   0.501   4.664  0.00  0.00    -0.303 OA
ATOM     32  H   UNL     1       0.959  -0.245   5.246  0.00  0.00    +0.222 HD
ENDBRANCH  29  31
BRANCH  29  33
ATOM     33  O   UNL     1       0.303   2.787   4.539  0.00  0.00    -0.303 OA
ATOM     34  H   UNL     1       1.046   2.979   3.937  0.00  0.00    +0.222 HD
ENDBRANCH  29  33
ENDBRANCH  28  29
ENDBRANCH  27  28
ENDBRANCH  24  27
ENDBRANCH  23  24
BRANCH  23  35
ATOM     35  O   UNL     1       1.190  -1.701  -0.041  0.00  0.00    -0.382 OA
ATOM     36  H   UNL     1       0.851  -2.430  -0.593  0.00  0.00    +0.210 HD
ENDBRANCH  23  35
ENDBRANCH   1  23
TORSDOF 21
