REMARK  Name = 
REMARK  1 active torsions:
REMARK  status: ('A' for Active; 'I' for Inactive)
REMARK    1  A    between atoms: C_1  and  C_2
REMARK                            x       y       z     vdW  Elec       q    Type
REMARK                         _______ _______ _______ _____ _____    ______ ____
ROOT
ATOM      1  C   UNL     1       1.291  -0.732   1.804  0.00  0.00    +0.109 C 
ATOM      2  C   UNL     1       2.796  -0.696   1.832  0.00  0.00    +0.216 C 
ATOM      3  N   UNL     1       3.312   0.271   0.995  0.00  0.00    -0.265 N 
ATOM      4  H   UNL     1       2.723   0.785   0.357  0.00  0.00    +0.157 HD
ATOM      5  C   UNL     1       4.657   0.513   0.946  0.00  0.00    +0.165 A 
ATOM      6  S   UNL     1       5.169   1.630  -0.239  0.00  0.00    -0.047 S 
ATOM      7  C   UNL     1       6.789   1.387   0.266  0.00  0.00    +0.098 A 
ATOM      8  C   UNL     1       7.910   2.045  -0.371  0.00  0.00    +0.253 C 
ATOM      9  N   UNL     1       8.965   2.295   0.497  0.00  0.00    -0.311 N 
ATOM     10  H   UNL     1       8.631   2.735   1.344  0.00  0.00    +0.149 HD
ATOM     11  C   UNL     1       9.888   1.215   0.827  0.00  0.00    +0.105 C 
ATOM     12  C   UNL     1       9.252  -0.162   1.030  0.00  0.00    +0.025 C 
ATOM     13  C   UNL     1       8.032  -0.131   1.952  0.00  0.00    +0.058 C 
ATOM     14  O   UNL     1       7.954   2.387  -1.551  0.00  0.00    -0.270 OA
ATOM     15  C   UNL     1       6.824   0.460   1.296  0.00  0.00    +0.063 A 
ATOM     16  N   UNL     1       5.591   0.002   1.700  0.00  0.00    -0.229 NA
ATOM     17  O   UNL     1       3.417  -1.480   2.542  0.00  0.00    -0.276 OA
ENDROOT
TORSDOF 0
