REMARK  Name = 
REMARK  4 active torsions:
REMARK  status: ('A' for Active; 'I' for Inactive)
REMARK    1  A    between atoms: C_2  and  C_3
REMARK    2  A    between atoms: N_7  and  C_8
REMARK    3  A    between atoms: C_8  and  C_9
REMARK    4  A    between atoms: N_17  and  C_18
REMARK                            x       y       z     vdW  Elec       q    Type
REMARK                         _______ _______ _______ _____ _____    ______ ____
ROOT
ATOM      1  C   UNL     1       3.758  -0.092   0.055  0.00  0.00    +0.116 A 
ATOM      2  C   UNL     1       4.639   0.993  -0.084  0.00  0.00    +0.156 A 
ATOM      3  N   UNL     1       5.931   0.624  -0.053  0.00  0.00    -0.169 NA
ATOM      4  N   UNL     1       5.846  -0.719   0.134  0.00  0.00    -0.182 N 
ATOM      5  C   UNL     1       6.939  -1.591   0.255  0.00  0.00    +0.225 A 
ATOM      6  N   UNL     1       8.224  -1.110   0.084  0.00  0.00    -0.283 N 
ATOM      7  H   UNL     1       8.362  -0.105   0.082  0.00  0.00    +0.155 HD
ATOM      8  N   UNL     1       6.684  -2.837   0.539  0.00  0.00    -0.181 NA
ATOM      9  C   UNL     1       5.389  -3.272   0.629  0.00  0.00    +0.220 A 
ATOM     10  N   UNL     1       5.269  -4.582   0.948  0.00  0.00    -0.313 N 
ATOM     11  H   UNL     1       6.079  -5.001   1.381  0.00  0.00    +0.149 HD
ATOM     12  N   UNL     1       4.344  -2.518   0.418  0.00  0.00    -0.194 NA
ATOM     13  C   UNL     1       4.561  -1.194   0.203  0.00  0.00    +0.180 A 
ENDROOT
BRANCH   6  14
ATOM     14  C   UNL     1       9.260  -1.875  -0.495  0.00  0.00    +0.034 A 
ATOM     15  C   UNL     1      10.576  -1.715  -0.050  0.00  0.00    +0.023 A 
ATOM     16  C   UNL     1      11.602  -2.540  -0.530  0.00  0.00    +0.002 A 
ATOM     17  C   UNL     1      11.331  -3.519  -1.484  0.00  0.00    +0.000 A 
ATOM     18  C   UNL     1      10.034  -3.673  -1.961  0.00  0.00    +0.002 A 
ATOM     19  C   UNL     1       9.008  -2.864  -1.463  0.00  0.00    +0.023 A 
ENDBRANCH   6  14
BRANCH   1  21
ATOM     20  N   UNL     1       1.183  -0.004   0.071  0.00  0.00    -0.191 NA
ATOM     21  C   UNL     1       2.341  -0.066   0.066  0.00  0.00    +0.104 C 
ENDBRANCH   1  21
BRANCH  10  22
ATOM     22  C   UNL     1       4.152  -5.415   0.603  0.00  0.00    +0.108 C 
BRANCH  22  23
ATOM     23  C   UNL     1       4.444  -6.312  -0.621  0.00  0.00    +0.006 C 
ATOM     24  C   UNL     1       4.876  -5.601  -1.930  0.00  0.00    +0.005 C 
ATOM     25  C   UNL     1       3.784  -5.237  -2.943  0.00  0.00    +0.000 C 
ATOM     26  C   UNL     1       2.653  -6.252  -3.029  0.00  0.00    +0.000 C 
ATOM     27  C   UNL     1       2.132  -6.574  -1.640  0.00  0.00    +0.000 C 
ATOM     28  C   UNL     1       3.241  -7.245  -0.838  0.00  0.00    +0.005 C 
ENDBRANCH  22  23
ENDBRANCH  10  22
TORSDOF 4
