REMARK  Name = 
REMARK  11 active torsions:
REMARK  status: ('A' for Active; 'I' for Inactive)
REMARK    1  A    between atoms: C_1  and  C_2
REMARK    2  A    between atoms: C_2  and  O_4
REMARK    3  A    between atoms: O_4  and  C_5
REMARK    4  A    between atoms: C_5  and  C_6
REMARK    5  A    between atoms: N_8  and  C_9
REMARK    6  A    between atoms: C_9  and  C_10
REMARK    7  A    between atoms: C_10  and  C_11
REMARK    8  A    between atoms: C_11  and  O_12
REMARK    9  A    between atoms: O_12  and  C_13
REMARK   10  A    between atoms: C_17  and  C_18
REMARK   11  A    between atoms: C_18  and  N_19
REMARK                            x       y       z     vdW  Elec       q    Type
REMARK                         _______ _______ _______ _____ _____    ______ ____
ROOT
ATOM      1  O   UNL     1      10.628   4.125  -4.007  0.00  0.00    -0.492 OA
ENDROOT
BRANCH   1   2
ATOM      2  C   UNL     1      11.141   4.992  -4.938  0.00  0.00    +0.121 A 
ATOM      3  C   UNL     1      11.768   4.417  -6.046  0.00  0.00    +0.050 A 
ATOM      4  C   UNL     1      12.278   5.221  -7.082  0.00  0.00    -0.030 A 
ATOM      5  C   UNL     1      12.188   6.615  -6.970  0.00  0.00    +0.005 A 
ATOM      6  C   UNL     1      11.603   7.190  -5.846  0.00  0.00    +0.004 A 
ATOM      7  C   UNL     1      11.087   6.383  -4.833  0.00  0.00    +0.045 A 
BRANCH   4   8
ATOM      8  C   UNL     1      12.812   4.585  -8.351  0.00  0.00    +0.119 C 
BRANCH   8   9
ATOM      9  N   UNL     1      14.122   5.085  -8.812  0.00  0.00    -0.298 NA
ATOM     10  C   UNL     1      14.425   4.579 -10.162  0.00  0.00    +0.085 C 
ATOM     11  C   UNL     1      14.726   3.078 -10.198  0.00  0.00    +0.015 C 
ATOM     12  C   UNL     1      15.877   2.736  -9.259  0.00  0.00    +0.002 C 
ATOM     13  C   UNL     1      15.636   3.298  -7.861  0.00  0.00    +0.015 C 
ATOM     14  C   UNL     1      15.232   4.777  -7.896  0.00  0.00    +0.085 C 
ENDBRANCH   8   9
ENDBRANCH   4   8
ENDBRANCH   1   2
BRANCH   1  15
ATOM     15  C   UNL     1       9.456   4.606  -3.338  0.00  0.00    +0.230 C 
BRANCH  15  16
ATOM     16  C   UNL     1       8.955   3.569  -2.339  0.00  0.00    +0.060 C 
BRANCH  16  17
ATOM     17  C   UNL     1       9.996   3.302  -1.257  0.00  0.00    +0.107 C 
BRANCH  17  19
ATOM     18  C   UNL     1       8.850   2.916   0.900  0.00  0.00    +0.251 C 
ATOM     19  N   UNL     1       9.477   2.425  -0.228  0.00  0.00    -0.312 N 
ATOM     20  H   UNL     1       9.676   1.436  -0.301  0.00  0.00    +0.149 HD
ATOM     21  O   UNL     1       8.640   4.114   1.083  0.00  0.00    -0.272 OA
BRANCH  18  22
ATOM     22  C   UNL     1       8.413   1.835   1.894  0.00  0.00    +0.327 C 
BRANCH  22  23
ATOM     23  O   UNL     1       8.398   2.293   3.244  0.00  0.00    -0.455 OA
BRANCH  23  25
ATOM     24  C   UNL     1       9.535   2.980   5.178  0.00  0.00    +0.136 C 
ATOM     25  C   UNL     1       9.636   2.402   3.800  0.00  0.00    +0.304 C 
ATOM     26  O   UNL     1      10.683   2.066   3.263  0.00  0.00    -0.251 OA
ENDBRANCH  23  25
ENDBRANCH  22  23
ENDBRANCH  18  22
ENDBRANCH  17  19
ENDBRANCH  16  17
ENDBRANCH  15  16
ENDBRANCH   1  15
TORSDOF 10
