REMARK  Name = 
REMARK  3 active torsions:
REMARK  status: ('A' for Active; 'I' for Inactive)
REMARK    1  A    between atoms: C_1  and  S_2
REMARK    2  A    between atoms: S_2  and  N_5
REMARK    3  A    between atoms: N_5  and  C_6
REMARK                            x       y       z     vdW  Elec       q    Type
REMARK                         _______ _______ _______ _____ _____    ______ ____
ROOT
ATOM      1  C   UNL     1       4.890  -1.727   0.573  0.00  0.00    +0.074 A 
ATOM      2  C   UNL     1       5.861  -0.717   0.541  0.00  0.00    +0.093 A 
ATOM      3  N   UNL     1       5.493   0.586   0.480  0.00  0.00    -0.253 NA
ATOM      4  C   UNL     1       6.466   1.524   0.491  0.00  0.00    +0.111 A 
ATOM      5  C   UNL     1       7.814   1.233   0.558  0.00  0.00    +0.020 A 
ATOM      6  C   UNL     1       8.191  -0.103   0.608  0.00  0.00    +0.011 A 
ATOM      7  C   UNL     1       7.215  -1.107   0.599  0.00  0.00    +0.002 A 
ATOM      8  C   UNL     1       7.561  -2.469   0.657  0.00  0.00    +0.010 A 
ATOM      9  C   UNL     1       6.572  -3.451   0.675  0.00  0.00    +0.003 A 
ATOM     10  C   UNL     1       5.233  -3.079   0.647  0.00  0.00    +0.026 A 
ENDROOT
BRANCH   1  11
ATOM     11  N   UNL     1       3.496  -1.362   0.609  0.00  0.00    -0.219 N 
ATOM     12  H   UNL     1       3.314  -0.504   0.082  0.00  0.00    +0.173 HD
BRANCH  11  14
ATOM     13  C   UNL     1       3.575   0.167   2.873  0.00  0.00    +0.218 C 
ATOM     14  S   UNL     1       2.787  -1.258   2.142  0.00  0.00    +0.040 S 
ATOM     15  O   UNL     1       1.400  -0.906   1.919  0.00  0.00    -0.155 OA
ATOM     16  O   UNL     1       3.144  -2.426   2.919  0.00  0.00    -0.155 OA
ENDBRANCH  11  14
ENDBRANCH   1  11
TORSDOF 2
