REMARK  Name = 
REMARK  5 active torsions:
REMARK  status: ('A' for Active; 'I' for Inactive)
REMARK    1  A    between atoms: C_1  and  N_2
REMARK    2  A    between atoms: N_2  and  S_3
REMARK    3  A    between atoms: S_3  and  C_6
REMARK    4  A    between atoms: C_9  and  N_10
REMARK    5  A    between atoms: N_10  and  C_11
REMARK                            x       y       z     vdW  Elec       q    Type
REMARK                         _______ _______ _______ _____ _____    ______ ____
ROOT
ATOM      1  N   UNL     1       9.174  -1.536  -1.339  0.00  0.00    -0.320 N 
ATOM      2  H   UNL     1       9.566  -2.410  -1.697  0.00  0.00    +0.152 HD
ENDROOT
BRANCH   1   3
ATOM      3  C   UNL     1      10.086  -0.530  -1.132  0.00  0.00    +0.085 C 
ATOM      4  C   UNL     1      11.406  -0.551  -1.365  0.00  0.00    +0.060 C 
ATOM      5  C   UNL     1      12.381   0.503  -1.087  0.00  0.00    +0.010 A 
ATOM      6  C   UNL     1      12.286   1.761  -0.520  0.00  0.00    +0.010 A 
ATOM      7  C   UNL     1      13.459   2.513  -0.389  0.00  0.00    +0.001 A 
ATOM      8  C   UNL     1      14.697   2.002  -0.823  0.00  0.00    +0.002 A 
ATOM      9  C   UNL     1      14.786   0.729  -1.394  0.00  0.00    +0.024 A 
ATOM     10  C   UNL     1      13.618   0.003  -1.511  0.00  0.00    +0.042 A 
ATOM     11  N   UNL     1      13.475  -1.282  -2.030  0.00  0.00    -0.281 N 
ATOM     12  H   UNL     1      14.219  -1.857  -2.396  0.00  0.00    +0.155 HD
ATOM     13  C   UNL     1      12.153  -1.705  -1.973  0.00  0.00    +0.250 C 
ATOM     14  O   UNL     1      11.694  -2.772  -2.333  0.00  0.00    -0.270 OA
ENDBRANCH   1   3
BRANCH   1  18
ATOM     15  C   UNL     1       4.961  -1.481  -1.042  0.00  0.00    +0.105 A 
ATOM     16  C   UNL     1       5.666  -2.682  -0.952  0.00  0.00    +0.030 A 
ATOM     17  C   UNL     1       7.060  -2.676  -1.072  0.00  0.00    +0.025 A 
ATOM     18  C   UNL     1       7.772  -1.480  -1.263  0.00  0.00    +0.031 A 
ATOM     19  C   UNL     1       7.046  -0.280  -1.277  0.00  0.00    +0.025 A 
ATOM     20  C   UNL     1       5.648  -0.274  -1.179  0.00  0.00    +0.030 A 
BRANCH  15  21
ATOM     21  S   UNL     1       3.192  -1.490  -0.909  0.00  0.00    +0.058 S 
ATOM     22  O   UNL     1       2.794  -2.607  -0.083  0.00  0.00    -0.153 OA
ATOM     23  O   UNL     1       2.756  -0.140  -0.622  0.00  0.00    -0.153 OA
BRANCH  21  25
ATOM     24  C   UNL     1       2.615  -3.185  -2.934  0.00  0.00    +0.127 C 
ATOM     25  N   UNL     1       2.706  -1.798  -2.490  0.00  0.00    -0.193 NA
ATOM     26  H   UNL     1       1.977  -1.153  -2.794  0.00  0.00    +0.148 HD
ENDBRANCH  21  25
ENDBRANCH  15  21
ENDBRANCH   1  18
TORSDOF 4
