REMARK  Name = 
REMARK  6 active torsions:
REMARK  status: ('A' for Active; 'I' for Inactive)
REMARK    1  A    between atoms: C_2  and  C_21
REMARK    2  A    between atoms: C_8  and  C_10
REMARK    3  A    between atoms: C_10  and  O_11
REMARK    4  A    between atoms: C_12  and  O_14
REMARK    5  A    between atoms: C_15  and  O_17
REMARK    6  A    between atoms: C_18  and  O_20
REMARK                            x       y       z     vdW  Elec       q    Type
REMARK                         _______ _______ _______ _____ _____    ______ ____
ROOT
ATOM      1  C   UNL     1       1.994   0.324   0.202  0.00  0.00    +0.116 C 
ATOM      2  N   UNL     1       2.634   0.409   1.502  0.00  0.00    -0.190 NA
ATOM      3  H   UNL     1       3.470   0.993   1.452  0.00  0.00    +0.155 HD
ATOM      4  O   UNL     1       3.242  -0.896   1.760  0.00  0.00    -0.261 OA
ATOM      5  C   UNL     1       3.340  -1.680   0.546  0.00  0.00    +0.220 C 
ATOM      6  C   UNL     1       2.870  -3.118   0.936  0.00  0.00    +0.206 C 
ATOM      7  C   UNL     1       3.258  -4.197  -0.091  0.00  0.00    +0.179 C 
ATOM      8  C   UNL     1       4.741  -4.063  -0.467  0.00  0.00    +0.177 C 
ATOM      9  C   UNL     1       5.089  -2.632  -0.908  0.00  0.00    +0.178 C 
ATOM     10  O   UNL     1       4.698  -1.647   0.068  0.00  0.00    -0.337 OA
ATOM     11  C   UNL     1       2.444  -0.965  -0.452  0.00  0.00    +0.095 C 
ENDROOT
BRANCH   1  12
ATOM     12  C   UNL     1       0.478   0.349   0.219  0.00  0.00    -0.028 A 
ATOM     13  C   UNL     1      -0.203   0.758  -0.937  0.00  0.00    +0.006 A 
ATOM     14  C   UNL     1      -1.590   0.635  -1.033  0.00  0.00    +0.009 A 
ATOM     15  C   UNL     1      -2.330   0.089   0.025  0.00  0.00    -0.018 A 
ATOM     16  C   UNL     1      -1.661  -0.309   1.204  0.00  0.00    -0.018 A 
ATOM     17  C   UNL     1      -2.397  -0.864   2.261  0.00  0.00    +0.008 A 
ATOM     18  C   UNL     1      -3.778  -1.034   2.149  0.00  0.00    +0.001 A 
ATOM     19  C   UNL     1      -4.437  -0.645   0.987  0.00  0.00    +0.001 A 
ATOM     20  C   UNL     1      -3.719  -0.081  -0.068  0.00  0.00    +0.008 A 
ATOM     21  C   UNL     1      -0.262  -0.165   1.290  0.00  0.00    +0.013 A 
ENDBRANCH   1  12
BRANCH   6  22
ATOM     22  O   UNL     1       3.452  -3.508   2.203  0.00  0.00    -0.384 OA
ATOM     23  H   UNL     1       4.404  -3.683   2.039  0.00  0.00    +0.210 HD
ENDBRANCH   6  22
BRANCH   7  24
ATOM     24  O   UNL     1       2.445  -4.254  -1.259  0.00  0.00    -0.386 OA
ATOM     25  H   UNL     1       1.939  -3.440  -1.388  0.00  0.00    +0.210 HD
ENDBRANCH   7  24
BRANCH   8  26
ATOM     26  O   UNL     1       5.531  -4.378   0.697  0.00  0.00    -0.386 OA
ATOM     27  H   UNL     1       6.461  -4.433   0.408  0.00  0.00    +0.210 HD
ENDBRANCH   8  26
BRANCH   9  28
ATOM     28  C   UNL     1       4.643  -2.303  -2.343  0.00  0.00    +0.190 C 
BRANCH  28  29
ATOM     29  O   UNL     1       5.167  -3.226  -3.285  0.00  0.00    -0.392 OA
ATOM     30  H   UNL     1       6.074  -2.954  -3.494  0.00  0.00    +0.210 HD
ENDBRANCH  28  29
ENDBRANCH   9  28
TORSDOF 6
