REMARK  Name = 
REMARK  8 active torsions:
REMARK  status: ('A' for Active; 'I' for Inactive)
REMARK    1  A    between atoms: C_1  and  C_2
REMARK    2  A    between atoms: C_2  and  C_3
REMARK    3  A    between atoms: C_2  and  N_12
REMARK    4  A    between atoms: C_3  and  O_4
REMARK    5  A    between atoms: C_3  and  C_5
REMARK    6  A    between atoms: C_8  and  O_9
REMARK    7  A    between atoms: C_15  and  C_16
REMARK    8  A    between atoms: C_16  and  C_17
REMARK                            x       y       z     vdW  Elec       q    Type
REMARK                         _______ _______ _______ _____ _____    ______ ____
ROOT
ATOM      1  C   UNL     1       2.171  -0.164  -1.408  0.00  0.00    +0.027 C 
ATOM      2  C   UNL     1       2.245   0.138   0.101  0.00  0.00    +0.087 C 
ENDROOT
BRANCH   2   3
ATOM      3  N   UNL     1       2.936  -0.862   0.959  0.00  0.00    -0.297 NA
ATOM      4  C   UNL     1       4.373  -1.016   0.730  0.00  0.00    +0.085 C 
ATOM      5  C   UNL     1       4.741  -2.021  -0.363  0.00  0.00    +0.019 C 
ATOM      6  C   UNL     1       4.026  -3.372  -0.209  0.00  0.00    -0.004 C 
ATOM      7  C   UNL     1       2.530  -3.174   0.097  0.00  0.00    +0.019 C 
ATOM      8  C   UNL     1       2.295  -2.153   1.204  0.00  0.00    +0.085 C 
BRANCH   6   9
ATOM      9  C   UNL     1       4.741  -4.245   0.848  0.00  0.00    +0.038 C 
BRANCH   9  10
ATOM     10  C   UNL     1       4.079  -5.593   1.006  0.00  0.00    -0.047 A 
ATOM     11  C   UNL     1       3.454  -5.932   2.213  0.00  0.00    +0.003 A 
ATOM     12  C   UNL     1       2.706  -7.104   2.310  0.00  0.00    +0.000 A 
ATOM     13  C   UNL     1       2.581  -7.947   1.207  0.00  0.00    +0.000 A 
ATOM     14  C   UNL     1       3.226  -7.634   0.013  0.00  0.00    +0.000 A 
ATOM     15  C   UNL     1       3.983  -6.468  -0.085  0.00  0.00    +0.003 A 
ENDBRANCH   9  10
ENDBRANCH   6   9
ENDBRANCH   2   3
BRANCH   2  16
ATOM     16  C   UNL     1       0.809   0.584   0.575  0.00  0.00    +0.161 C 
BRANCH  16  17
ATOM     17  C   UNL     1       0.628   1.073   2.004  0.00  0.00    -0.017 A 
ATOM     18  C   UNL     1      -0.673   1.397   2.438  0.00  0.00    +0.010 A 
ATOM     19  C   UNL     1      -0.913   1.797   3.752  0.00  0.00    +0.046 A 
ATOM     20  C   UNL     1       0.146   1.892   4.641  0.00  0.00    +0.117 A 
ATOM     21  C   UNL     1       1.447   1.635   4.228  0.00  0.00    +0.046 A 
ATOM     22  C   UNL     1       1.682   1.237   2.908  0.00  0.00    +0.010 A 
BRANCH  20  23
ATOM     23  O   UNL     1      -0.129   2.237   5.931  0.00  0.00    -0.507 OA
ATOM     24  H   UNL     1       0.679   2.113   6.455  0.00  0.00    +0.292 HD
ENDBRANCH  20  23
ENDBRANCH  16  17
BRANCH  16  25
ATOM     25  O   UNL     1      -0.146  -0.450   0.290  0.00  0.00    -0.386 OA
ATOM     26  H   UNL     1      -0.366  -0.867   1.141  0.00  0.00    +0.210 HD
ENDBRANCH  16  25
ENDBRANCH   2  16
TORSDOF 7
