REMARK  Name = 
REMARK  4 active torsions:
REMARK  status: ('A' for Active; 'I' for Inactive)
REMARK    1  A    between atoms: N_4  and  S_5
REMARK    2  A    between atoms: S_5  and  C_8
REMARK    3  A    between atoms: C_11  and  N_12
REMARK    4  A    between atoms: N_12  and  C_13
REMARK                            x       y       z     vdW  Elec       q    Type
REMARK                         _______ _______ _______ _____ _____    ______ ____
ROOT
ATOM      1  C   UNL     1       5.340  -1.311  -2.776  0.00  0.00    +0.124 A 
ATOM      2  C   UNL     1       5.289  -2.703  -2.868  0.00  0.00    +0.032 A 
ATOM      3  C   UNL     1       5.523  -3.322  -4.102  0.00  0.00    +0.025 A 
ATOM      4  C   UNL     1       5.817  -2.570  -5.251  0.00  0.00    +0.031 A 
ATOM      5  C   UNL     1       5.907  -1.177  -5.120  0.00  0.00    +0.025 A 
ATOM      6  C   UNL     1       5.661  -0.544  -3.896  0.00  0.00    +0.032 A 
ENDROOT
BRANCH   1   7
ATOM      7  S   UNL     1       5.046  -0.527  -1.211  0.00  0.00    +0.120 S 
ATOM      8  O   UNL     1       5.780  -1.264  -0.206  0.00  0.00    -0.135 OA
ATOM      9  O   UNL     1       5.219   0.903  -1.382  0.00  0.00    -0.135 OA
BRANCH   7  14
ATOM     10  N   UNL     1       2.535   0.973  -2.151  0.00  0.00    -0.288 N 
ATOM     11  H   UNL     1       3.445   1.414  -2.007  0.00  0.00    +0.255 HD
ATOM     12  H   UNL     1       1.790   1.656  -2.143  0.00  0.00    +0.255 HD
ATOM     13  C   UNL     1       2.329  -0.117  -1.396  0.00  0.00    +0.399 C 
ATOM     14  N   UNL     1       3.434  -0.813  -0.962  0.00  0.00    -0.136 N 
ATOM     15  H   UNL     1       3.239  -1.571  -0.312  0.00  0.00    +0.291 HD
ATOM     16  N   UNL     1       1.192  -0.560  -1.021  0.00  0.00    -0.128 NA
ATOM     17  H   UNL     1       0.457   0.030  -1.417  0.00  0.00    +0.306 HD
ENDBRANCH   7  14
ENDBRANCH   1   7
BRANCH   4  18
ATOM     18  N   UNL     1       6.099  -3.245  -6.451  0.00  0.00    -0.320 N 
ATOM     19  H   UNL     1       5.659  -4.161  -6.567  0.00  0.00    +0.152 HD
BRANCH  18  20
ATOM     20  C   UNL     1       6.794  -2.786  -7.544  0.00  0.00    +0.085 C 
ATOM     21  C   UNL     1       6.935  -3.367  -8.743  0.00  0.00    +0.060 C 
ATOM     22  C   UNL     1       7.722  -2.889  -9.879  0.00  0.00    +0.010 A 
ATOM     23  C   UNL     1       8.534  -1.786 -10.078  0.00  0.00    +0.010 A 
ATOM     24  C   UNL     1       9.164  -1.651 -11.320  0.00  0.00    +0.001 A 
ATOM     25  C   UNL     1       8.978  -2.610 -12.334  0.00  0.00    +0.002 A 
ATOM     26  C   UNL     1       8.158  -3.722 -12.126  0.00  0.00    +0.024 A 
ATOM     27  C   UNL     1       7.547  -3.837 -10.893  0.00  0.00    +0.042 A 
ATOM     28  N   UNL     1       6.707  -4.864 -10.463  0.00  0.00    -0.281 N 
ATOM     29  H   UNL     1       6.429  -5.665 -11.009  0.00  0.00    +0.155 HD
ATOM     30  C   UNL     1       6.290  -4.660  -9.155  0.00  0.00    +0.250 C 
ATOM     31  O   UNL     1       5.564  -5.368  -8.482  0.00  0.00    -0.270 OA
ENDBRANCH  18  20
ENDBRANCH   4  18
TORSDOF 4
