REMARK  Name = 
REMARK  26 active torsions:
REMARK  status: ('A' for Active; 'I' for Inactive)
REMARK    1  A    between atoms: C_2  and  O_3
REMARK    2  A    between atoms: C_2  and  C_4
REMARK    3  A    between atoms: C_2  and  C_23
REMARK    4  A    between atoms: C_4  and  O_5
REMARK    5  A    between atoms: O_5  and  C_6
REMARK    6  A    between atoms: C_6  and  C_8
REMARK    7  A    between atoms: C_8  and  C_9
REMARK    8  A    between atoms: C_9  and  C_10
REMARK    9  A    between atoms: C_10  and  C_11
REMARK   10  A    between atoms: C_11  and  C_12
REMARK   11  A    between atoms: C_12  and  C_13
REMARK   12  A    between atoms: C_13  and  C_14
REMARK   13  A    between atoms: C_14  and  C_15
REMARK   14  A    between atoms: C_15  and  C_16
REMARK   15  A    between atoms: C_16  and  C_17
REMARK   16  A    between atoms: C_17  and  C_18
REMARK   17  A    between atoms: C_18  and  C_19
REMARK   18  A    between atoms: C_19  and  C_20
REMARK   19  A    between atoms: C_20  and  C_21
REMARK   20  A    between atoms: C_21  and  C_22
REMARK   21  A    between atoms: C_23  and  O_25
REMARK   22  A    between atoms: C_23  and  C_26
REMARK   23  A    between atoms: C_26  and  O_27
REMARK   24  A    between atoms: C_28  and  O_29
REMARK   25  A    between atoms: C_28  and  C_30
REMARK   26  A    between atoms: C_30  and  O_31
REMARK                            x       y       z     vdW  Elec       q    Type
REMARK                         _______ _______ _______ _____ _____    ______ ____
ROOT
ATOM      1  O   UNL     1       2.138  -2.067   1.641  0.00  0.00    -0.462 OA
ENDROOT
BRANCH   1   2
ATOM      2  C   UNL     1       2.494  -3.377   1.760  0.00  0.00    +0.307 C 
ATOM      3  O   UNL     1       3.368  -3.924   1.105  0.00  0.00    -0.251 OA
BRANCH   2   4
ATOM      4  C   UNL     1       1.817  -3.967   2.964  0.00  0.00    +0.120 C 
BRANCH   4   5
ATOM      5  C   UNL     1       2.330  -5.380   3.188  0.00  0.00    +0.011 C 
BRANCH   5   6
ATOM      6  C   UNL     1       1.837  -5.941   4.509  0.00  0.00    +0.001 C 
BRANCH   6   7
ATOM      7  C   UNL     1       2.356  -7.359   4.681  0.00  0.00    +0.000 C 
BRANCH   7   8
ATOM      8  C   UNL     1       1.867  -7.951   5.991  0.00  0.00    +0.000 C 
BRANCH   8   9
ATOM      9  C   UNL     1       2.378  -9.375   6.144  0.00  0.00    +0.000 C 
BRANCH   9  10
ATOM     10  C   UNL     1       1.885  -9.973   7.452  0.00  0.00    -0.000 C 
BRANCH  10  11
ATOM     11  C   UNL     1       2.393 -11.398   7.610  0.00  0.00    -0.000 C 
BRANCH  11  12
ATOM     12  C   UNL     1       1.898 -11.992   8.921  0.00  0.00    -0.000 C 
BRANCH  12  13
ATOM     13  C   UNL     1       2.400 -13.419   9.088  0.00  0.00    -0.000 C 
BRANCH  13  14
ATOM     14  C   UNL     1       1.905 -14.010  10.402  0.00  0.00    -0.000 C 
BRANCH  14  15
ATOM     15  C   UNL     1       2.405 -15.440  10.574  0.00  0.00    -0.000 C 
BRANCH  15  16
ATOM     16  C   UNL     1       1.908 -16.031  11.890  0.00  0.00    -0.000 C 
BRANCH  16  17
ATOM     17  C   UNL     1       2.404 -17.462  12.071  0.00  0.00    -0.003 C 
ATOM     18  C   UNL     1       1.908 -18.052  13.380  0.00  0.00    +0.004 C 
ENDBRANCH  16  17
ENDBRANCH  15  16
ENDBRANCH  14  15
ENDBRANCH  13  14
ENDBRANCH  12  13
ENDBRANCH  11  12
ENDBRANCH  10  11
ENDBRANCH   9  10
ENDBRANCH   8   9
ENDBRANCH   7   8
ENDBRANCH   6   7
ENDBRANCH   5   6
ENDBRANCH   4   5
ENDBRANCH   2   4
ENDBRANCH   1   2
BRANCH   1  19
ATOM     19  C   UNL     1       3.258  -1.237   1.344  0.00  0.00    +0.266 C 
BRANCH  19  20
ATOM     20  C   UNL     1       3.748  -1.272  -0.110  0.00  0.00    +0.188 C 
BRANCH  20  21
ATOM     21  O   UNL     1       4.875  -0.375  -0.185  0.00  0.00    -0.385 OA
ATOM     22  H   UNL     1       4.527   0.527  -0.066  0.00  0.00    +0.210 HD
ENDBRANCH  20  21
BRANCH  20  23
ATOM     23  C   UNL     1       2.648  -0.841  -1.101  0.00  0.00    +0.215 C 
BRANCH  23  24
ATOM     24  O   UNL     1       2.415   0.582  -0.921  0.00  0.00    -0.381 OA
ATOM     25  H   UNL     1       1.863   0.662  -0.121  0.00  0.00    +0.210 HD
ENDBRANCH  23  24
BRANCH  23  26
ATOM     26  C   UNL     1       3.060  -1.000  -2.563  0.00  0.00    +0.174 C 
ATOM     27  C   UNL     1       2.969  -2.091  -3.332  0.00  0.00    +0.242 C 
BRANCH  26  28
ATOM     28  O   UNL     1       3.521   0.176  -3.166  0.00  0.00    -0.505 OA
ATOM     29  H   UNL     1       3.318   0.879  -2.506  0.00  0.00    +0.292 HD
ENDBRANCH  26  28
BRANCH  27  30
ATOM     30  O   UNL     1       3.396  -2.023  -4.662  0.00  0.00    -0.499 OA
ATOM     31  H   UNL     1       3.716  -1.099  -4.757  0.00  0.00    +0.293 HD
ENDBRANCH  27  30
BRANCH  27  32
ATOM     32  C   UNL     1       2.394  -3.391  -2.872  0.00  0.00    +0.375 C 
ATOM     33  O   UNL     1       1.881  -3.603  -1.789  0.00  0.00    -0.242 OA
BRANCH  32  34
ATOM     34  O   UNL     1       2.494  -4.301  -3.870  0.00  0.00    -0.475 OA
ATOM     35  H   UNL     1       2.921  -3.877  -4.649  0.00  0.00    +0.296 HD
ENDBRANCH  32  34
ENDBRANCH  27  32
ENDBRANCH  23  26
ENDBRANCH  20  23
ENDBRANCH  19  20
ENDBRANCH   1  19
TORSDOF 25
