REMARK  Name = 
REMARK  7 active torsions:
REMARK  status: ('A' for Active; 'I' for Inactive)
REMARK    1  A    between atoms: C_2  and  C_3
REMARK    2  A    between atoms: C_7  and  C_9
REMARK    3  A    between atoms: C_11  and  C_13
REMARK    4  A    between atoms: C_14  and  N_15
REMARK    5  A    between atoms: C_16  and  C_18
REMARK    6  A    between atoms: C_18  and  C_19
REMARK    7  A    between atoms: C_19  and  C_20
REMARK                            x       y       z     vdW  Elec       q    Type
REMARK                         _______ _______ _______ _____ _____    ______ ____
ROOT
ATOM      1  C   UNL     1       0.940  -3.077  -3.585  0.00  0.00    +0.059 A 
ATOM      2  C   UNL     1       0.414  -2.068  -4.395  0.00  0.00    +0.030 A 
ATOM      3  C   UNL     1       0.203  -2.264  -5.761  0.00  0.00    +0.019 A 
ATOM      4 BR   UNL     1      -0.275  -0.793  -6.850  0.00  0.00    -0.050 Br
ATOM      5  C   UNL     1       0.401  -3.511  -6.332  0.00  0.00    +0.017 A 
ATOM      6  C   UNL     1       0.788  -4.574  -5.518  0.00  0.00    +0.025 A 
ATOM      7  C   UNL     1       1.030  -4.376  -4.147  0.00  0.00    +0.046 A 
ENDROOT
BRANCH   1  15
ATOM      8  C   UNL     1       1.869  -0.039   0.144  0.00  0.00    +0.004 C 
ATOM      9  C   UNL     1       0.396  -0.211   0.525  0.00  0.00    +0.009 C 
ATOM     10  C   UNL     1       2.129   1.161  -0.782  0.00  0.00    +0.009 C 
ATOM     11  C   UNL     1       1.800   0.921  -2.267  0.00  0.00    +0.004 C 
ATOM     12  C   UNL     1       0.299   1.047  -2.543  0.00  0.00    +0.009 C 
ATOM     13  C   UNL     1       2.399  -0.419  -2.729  0.00  0.00    +0.111 C 
ATOM     14  N   UNL     1       1.980  -1.513  -1.849  0.00  0.00    -0.297 N 
ATOM     15  C   UNL     1       1.455  -2.773  -2.196  0.00  0.00    +0.248 C 
ATOM     16  O   UNL     1       1.453  -3.663  -1.345  0.00  0.00    -0.270 OA
ATOM     17  C   UNL     1       2.424  -1.334  -0.460  0.00  0.00    +0.111 C 
ENDBRANCH   1  15
BRANCH   7  18
ATOM     18  N   UNL     1       1.335  -5.542  -3.407  0.00  0.00    -0.285 N 
ATOM     19  H   UNL     1       1.683  -6.330  -3.941  0.00  0.00    +0.155 HD
ATOM     20  C   UNL     1       0.482  -5.948  -2.388  0.00  0.00    +0.218 C 
ATOM     21  O   UNL     1      -0.588  -5.421  -2.099  0.00  0.00    -0.275 OA
BRANCH  20  22
ATOM     22  C   UNL     1       0.968  -7.211  -1.696  0.00  0.00    +0.105 C 
BRANCH  22  23
ATOM     23  C   UNL     1      -0.192  -8.190  -1.582  0.00  0.00    +0.105 C 
BRANCH  23  24
ATOM     24  C   UNL     1      -0.762  -8.494  -2.960  0.00  0.00    +0.216 C 
ATOM     25  N   UNL     1      -2.089  -8.868  -3.019  0.00  0.00    -0.297 N 
ATOM     26  C   UNL     1      -2.898  -9.330  -1.889  0.00  0.00    +0.136 C 
ATOM     27  C   UNL     1      -3.457 -10.725  -2.195  0.00  0.00    +0.179 C 
ATOM     28  O   UNL     1      -4.189 -10.736  -3.432  0.00  0.00    -0.377 OA
ATOM     29  C   UNL     1      -3.347 -10.338  -4.530  0.00  0.00    +0.179 C 
ATOM     30  C   UNL     1      -2.781  -8.935  -4.305  0.00  0.00    +0.136 C 
ATOM     31  O   UNL     1      -0.056  -8.403  -3.968  0.00  0.00    -0.276 OA
ENDBRANCH  23  24
ENDBRANCH  22  23
ENDBRANCH  20  22
ENDBRANCH   7  18
TORSDOF 5
