REMARK  Name = 
REMARK  3 active torsions:
REMARK  status: ('A' for Active; 'I' for Inactive)
REMARK    1  A    between atoms: C_1  and  C_2
REMARK    2  A    between atoms: C_1  and  C_12
REMARK    3  A    between atoms: C_2  and  C_3
REMARK                            x       y       z     vdW  Elec       q    Type
REMARK                         _______ _______ _______ _____ _____    ______ ____
ROOT
ATOM      1  C   UNL     1      -1.130   1.366   0.541  0.00  0.00    -0.022 A 
ATOM      2  C   UNL     1      -1.910   1.077   1.706  0.00  0.00    +0.003 A 
ATOM      3  C   UNL     1      -3.253   1.161   1.339  0.00  0.00    +0.047 A 
ATOM      4  C   UNL     1      -4.300   0.935   2.240  0.00  0.00    +0.026 A 
ATOM      5  C   UNL     1      -3.962   0.612   3.557  0.00  0.00    +0.002 A 
ATOM      6  C   UNL     1      -2.630   0.518   3.954  0.00  0.00    +0.001 A 
ATOM      7  N   UNL     1      -3.289   1.488   0.004  0.00  0.00    -0.360 N 
ATOM      8  H   UNL     1      -4.136   1.614  -0.531  0.00  0.00    +0.165 HD
ATOM      9  C   UNL     1      -1.596   0.747   3.040  0.00  0.00    +0.010 A 
ATOM     10  C   UNL     1      -2.018   1.614  -0.487  0.00  0.00    +0.087 A 
ENDROOT
BRANCH   1  11
ATOM     11  C   UNL     1       0.364   1.388   0.441  0.00  0.00    +0.037 C 
BRANCH  11  12
ATOM     12  C   UNL     1       0.923   0.017   0.047  0.00  0.00    +0.008 C 
BRANCH  12  13
ATOM     13  C   UNL     1       2.461  -0.023  -0.084  0.00  0.00    -0.008 C 
ATOM     14  C   UNL     1       3.025   0.959  -1.122  0.00  0.00    +0.018 C 
ATOM     15  C   UNL     1       2.647   0.559  -2.547  0.00  0.00    +0.081 C 
ATOM     16  N   UNL     1       3.108  -0.793  -2.860  0.00  0.00    -0.316 NA
ATOM     17  H   UNL     1       2.808  -1.040  -3.803  0.00  0.00    +0.122 HD
ATOM     18  C   UNL     1       2.599  -1.790  -1.917  0.00  0.00    +0.081 C 
ATOM     19  C   UNL     1       2.936  -1.436  -0.466  0.00  0.00    +0.018 C 
ENDBRANCH  12  13
ENDBRANCH  11  12
ENDBRANCH   1  11
TORSDOF 3
