REMARK  Name = 
REMARK  2 active torsions:
REMARK  status: ('A' for Active; 'I' for Inactive)
REMARK    1  A    between atoms: O_1  and  C_2
REMARK    2  A    between atoms: C_6  and  C_10
REMARK                            x       y       z     vdW  Elec       q    Type
REMARK                         _______ _______ _______ _____ _____    ______ ____
ROOT
ATOM      1  C   UNL     1       2.374   0.339   0.028  0.00  0.00    +0.145 A 
ATOM      2  C   UNL     1       3.135   1.508   0.031  0.00  0.00    +0.061 A 
ATOM      3 BR   UNL     1       2.324   3.223   0.029  0.00  0.00    -0.046 Br
ATOM      4  C   UNL     1       4.531   1.438   0.038  0.00  0.00    +0.032 A 
ATOM      5  C   UNL     1       5.188   0.197   0.041  0.00  0.00    +0.039 A 
ATOM      6  C   UNL     1       4.415  -0.974   0.037  0.00  0.00    +0.032 A 
ATOM      7  C   UNL     1       3.019  -0.900   0.031  0.00  0.00    +0.061 A 
ATOM      8 BR   UNL     1       2.018  -2.511   0.026  0.00  0.00    -0.046 Br
ENDROOT
BRANCH   5   9
ATOM      9  C   UNL     1       6.647   0.108   0.047  0.00  0.00    +0.228 A 
ATOM     10  O   UNL     1       7.328   1.300   0.050  0.00  0.00    -0.435 OA
ATOM     11  C   UNL     1       8.639   0.933   0.055  0.00  0.00    +0.156 A 
ATOM     12  C   UNL     1       9.746   1.773   0.060  0.00  0.00    +0.048 A 
ATOM     13  C   UNL     1      10.990   1.133   0.065  0.00  0.00    +0.004 A 
ATOM     14  C   UNL     1      11.092  -0.264   0.065  0.00  0.00    +0.002 A 
ATOM     15  C   UNL     1       9.946  -1.077   0.060  0.00  0.00    +0.031 A 
ATOM     16  C   UNL     1       8.693  -0.450   0.055  0.00  0.00    +0.110 A 
ATOM     17  N   UNL     1       7.419  -0.965   0.050  0.00  0.00    -0.209 NA
ENDBRANCH   5   9
BRANCH   1  18
ATOM     18  O   UNL     1       1.007   0.425   0.022  0.00  0.00    -0.505 OA
ATOM     19  H   UNL     1       0.648  -0.481   0.019  0.00  0.00    +0.292 HD
ENDBRANCH   1  18
TORSDOF 2
