REMARK  Name = 
REMARK  5 active torsions:
REMARK  status: ('A' for Active; 'I' for Inactive)
REMARK    1  A    between atoms: C_2  and  N_24
REMARK    2  A    between atoms: C_6  and  N_8
REMARK    3  A    between atoms: C_9  and  C_11
REMARK    4  A    between atoms: C_14  and  N_17
REMARK    5  A    between atoms: C_25  and  C_27
REMARK                            x       y       z     vdW  Elec       q    Type
REMARK                         _______ _______ _______ _____ _____    ______ ____
ROOT
ATOM      1  N   UNL     1       2.813  -2.451  -0.338  0.00  0.00    -0.307 N 
ATOM      2  H   UNL     1       3.777  -2.560  -0.641  0.00  0.00    +0.149 HD
ATOM      3  C   UNL     1       1.835  -2.897  -1.205  0.00  0.00    +0.244 C 
ATOM      4  O   UNL     1       0.685  -2.475  -1.221  0.00  0.00    -0.270 OA
ENDROOT
BRANCH   3   5
ATOM      5  C   UNL     1       2.291  -3.879  -2.222  0.00  0.00    +0.037 A 
ATOM      6  C   UNL     1       1.780  -3.819  -3.516  0.00  0.00    +0.015 A 
ATOM      7  C   UNL     1       2.248  -4.706  -4.498  0.00  0.00    +0.027 A 
ATOM      8  C   UNL     1       3.232  -5.677  -4.217  0.00  0.00    +0.049 A 
ATOM      9  C   UNL     1       3.690  -5.741  -2.890  0.00  0.00    +0.027 A 
ATOM     10  C   UNL     1       3.229  -4.859  -1.903  0.00  0.00    +0.015 A 
BRANCH   8  11
ATOM     11  N   UNL     1       3.757  -6.543  -5.264  0.00  0.00    -0.284 N 
ATOM     12  C   UNL     1       4.399  -7.765  -4.931  0.00  0.00    +0.256 A 
ATOM     13  O   UNL     1       4.552  -8.252  -3.812  0.00  0.00    -0.267 OA
ATOM     14  C   UNL     1       4.920  -8.579  -6.070  0.00  0.00    +0.071 A 
ATOM     15  C   UNL     1       4.765  -8.180  -7.335  0.00  0.00    +0.007 A 
ATOM     16  C   UNL     1       4.116  -6.934  -7.613  0.00  0.00    +0.018 A 
ATOM     17  C   UNL     1       3.650  -6.178  -6.611  0.00  0.00    +0.095 A 
ENDBRANCH   8  11
ENDBRANCH   3   5
BRANCH   1  19
ATOM     18  C   UNL     1       2.183  -0.006  -0.168  0.00  0.00    +0.093 C 
ATOM     19  C   UNL     1       2.565  -1.326   0.545  0.00  0.00    +0.093 C 
ATOM     20  C   UNL     1       3.766  -0.978   1.446  0.00  0.00    +0.024 C 
ATOM     21  C   UNL     1       3.921   0.544   1.404  0.00  0.00    +0.004 C 
ATOM     22  C   UNL     1       2.623   1.071   0.818  0.00  0.00    +0.024 C 
BRANCH  18  23
ATOM     23  N   UNL     1       2.707   0.201  -1.520  0.00  0.00    -0.306 N 
ATOM     24  H   UNL     1       2.041   0.559  -2.193  0.00  0.00    +0.149 HD
ATOM     25  C   UNL     1       3.938  -0.161  -2.018  0.00  0.00    +0.251 C 
ATOM     26  O   UNL     1       4.814  -0.681  -1.331  0.00  0.00    -0.270 OA
BRANCH  25  27
ATOM     27  C   UNL     1       4.115   0.059  -3.448  0.00  0.00    +0.075 A 
ATOM     28  S   UNL     1       2.902   0.785  -4.426  0.00  0.00    -0.072 S 
ATOM     29  C   UNL     1       3.854   0.639  -5.814  0.00  0.00    +0.079 A 
ATOM     30 CL   UNL     1       3.251   1.201  -7.319  0.00  0.00    -0.076 Cl
ATOM     31  C   UNL     1       5.071   0.055  -5.585  0.00  0.00    +0.028 A 
ATOM     32  C   UNL     1       5.222  -0.285  -4.208  0.00  0.00    +0.022 A 
ENDBRANCH  25  27
ENDBRANCH  18  23
ENDBRANCH   1  19
TORSDOF 5
