REMARK  Name = 
REMARK  1 active torsions:
REMARK  status: ('A' for Active; 'I' for Inactive)
REMARK    1  A    between atoms: C_9  and  C_10
REMARK                            x       y       z     vdW  Elec       q    Type
REMARK                         _______ _______ _______ _____ _____    ______ ____
ROOT
ATOM      1  N   UNL     1       1.374   0.246   0.131  0.00  0.00    -0.327 N 
ATOM      2  H   UNL     1       0.974  -0.606  -0.225  0.00  0.00    +0.145 HD
ATOM      3  H   UNL     1       1.044   1.118  -0.257  0.00  0.00    +0.145 HD
ATOM      4  C   UNL     1       2.750   0.181   0.088  0.00  0.00    +0.214 A 
ATOM      5  N   UNL     1       3.275  -1.043   0.068  0.00  0.00    -0.222 NA
ATOM      6  C   UNL     1       4.609  -1.103   0.069  0.00  0.00    +0.126 A 
ATOM      7  C   UNL     1       5.411   0.019   0.078  0.00  0.00    +0.038 A 
ATOM      8  C   UNL     1       6.801  -0.052   0.112  0.00  0.00    +0.025 A 
ATOM      9  C   UNL     1       7.593   1.107   0.118  0.00  0.00    +0.023 A 
ATOM     10  C   UNL     1       6.895   2.335   0.027  0.00  0.00    +0.132 A 
ATOM     11  N   UNL     1       7.564   3.550  -0.079  0.00  0.00    -0.307 N 
ATOM     12  C   UNL     1       8.381   4.009   1.049  0.00  0.00    +0.134 C 
ATOM     13  C   UNL     1       8.424   5.487   0.827  0.00  0.00    -0.011 C 
ATOM     14  C   UNL     1       7.605   5.852  -0.165  0.00  0.00    -0.011 C 
ATOM     15  C   UNL     1       6.887   4.671  -0.735  0.00  0.00    +0.134 C 
ATOM     16  N   UNL     1       5.526   2.367  -0.017  0.00  0.00    -0.212 NA
ATOM     17  C   UNL     1       4.781   1.248   0.034  0.00  0.00    +0.167 A 
ATOM     18  N   UNL     1       3.447   1.319   0.038  0.00  0.00    -0.195 NA
ENDROOT
BRANCH   9  19
ATOM     19  C   UNL     1       9.069   0.912   0.117  0.00  0.00    -0.015 A 
ATOM     20  C   UNL     1       9.656  -0.132   0.866  0.00  0.00    +0.008 A 
ATOM     21  C   UNL     1      11.016  -0.435   0.770  0.00  0.00    +0.001 A 
ATOM     22  C   UNL     1      11.840   0.340  -0.036  0.00  0.00    +0.000 A 
ATOM     23  C   UNL     1      11.303   1.411  -0.743  0.00  0.00    +0.001 A 
ATOM     24  C   UNL     1       9.931   1.674  -0.687  0.00  0.00    +0.008 A 
ENDBRANCH   9  19
TORSDOF 1
