REMARK  Name = 
REMARK  9 active torsions:
REMARK  status: ('A' for Active; 'I' for Inactive)
REMARK    1  A    between atoms: CA_2  and  CB_3
REMARK    2  A    between atoms: CA_2  and  N_7
REMARK    3  A    between atoms: CA_2  and  C_25
REMARK    4  A    between atoms: CB_3  and  CG_4
REMARK    5  A    between atoms: CG_4  and  OD1_5
REMARK    6  A    between atoms: C_8  and  C_10
REMARK    7  A    between atoms: C_14  and  C_16
REMARK    8  A    between atoms: C_19  and  C_22
REMARK    9  A    between atoms: C_22  and  O_23
REMARK                            x       y       z     vdW  Elec       q    Type
REMARK                         _______ _______ _______ _____ _____    ______ ____
ROOT
ATOM      1  C   UNK A   0       2.711   0.485   3.869  0.00  0.00    +0.055 A 
ATOM      2  C   UNK A   0       2.787  -0.813   4.388  0.00  0.00    +0.024 A 
ATOM      3  C   UNK A   0       3.264  -1.033   5.691  0.00  0.00    +0.001 A 
ATOM      4  C   UNK A   0       3.648   0.116   6.395  0.00  0.00    +0.119 A 
ATOM      5  N   UNK A   0       3.599   1.386   5.920  0.00  0.00    -0.262 NA
ATOM      6  C   UNK A   0       3.145   1.538   4.659  0.00  0.00    +0.123 A 
ENDROOT
BRANCH   3   7
ATOM      7  C   UNK A   0       3.382  -2.384   6.282  0.00  0.00    -0.016 A 
ATOM      8  C   UNK A   0       3.712  -3.503   5.495  0.00  0.00    +0.009 A 
ATOM      9  C   UNK A   0       3.881  -4.772   6.063  0.00  0.00    +0.015 A 
ATOM     10  C   UNK A   0       3.737  -4.952   7.440  0.00  0.00    +0.059 A 
ATOM     11  C   UNK A   0       3.364  -3.869   8.238  0.00  0.00    +0.015 A 
ATOM     12  C   UNK A   0       3.190  -2.604   7.661  0.00  0.00    +0.009 A 
BRANCH  10  13
ATOM     13  C   UNK A   0       3.960  -6.308   7.998  0.00  0.00    +0.337 C 
ATOM     14  O   UNK A   0       3.729  -7.329   7.375  0.00  0.00    -0.245 OA
BRANCH  13  15
ATOM     15  O   UNK A   0       4.496  -6.304   9.238  0.00  0.00    -0.477 OA
ATOM     16  H   UNK A   0       4.815  -5.437   9.548  0.00  0.00    +0.295 HD
ENDBRANCH  13  15
ENDBRANCH  10  13
ENDBRANCH   3   7
BRANCH   1  19
ATOM     17  N   ASP A   1       1.455   1.857   2.319  0.00  0.00    -0.301 N 
ATOM     18  H   ASP A   1       1.308   2.497   3.088  0.00  0.00    +0.150 HD
ATOM     19  C   UNK A   0       2.193   0.708   2.504  0.00  0.00    +0.246 C 
ATOM     20  O   UNK A   0       2.408  -0.108   1.616  0.00  0.00    -0.270 OA
BRANCH  17  21
ATOM     21  CA  ASP A   1       0.901   2.198   1.017  0.00  0.00    +0.147 C 
BRANCH  21  22
ATOM     22  C   ASP A   1       1.980   2.958   0.258  0.00  0.00    +0.246 C 
ATOM     23  O   ASP A   1       2.693   3.821   0.765  0.00  0.00    -0.299 OA
ENDBRANCH  21  22
BRANCH  21  24
ATOM     24  CB  ASP A   1      -0.326   3.101   1.108  0.00  0.00    +0.150 C 
BRANCH  24  25
ATOM     25  CG  ASP A   1      -1.487   2.432   1.797  0.00  0.00    +0.307 C 
ATOM     26  OD2 ASP A   1      -1.475   1.315   2.288  0.00  0.00    -0.251 OA
BRANCH  25  27
ATOM     27  OD1 ASP A   1      -2.584   3.223   1.843  0.00  0.00    -0.481 OA
ATOM     28  HD1 ASP A   1      -2.479   4.101   1.431  0.00  0.00    +0.295 HD
ENDBRANCH  25  27
ENDBRANCH  24  25
ENDBRANCH  21  24
ENDBRANCH  17  21
ENDBRANCH   1  19
TORSDOF 9
