REMARK  Name = 
REMARK  3 active torsions:
REMARK  status: ('A' for Active; 'I' for Inactive)
REMARK    1  A    between atoms: O_1  and  C_2
REMARK    2  A    between atoms: C_6  and  O_7
REMARK    3  A    between atoms: O_7  and  C_8
REMARK                            x       y       z     vdW  Elec       q    Type
REMARK                         _______ _______ _______ _____ _____    ______ ____
ROOT
ATOM      1  C   UNL     1       2.311   0.120   0.025  0.00  0.00    +0.145 A 
ATOM      2  C   UNL     1       2.952  -1.107  -0.159  0.00  0.00    +0.064 A 
ATOM      3 BR   UNL     1       1.970  -2.708  -0.423  0.00  0.00    -0.046 Br
ATOM      4  C   UNL     1       4.348  -1.183  -0.136  0.00  0.00    +0.065 A 
ATOM      5  C   UNL     1       5.105  -0.040   0.132  0.00  0.00    +0.131 A 
ATOM      6  C   UNL     1       4.466   1.194   0.276  0.00  0.00    +0.065 A 
ATOM      7  C   UNL     1       3.075   1.274   0.218  0.00  0.00    +0.064 A 
ATOM      8 BR   UNL     1       2.247   2.968   0.409  0.00  0.00    -0.046 Br
ENDROOT
BRANCH   1   9
ATOM      9  O   UNL     1       0.942   0.177   0.010  0.00  0.00    -0.505 OA
ATOM     10  H   UNL     1       0.678   1.101   0.173  0.00  0.00    +0.292 HD
ENDBRANCH   1   9
BRANCH   5  11
ATOM     11  O   UNL     1       6.479  -0.001   0.200  0.00  0.00    -0.456 OA
BRANCH  11  12
ATOM     12  C   UNL     1       7.200  -1.086   0.638  0.00  0.00    +0.128 A 
ATOM     13  C   UNL     1       6.774  -1.998   1.607  0.00  0.00    +0.046 A 
ATOM     14  C   UNL     1       7.594  -3.071   1.964  0.00  0.00    +0.004 A 
ATOM     15  C   UNL     1       8.860  -3.204   1.399  0.00  0.00    +0.000 A 
ATOM     16  C   UNL     1       9.315  -2.259   0.481  0.00  0.00    +0.004 A 
ATOM     17  C   UNL     1       8.486  -1.202   0.104  0.00  0.00    +0.046 A 
ENDBRANCH  11  12
ENDBRANCH   5  11
TORSDOF 3
