REMARK  Name = 
REMARK  4 active torsions:
REMARK  status: ('A' for Active; 'I' for Inactive)
REMARK    1  A    between atoms: N_1  and  C_7
REMARK    2  A    between atoms: C_10  and  N_11
REMARK    3  A    between atoms: N_11  and  C_12
REMARK    4  A    between atoms: C_15  and  N_16
REMARK                            x       y       z     vdW  Elec       q    Type
REMARK                         _______ _______ _______ _____ _____    ______ ____
ROOT
ATOM      1  N   UNL     1       6.625  -0.176  -0.309  0.00  0.00    -0.314 N 
ATOM      2  H   UNL     1       6.975   0.635  -0.811  0.00  0.00    +0.152 HD
ENDROOT
BRANCH   1   6
ATOM      3  C   UNL     1       2.459   0.416   0.321  0.00  0.00    +0.034 A 
ATOM      4  C   UNL     1       2.918  -0.687  -0.417  0.00  0.00    +0.025 A 
ATOM      5  C   UNL     1       4.289  -0.935  -0.593  0.00  0.00    +0.025 A 
ATOM      6  C   UNL     1       5.241  -0.058  -0.070  0.00  0.00    +0.031 A 
ATOM      7  C   UNL     1       4.793   1.026   0.684  0.00  0.00    +0.025 A 
ATOM      8  C   UNL     1       3.425   1.243   0.898  0.00  0.00    +0.025 A 
BRANCH   3   9
ATOM      9  N   UNL     1       1.068   0.664   0.359  0.00  0.00    -0.285 N 
ATOM     10  H   UNL     1       0.516  -0.170   0.178  0.00  0.00    +0.155 HD
ATOM     11  C   UNL     1       0.369   1.642   0.969  0.00  0.00    +0.197 A 
ATOM     12  N   UNL     1       0.827   2.926   1.120  0.00  0.00    -0.333 N 
ATOM     13  H   UNL     1       1.694   3.280   0.750  0.00  0.00    +0.168 HD
ATOM     14  C   UNL     1      -0.093   3.625   1.851  0.00  0.00    +0.105 A 
ATOM     15  C   UNL     1      -1.145   2.756   2.003  0.00  0.00    +0.132 A 
ATOM     16  N   UNL     1      -0.859   1.544   1.427  0.00  0.00    -0.223 NA
ENDBRANCH   3   9
ENDBRANCH   1   6
BRANCH   1  17
ATOM     17  C   UNL     1       7.377  -1.339  -0.545  0.00  0.00    +0.031 A 
ATOM     18  C   UNL     1       7.131  -2.518   0.160  0.00  0.00    +0.025 A 
ATOM     19  C   UNL     1       7.892  -3.667  -0.077  0.00  0.00    +0.025 A 
ATOM     20  C   UNL     1       8.908  -3.684  -1.046  0.00  0.00    +0.034 A 
ATOM     21  C   UNL     1       9.174  -2.489  -1.721  0.00  0.00    +0.025 A 
ATOM     22  C   UNL     1       8.424  -1.330  -1.471  0.00  0.00    +0.025 A 
BRANCH  20  23
ATOM     23  N   UNL     1       9.570  -4.905  -1.296  0.00  0.00    -0.285 N 
ATOM     24  H   UNL     1       9.256  -5.645  -0.682  0.00  0.00    +0.155 HD
ATOM     25  C   UNL     1      10.434  -5.190  -2.295  0.00  0.00    +0.197 A 
ATOM     26  N   UNL     1      10.854  -6.489  -2.451  0.00  0.00    -0.333 N 
ATOM     27  H   UNL     1      10.563  -7.266  -1.880  0.00  0.00    +0.168 HD
ATOM     28  C   UNL     1      11.714  -6.539  -3.511  0.00  0.00    +0.105 A 
ATOM     29  C   UNL     1      11.767  -5.251  -3.980  0.00  0.00    +0.132 A 
ATOM     30  N   UNL     1      10.973  -4.431  -3.224  0.00  0.00    -0.223 NA
ENDBRANCH  20  23
ENDBRANCH   1  17
TORSDOF 4
