REMARK  Name = 
REMARK  5 active torsions:
REMARK  status: ('A' for Active; 'I' for Inactive)
REMARK    1  A    between atoms: O_1  and  C_2
REMARK    2  A    between atoms: C_2  and  C_4
REMARK    3  A    between atoms: C_4  and  C_5
REMARK    4  A    between atoms: C_5  and  C_6
REMARK    5  A    between atoms: C_6  and  N_7
REMARK                            x       y       z     vdW  Elec       q    Type
REMARK                         _______ _______ _______ _____ _____    ______ ____
ROOT
ATOM      1  N   UNL     1       7.014  -0.085  -2.141  0.00  0.00    -0.307 N 
ATOM      2  C   UNL     1       7.878  -1.139  -1.739  0.00  0.00    +0.260 A 
ATOM      3  O   UNL     1       7.500  -2.285  -1.528  0.00  0.00    -0.267 OA
ATOM      4  C   UNL     1       9.315  -0.813  -1.557  0.00  0.00    +0.047 A 
ATOM      5  C   UNL     1       9.817   0.313  -2.196  0.00  0.00    +0.000 A 
ATOM      6  C   UNL     1      11.185   0.554  -2.222  0.00  0.00    +0.009 A 
ATOM      7  C   UNL     1      11.968  -0.046  -1.248  0.00  0.00    +0.001 A 
ATOM      8  C   UNL     1      11.439  -1.071  -0.463  0.00  0.00    +0.001 A 
ATOM      9  C   UNL     1       8.860   1.378  -2.453  0.00  0.00    +0.054 A 
ATOM     10  C   UNL     1       9.145   2.824  -2.320  0.00  0.00    +0.196 C 
ATOM     11  C   UNL     1       7.854   3.479  -2.264  0.00  0.00    +0.031 A 
ATOM     12  C   UNL     1       6.864   2.498  -2.383  0.00  0.00    +0.010 A 
ATOM     13  C   UNL     1       5.551   2.938  -2.421  0.00  0.00    +0.011 A 
ATOM     14  C   UNL     1       5.278   4.318  -2.319  0.00  0.00    +0.001 A 
ATOM     15  C   UNL     1       6.305   5.258  -2.156  0.00  0.00    +0.001 A 
ATOM     16  C   UNL     1       7.625   4.838  -2.118  0.00  0.00    +0.012 A 
ATOM     17  O   UNL     1      10.221   3.375  -2.201  0.00  0.00    -0.287 OA
ATOM     18  C   UNL     1      10.144  -1.543  -0.706  0.00  0.00    +0.014 A 
ATOM     19  C   UNL     1       7.527   1.194  -2.385  0.00  0.00    +0.064 A 
ENDROOT
BRANCH   1  20
ATOM     20  C   UNL     1       5.599  -0.413  -2.277  0.00  0.00    +0.126 C 
BRANCH  20  21
ATOM     21  C   UNL     1       5.181  -0.643  -3.733  0.00  0.00    +0.033 C 
BRANCH  21  22
ATOM     22  C   UNL     1       5.856  -1.866  -4.349  0.00  0.00    +0.122 C 
BRANCH  22  23
ATOM     23  C   UNL     1       5.419  -2.090  -5.781  0.00  0.00    +0.305 C 
ATOM     24  O   UNL     1       4.650  -1.369  -6.399  0.00  0.00    -0.251 OA
BRANCH  23  25
ATOM     25  O   UNL     1       5.988  -3.198  -6.319  0.00  0.00    -0.481 OA
ATOM     26  H   UNL     1       6.569  -3.682  -5.696  0.00  0.00    +0.295 HD
ENDBRANCH  23  25
ENDBRANCH  22  23
ENDBRANCH  21  22
ENDBRANCH  20  21
ENDBRANCH   1  20
TORSDOF 5
