REMARK  Name = 
REMARK  10 active torsions:
REMARK  status: ('A' for Active; 'I' for Inactive)
REMARK    1  A    between atoms: C_2  and  N_3
REMARK    2  A    between atoms: C_2  and  C_4
REMARK    3  A    between atoms: C_2  and  C_11
REMARK    4  A    between atoms: C_4  and  C_5
REMARK    5  A    between atoms: C_11  and  O_13
REMARK    6  A    between atoms: C_11  and  C_14
REMARK    7  A    between atoms: C_14  and  O_16
REMARK    8  A    between atoms: O_16  and  C_17
REMARK    9  A    between atoms: C_17  and  C_18
REMARK   10  A    between atoms: C_17  and  C_19
REMARK                            x       y       z     vdW  Elec       q    Type
REMARK                         _______ _______ _______ _____ _____    ______ ____
ROOT
ATOM      1  C   UNL     1       2.068  -0.178  -0.142  0.00  0.00    +0.091 C 
ENDROOT
BRANCH   1   2
ATOM      2  N   UNL     1       0.592  -0.134  -0.052  0.00  0.00    -0.325 NA
ATOM      3  H   UNL     1       0.191  -0.772  -0.743  0.00  0.00    +0.119 HD
ATOM      4  H   UNL     1       0.314  -0.531   0.851  0.00  0.00    +0.119 HD
ENDBRANCH   1   2
BRANCH   1   5
ATOM      5  C   UNL     1       2.640  -1.514   0.404  0.00  0.00    +0.239 C 
BRANCH   5   6
ATOM      6  C   UNL     1       2.203  -2.719  -0.444  0.00  0.00    +0.338 C 
ATOM      7  O   UNL     1       1.620  -3.705  -0.015  0.00  0.00    -0.248 OA
BRANCH   6   8
ATOM      8  O   UNL     1       2.577  -2.558  -1.749  0.00  0.00    -0.460 OA
BRANCH   8   9
ATOM      9  C   UNL     1       2.163  -3.616  -2.641  0.00  0.00    +0.170 C 
ATOM     10  C   UNL     1       3.057  -3.557  -3.872  0.00  0.00    +0.052 C 
ATOM     11  C   UNL     1       0.702  -3.418  -3.029  0.00  0.00    +0.052 C 
ENDBRANCH   8   9
ENDBRANCH   6   8
ENDBRANCH   5   6
BRANCH   5  12
ATOM     12  O   UNL     1       2.245  -1.684   1.771  0.00  0.00    -0.379 OA
ATOM     13  H   UNL     1       2.661  -0.981   2.295  0.00  0.00    +0.211 HD
ENDBRANCH   5  12
ENDBRANCH   1   5
BRANCH   1  14
ATOM     14  C   UNL     1       2.589   1.066   0.632  0.00  0.00    +0.025 C 
BRANCH  14  15
ATOM     15  C   UNL     1       4.125   1.259   0.599  0.00  0.00    -0.009 C 
ATOM     16  C   UNL     1       4.578   2.416   1.512  0.00  0.00    +0.003 C 
ATOM     17  C   UNL     1       4.286   3.804   0.944  0.00  0.00    +0.000 C 
ATOM     18  C   UNL     1       4.795   3.960  -0.486  0.00  0.00    +0.000 C 
ATOM     19  C   UNL     1       4.295   2.839  -1.391  0.00  0.00    +0.000 C 
ATOM     20  C   UNL     1       4.671   1.473  -0.822  0.00  0.00    +0.003 C 
ENDBRANCH  14  15
ENDBRANCH   1  14
TORSDOF 8
