REMARK  Name = 
REMARK  5 active torsions:
REMARK  status: ('A' for Active; 'I' for Inactive)
REMARK    1  A    between atoms: C_4  and  N_5
REMARK    2  A    between atoms: C_6  and  N_7
REMARK    3  A    between atoms: C_9  and  O_10
REMARK    4  A    between atoms: O_10  and  C_11
REMARK    5  A    between atoms: C_11  and  C_12
REMARK                            x       y       z     vdW  Elec       q    Type
REMARK                         _______ _______ _______ _____ _____    ______ ____
ROOT
ATOM      1  N   UNL     1       0.969  -0.690   1.469  0.00  0.00    -0.327 N 
ATOM      2  H   UNL     1       0.736  -1.657   1.652  0.00  0.00    +0.145 HD
ATOM      3  H   UNL     1       0.599   0.000   2.104  0.00  0.00    +0.145 HD
ATOM      4  C   UNL     1       2.330  -0.534   1.317  0.00  0.00    +0.217 A 
ATOM      5  N   UNL     1       3.052  -1.597   0.952  0.00  0.00    -0.178 NA
ATOM      6  C   UNL     1       4.380  -1.382   0.827  0.00  0.00    +0.251 A 
ATOM      7  C   UNL     1       5.010  -0.160   1.048  0.00  0.00    +0.208 A 
ATOM      8  C   UNL     1       4.151   0.854   1.457  0.00  0.00    +0.154 A 
ATOM      9  N   UNL     1       2.824   0.676   1.598  0.00  0.00    -0.198 NA
ENDROOT
BRANCH   8  10
ATOM     10  N   UNL     1       4.610   2.125   1.837  0.00  0.00    -0.341 N 
ATOM     11  H   UNL     1       5.255   2.526   1.165  0.00  0.00    +0.144 HD
ATOM     12  H   UNL     1       3.808   2.720   2.026  0.00  0.00    +0.144 HD
ENDBRANCH   8  10
BRANCH   7  13
ATOM     13  N   UNL     1       6.375   0.047   0.940  0.00  0.00    -0.022 NA
ATOM     14  O   UNL     1       6.837  -0.329  -0.144  0.00  0.00    -0.143 OA
ENDBRANCH   7  13
BRANCH   6  15
ATOM     15  O   UNL     1       5.204  -2.434   0.500  0.00  0.00    -0.474 OA
BRANCH  15  16
ATOM     16  C   UNL     1       4.640  -3.724   0.277  0.00  0.00    +0.234 C 
BRANCH  16  17
ATOM     17  C   UNL     1       5.846  -4.609  -0.107  0.00  0.00    +0.027 C 
ATOM     18  C   UNL     1       5.446  -5.983  -0.656  0.00  0.00    +0.007 C 
ATOM     19  C   UNL     1       5.179  -7.024   0.422  0.00  0.00    +0.000 C 
ATOM     20  C   UNL     1       6.378  -7.154   1.350  0.00  0.00    +0.000 C 
ATOM     21  C   UNL     1       6.661  -5.823   2.035  0.00  0.00    +0.000 C 
ATOM     22  C   UNL     1       6.896  -4.701   1.027  0.00  0.00    +0.007 C 
ENDBRANCH  16  17
ENDBRANCH  15  16
ENDBRANCH   6  15
TORSDOF 5
