REMARK  Name = 
REMARK  2 active torsions:
REMARK  status: ('A' for Active; 'I' for Inactive)
REMARK    1  A    between atoms: C_2  and  N_3
REMARK    2  A    between atoms: C_12  and  O_14
REMARK                            x       y       z     vdW  Elec       q    Type
REMARK                         _______ _______ _______ _____ _____    ______ ____
ROOT
ATOM      1  C   UNL     1       2.076   0.042  -0.094  0.00  0.00    +0.084 C 
ATOM      2  C   UNL     1       2.622   1.364   0.513  0.00  0.00    +0.161 C 
ATOM      3  C   UNL     1       4.119   1.335   0.752  0.00  0.00    -0.014 A 
ATOM      4  C   UNL     1       4.827   0.122   0.858  0.00  0.00    -0.042 A 
ATOM      5  C   UNL     1       6.212   0.152   1.079  0.00  0.00    +0.004 A 
ATOM      6  C   UNL     1       6.886   1.365   1.220  0.00  0.00    +0.000 A 
ATOM      7  C   UNL     1       6.183   2.564   1.144  0.00  0.00    +0.000 A 
ATOM      8  C   UNL     1       4.150  -1.215   0.674  0.00  0.00    +0.037 C 
ATOM      9  C   UNL     1       4.808   2.549   0.914  0.00  0.00    +0.006 A 
ATOM     10  C   UNL     1       2.624  -1.146   0.708  0.00  0.00    +0.026 C 
ENDROOT
BRANCH   1  11
ATOM     11  N   UNL     1       2.369  -0.097  -1.533  0.00  0.00    -0.325 NA
ATOM     12  H   UNL     1       3.371   0.009  -1.694  0.00  0.00    +0.119 HD
ATOM     13  H   UNL     1       2.121  -1.035  -1.845  0.00  0.00    +0.119 HD
ENDBRANCH   1  11
BRANCH   2  14
ATOM     14  O   UNL     1       1.959   1.609   1.759  0.00  0.00    -0.386 OA
ATOM     15  H   UNL     1       2.595   1.424   2.471  0.00  0.00    +0.210 HD
ENDBRANCH   2  14
TORSDOF 2
