REMARK  Name = 
REMARK  9 active torsions:
REMARK  status: ('A' for Active; 'I' for Inactive)
REMARK    1  A    between atoms: C_1  and  C_2
REMARK    2  A    between atoms: C_4  and  C_13
REMARK    3  A    between atoms: C_6  and  C_7
REMARK    4  A    between atoms: C_8  and  O_9
REMARK    5  A    between atoms: O_9  and  C_10
REMARK    6  A    between atoms: C_10  and  C_11
REMARK    7  A    between atoms: C_11  and  N_12
REMARK    8  A    between atoms: N_15  and  C_16
REMARK    9  A    between atoms: C_21  and  N_23
REMARK                            x       y       z     vdW  Elec       q    Type
REMARK                         _______ _______ _______ _____ _____    ______ ____
ROOT
ATOM      1  C   UNL     1       5.337   2.601   0.138  0.00  0.00    +0.248 C 
ATOM      2  N   UNL     1       6.719   2.735   0.105  0.00  0.00    -0.281 N 
ATOM      3  H   UNL     1       7.277   1.895   0.012  0.00  0.00    +0.155 HD
ATOM      4  O   UNL     1       4.530   3.525   0.239  0.00  0.00    -0.270 OA
ENDROOT
BRANCH   1  11
ATOM      5  C   UNL     1       1.373   0.092  -1.295  0.00  0.00    +0.047 C 
ATOM      6  C   UNL     1       2.747  -0.030  -0.694  0.00  0.00    -0.008 A 
ATOM      7  C   UNL     1       3.316  -1.202  -0.167  0.00  0.00    +0.126 A 
ATOM      8  C   UNL     1       4.581  -1.134   0.481  0.00  0.00    -0.008 A 
ATOM      9  C   UNL     1       5.164  -2.368   1.123  0.00  0.00    +0.047 C 
ATOM     10  C   UNL     1       5.291   0.086   0.561  0.00  0.00    +0.020 A 
ATOM     11  C   UNL     1       4.744   1.240   0.012  0.00  0.00    +0.038 A 
ATOM     12  C   UNL     1       3.485   1.166  -0.606  0.00  0.00    +0.020 A 
BRANCH   7  13
ATOM     13  O   UNL     1       2.746  -2.452  -0.136  0.00  0.00    -0.490 OA
BRANCH  13  14
ATOM     14  C   UNL     1       1.844  -2.822  -1.180  0.00  0.00    +0.244 C 
BRANCH  14  15
ATOM     15  C   UNL     1       1.863  -4.344  -1.385  0.00  0.00    +0.119 C 
BRANCH  15  16
ATOM     16  N   UNL     1       1.402  -5.089  -0.213  0.00  0.00    -0.327 NA
ATOM     17  H   UNL     1       1.539  -6.086  -0.373  0.00  0.00    +0.118 HD
ATOM     18  H   UNL     1       1.996  -4.839   0.580  0.00  0.00    +0.118 HD
ENDBRANCH  15  16
ENDBRANCH  14  15
ENDBRANCH  13  14
ENDBRANCH   7  13
ENDBRANCH   1  11
BRANCH   2  19
ATOM     19  C   UNL     1       7.429   3.975   0.115  0.00  0.00    +0.037 A 
ATOM     20  C   UNL     1       8.840   3.961   0.073  0.00  0.00    +0.046 A 
ATOM     21  C   UNL     1       9.618   5.145   0.066  0.00  0.00    +0.033 A 
ATOM     22  C   UNL     1       8.911   6.356   0.111  0.00  0.00    +0.043 A 
ATOM     23  C   UNL     1       7.521   6.389   0.139  0.00  0.00    +0.044 A 
ATOM     24 CL   UNL     1       6.707   7.907   0.171  0.00  0.00    -0.083 Cl
ATOM     25  C   UNL     1       6.784   5.212   0.145  0.00  0.00    +0.043 A 
BRANCH  21  26
ATOM     26  N   UNL     1      11.005   5.144   0.032  0.00  0.00    -0.330 N 
ATOM     27  C   UNL     1      11.816   4.023   0.509  0.00  0.00    +0.105 C 
ATOM     28  C   UNL     1      12.853   4.541   1.513  0.00  0.00    +0.019 C 
ATOM     29  C   UNL     1      13.682   5.691   0.941  0.00  0.00    +0.003 C 
ATOM     30  C   UNL     1      12.778   6.797   0.401  0.00  0.00    +0.019 C 
ATOM     31  C   UNL     1      11.770   6.232  -0.599  0.00  0.00    +0.105 C 
ENDBRANCH  21  26
ENDBRANCH   2  19
TORSDOF 7
