REMARK  Name = 
REMARK  3 active torsions:
REMARK  status: ('A' for Active; 'I' for Inactive)
REMARK    1  A    between atoms: OD_1  and  CG_2
REMARK    2  A    between atoms: CA_6  and  C_8
REMARK    3  A    between atoms: C_8  and  O_9
REMARK                            x       y       z     vdW  Elec       q    Type
REMARK                         _______ _______ _______ _____ _____    ______ ____
ROOT
ATOM      1  CG  HYP A   1       2.532   0.033   0.045  0.00  0.00    +0.130 C 
ATOM      2  CB  HYP A   1       3.055  -1.250   0.674  0.00  0.00    +0.062 C 
ATOM      3  CA  HYP A   1       4.307  -0.835   1.444  0.00  0.00    +0.166 C 
ATOM      4  N   HYP A   1       4.505   0.629   1.183  0.00  0.00    -0.302 NA
ATOM      5  H   HYP A   1       4.839   1.077   2.043  0.00  0.00    +0.123 HD
ATOM      6  CD  HYP A   1       3.150   1.138   0.893  0.00  0.00    +0.113 C 
ENDROOT
BRANCH   1   7
ATOM      7  OD  HYP A   1       2.982   0.128  -1.304  0.00  0.00    -0.390 OA
ATOM      8  HD  HYP A   1       3.948   0.255  -1.281  0.00  0.00    +0.210 HD
ENDBRANCH   1   7
BRANCH   3   9
ATOM      9  C   HYP A   1       5.545  -1.604   0.973  0.00  0.00    +0.322 C 
ATOM     10  OXT HYP A   1       5.703  -2.810   1.083  0.00  0.00    -0.249 OA
BRANCH   9  11
ATOM     11  O   HYP A   1       6.463  -0.779   0.406  0.00  0.00    -0.480 OA
ATOM     12  H   HYP A   1       6.075   0.129   0.437  0.00  0.00    +0.295 HD
ENDBRANCH   9  11
ENDBRANCH   3   9
TORSDOF 3
