REMARK  Name = 
REMARK  6 active torsions:
REMARK  status: ('A' for Active; 'I' for Inactive)
REMARK    1  A    between atoms: C_1  and  C_2
REMARK    2  A    between atoms: C_4  and  C_5
REMARK    3  A    between atoms: C_5  and  C_6
REMARK    4  A    between atoms: C_6  and  C_7
REMARK    5  A    between atoms: C_7  and  N_8
REMARK    6  A    between atoms: N_8  and  O_9
REMARK                            x       y       z     vdW  Elec       q    Type
REMARK                         _______ _______ _______ _____ _____    ______ ____
ROOT
ATOM      1  C   UNL     1       5.349  -2.521   0.039  0.00  0.00    +0.057 C 
ENDROOT
BRANCH   1   7
ATOM      2  C   UNL     1       3.436   1.316  -2.284  0.00  0.00    +0.065 C 
ATOM      3  C   UNL     1       3.727   0.630  -0.982  0.00  0.00    +0.039 A 
ATOM      4  C   UNL     1       3.376   1.237   0.218  0.00  0.00    +0.023 A 
ATOM      5  C   UNL     1       3.666   0.580   1.409  0.00  0.00    +0.003 A 
ATOM      6  C   UNL     1       4.306  -0.654   1.368  0.00  0.00    +0.023 A 
ATOM      7  C   UNL     1       4.647  -1.190   0.131  0.00  0.00    +0.042 A 
ATOM      8  N   UNL     1       4.355  -0.570  -1.038  0.00  0.00    -0.257 NA
ENDBRANCH   1   7
BRANCH   1   9
ATOM      9  C   UNL     1       4.350  -3.667  -0.094  0.00  0.00    +0.028 C 
BRANCH   9  10
ATOM     10  C   UNL     1       5.063  -5.013  -0.194  0.00  0.00    +0.140 C 
BRANCH  10  11
ATOM     11  N   UNL     1       4.116  -6.118  -0.289  0.00  0.00    -0.186 N 
ATOM     12  C   UNL     1       4.522  -7.408   0.003  0.00  0.00    +0.352 C 
ATOM     13  O   UNL     1       5.497  -7.725   0.672  0.00  0.00    -0.277 OA
BRANCH  11  14
ATOM     14  O   UNL     1       3.343  -6.059  -1.476  0.00  0.00    -0.293 OA
ATOM     15  H   UNL     1       2.515  -5.660  -1.147  0.00  0.00    +0.242 HD
ENDBRANCH  11  14
ENDBRANCH  10  11
ENDBRANCH   9  10
ENDBRANCH   1   9
TORSDOF 5
