REMARK  Name = 
REMARK  6 active torsions:
REMARK  status: ('A' for Active; 'I' for Inactive)
REMARK    1  A    between atoms: C_1  and  C_2
REMARK    2  A    between atoms: C_4  and  C_26
REMARK    3  A    between atoms: C_6  and  O_7
REMARK    4  A    between atoms: O_7  and  C_8
REMARK    5  A    between atoms: C_12  and  C_13
REMARK    6  A    between atoms: C_13  and  C_14
REMARK                            x       y       z     vdW  Elec       q    Type
REMARK                         _______ _______ _______ _____ _____    ______ ____
ROOT
ATOM      1  C   UNL     1       4.517  -3.496   0.090  0.00  0.00    +0.142 A 
ATOM      2  C   UNL     1       3.222  -3.681  -0.408  0.00  0.00    +0.048 A 
ATOM      3  C   UNL     1       2.673  -4.965  -0.515  0.00  0.00    +0.007 A 
ATOM      4  C   UNL     1       3.428  -6.101  -0.191  0.00  0.00    -0.040 A 
ATOM      5  C   UNL     1       4.737  -5.917   0.281  0.00  0.00    +0.023 A 
ATOM      6  C   UNL     1       5.275  -4.629   0.413  0.00  0.00    +0.060 A 
ATOM      7 BR   UNL     1       7.083  -4.478   0.981  0.00  0.00    -0.046 Br
ENDROOT
BRANCH   1   8
ATOM      8  O   UNL     1       5.133  -2.266   0.191  0.00  0.00    -0.455 OA
BRANCH   8  12
ATOM      9  C   UNL     1       1.196   0.109   2.032  0.00  0.00    +0.044 C 
ATOM     10  C   UNL     1       2.543   0.126   1.370  0.00  0.00    -0.046 A 
ATOM     11  C   UNL     1       3.242  -1.078   1.210  0.00  0.00    +0.049 A 
ATOM     12  C   UNL     1       4.417  -1.121   0.456  0.00  0.00    +0.130 A 
ATOM     13  C   UNL     1       4.969   0.069  -0.026  0.00  0.00    +0.065 A 
ATOM     14  C   UNL     1       4.319   1.288   0.188  0.00  0.00    +0.055 A 
ATOM     15  C   UNL     1       3.089   1.310   0.861  0.00  0.00    +0.022 A 
BRANCH  14  16
ATOM     16  C   UNL     1       4.899   2.513  -0.286  0.00  0.00    +0.099 C 
ATOM     17  N   UNL     1       5.366   3.506  -0.662  0.00  0.00    -0.191 NA
ENDBRANCH  14  16
ENDBRANCH   8  12
ENDBRANCH   1   8
BRANCH   4  18
ATOM     18  C   UNL     1       2.883  -7.481  -0.478  0.00  0.00    +0.093 C 
BRANCH  18  19
ATOM     19  C   UNL     1       2.222  -8.017   0.749  0.00  0.00    +0.076 A 
ATOM     20  C   UNL     1       2.798  -8.862   1.740  0.00  0.00    +0.045 A 
ATOM     21  C   UNL     1       1.737  -9.223   2.548  0.00  0.00    +0.178 A 
ATOM     22  N   UNL     1       1.786 -10.048   3.606  0.00  0.00    -0.130 NA
ATOM     23  N   UNL     1       2.971 -10.559   3.900  0.00  0.00    -0.156 NA
ATOM     24  C   UNL     1       4.059 -10.248   3.150  0.00  0.00    +0.136 A 
ATOM     25  N   UNL     1       0.640  -8.601   2.040  0.00  0.00    -0.259 N 
ATOM     26  H   UNL     1      -0.311  -8.669   2.383  0.00  0.00    +0.191 HD
ATOM     27  C   UNL     1       4.045  -9.406   2.047  0.00  0.00    +0.035 A 
ATOM     28  N   UNL     1       0.897  -7.860   0.939  0.00  0.00    -0.176 NA
ENDBRANCH  18  19
ENDBRANCH   4  18
TORSDOF 5
