REMARK  Name = 
REMARK  11 active torsions:
REMARK  status: ('A' for Active; 'I' for Inactive)
REMARK    1  A    between atoms: C_1  and  N_2
REMARK    2  A    between atoms: N_2  and  C_3
REMARK    3  A    between atoms: N_2  and  C_4
REMARK    4  A    between atoms: C_4  and  C_5
REMARK    5  A    between atoms: C_8  and  C_9
REMARK    6  A    between atoms: C_9  and  S_10
REMARK    7  A    between atoms: S_10  and  C_11
REMARK    8  A    between atoms: C_11  and  C_12
REMARK    9  A    between atoms: C_12  and  N_13
REMARK   10  A    between atoms: N_16  and  C_17
REMARK   11  A    between atoms: C_20  and  C_21
REMARK                            x       y       z     vdW  Elec       q    Type
REMARK                         _______ _______ _______ _____ _____    ______ ____
ROOT
ATOM      1  N   UNL     1       9.364   5.247   4.072  0.00  0.00    -0.298 N 
ATOM      2  H   UNL     1       9.597   6.107   3.597  0.00  0.00    +0.150 HD
ATOM      3  C   UNL     1      10.161   4.791   5.095  0.00  0.00    +0.304 C 
ATOM      4  N   UNL     1      11.141   5.692   5.453  0.00  0.00    -0.269 N 
ATOM      5  H   UNL     1      10.955   6.658   5.229  0.00  0.00    +0.156 HD
ATOM      6  O   UNL     1       9.966   3.696   5.610  0.00  0.00    -0.253 OA
ENDROOT
BRANCH   4   7
ATOM      7  C   UNL     1      12.128   5.443   6.438  0.00  0.00    +0.036 A 
ATOM      8  C   UNL     1      12.733   6.527   7.078  0.00  0.00    +0.043 A 
ATOM      9  C   UNL     1      13.635   6.312   8.132  0.00  0.00    +0.046 A 
ATOM     10 CL   UNL     1      14.293   7.698   8.928  0.00  0.00    -0.083 Cl
ATOM     11  C   UNL     1      13.968   5.012   8.543  0.00  0.00    -0.032 A 
ATOM     12  C   UNL     1      14.859   4.738   9.721  0.00  0.00    +0.045 C 
ATOM     13  C   UNL     1      13.412   3.935   7.847  0.00  0.00    +0.006 A 
ATOM     14  C   UNL     1      12.510   4.150   6.803  0.00  0.00    +0.024 A 
ENDBRANCH   4   7
BRANCH   1  15
ATOM     15  C   UNL     1       8.190   4.493   3.651  0.00  0.00    +0.116 C 
BRANCH  15  16
ATOM     16  C   UNL     1       8.519   3.165   2.954  0.00  0.00    +0.088 C 
BRANCH  16  17
ATOM     17  S   UNL     1       6.982   2.302   2.465  0.00  0.00    -0.151 S 
BRANCH  17  18
ATOM     18  C   UNL     1       7.720   0.782   1.777  0.00  0.00    +0.143 C 
BRANCH  18  21
ATOM     19  C   UNL     1       5.693  -1.472  -0.151  0.00  0.00    +0.119 A 
ATOM     20  O   UNL     1       6.695  -0.559   0.029  0.00  0.00    -0.462 OA
ATOM     21  C   UNL     1       6.680  -0.191   1.346  0.00  0.00    +0.115 A 
ATOM     22  C   UNL     1       5.679  -0.876   2.008  0.00  0.00    +0.046 A 
ATOM     23  C   UNL     1       5.045  -1.698   1.045  0.00  0.00    +0.046 A 
BRANCH  19  24
ATOM     24  C   UNL     1       5.515  -2.009  -1.534  0.00  0.00    +0.158 C 
BRANCH  24  26
ATOM     25  C   UNL     1       3.853  -0.369  -2.207  0.00  0.00    +0.105 C 
ATOM     26  N   UNL     1       4.155  -1.797  -2.073  0.00  0.00    -0.301 NA
ATOM     27  C   UNL     1       4.035  -2.449  -3.380  0.00  0.00    +0.105 C 
ENDBRANCH  24  26
ENDBRANCH  19  24
ENDBRANCH  18  21
ENDBRANCH  17  18
ENDBRANCH  16  17
ENDBRANCH  15  16
ENDBRANCH   1  15
TORSDOF 8
