REMARK  Name = 
REMARK  9 active torsions:
REMARK  status: ('A' for Active; 'I' for Inactive)
REMARK    1  A    between atoms: C_2  and  N_3
REMARK    2  A    between atoms: C_2  and  C_14
REMARK    3  A    between atoms: C_2  and  P_23
REMARK    4  A    between atoms: C_4  and  O_6
REMARK    5  A    between atoms: O_6  and  C_7
REMARK    6  A    between atoms: C_7  and  C_8
REMARK    7  A    between atoms: C_17  and  C_20
REMARK    8  A    between atoms: P_23  and  O_24
REMARK    9  A    between atoms: P_23  and  O_25
REMARK                            x       y       z     vdW  Elec       q    Type
REMARK                         _______ _______ _______ _____ _____    ______ ____
ROOT
ATOM      1  C   UNL     1       2.045   0.140  -0.085  0.00  0.00    +0.220 C 
ENDROOT
BRANCH   1   2
ATOM      2  C   UNL     1       2.465  -0.165  -1.512  0.00  0.00    -0.015 A 
ATOM      3  C   UNL     1       2.227   0.731  -2.564  0.00  0.00    +0.007 A 
ATOM      4  C   UNL     1       2.695   0.451  -3.854  0.00  0.00    +0.016 A 
ATOM      5  C   UNL     1       3.415  -0.725  -4.105  0.00  0.00    +0.065 A 
ATOM      6  C   UNL     1       3.630  -1.635  -3.067  0.00  0.00    +0.016 A 
ATOM      7  C   UNL     1       3.160  -1.356  -1.782  0.00  0.00    +0.007 A 
BRANCH   5   8
ATOM      8  C   UNL     1       3.958  -0.999  -5.464  0.00  0.00    +0.308 C 
ATOM      9  N   UNL     1       5.047  -1.673  -5.663  0.00  0.00    -0.099 NA
ATOM     10  H   UNL     1       5.496  -1.936  -4.784  0.00  0.00    +0.363 HD
ATOM     11  N   UNL     1       3.318  -0.542  -6.576  0.00  0.00    -0.247 N 
ATOM     12  H   UNL     1       3.695  -0.978  -7.412  0.00  0.00    +0.288 HD
ATOM     13  H   UNL     1       2.305  -0.568  -6.549  0.00  0.00    +0.288 HD
ENDBRANCH   5   8
ENDBRANCH   1   2
BRANCH   1  14
ATOM     14  N   UNL     1       0.594   0.164   0.050  0.00  0.00    -0.263 N 
ATOM     15  H   UNL     1       0.033   0.642  -0.642  0.00  0.00    +0.153 HD
ATOM     16  C   UNL     1       0.025   0.064   1.283  0.00  0.00    +0.402 C 
ATOM     17  O   UNL     1       0.665  -0.197   2.295  0.00  0.00    -0.226 OA
BRANCH  16  18
ATOM     18  O   UNL     1      -1.299   0.312   1.207  0.00  0.00    -0.446 OA
BRANCH  18  19
ATOM     19  C   UNL     1      -2.046   0.100   2.415  0.00  0.00    +0.269 C 
BRANCH  19  20
ATOM     20  C   UNL     1      -2.361   1.395   3.121  0.00  0.00    -0.010 A 
ATOM     21  C   UNL     1      -1.928   1.611   4.438  0.00  0.00    +0.007 A 
ATOM     22  C   UNL     1      -2.267   2.784   5.116  0.00  0.00    +0.000 A 
ATOM     23  C   UNL     1      -3.040   3.756   4.486  0.00  0.00    +0.000 A 
ATOM     24  C   UNL     1      -3.478   3.554   3.176  0.00  0.00    +0.000 A 
ATOM     25  C   UNL     1      -3.138   2.383   2.498  0.00  0.00    +0.007 A 
ENDBRANCH  19  20
ENDBRANCH  18  19
ENDBRANCH  16  18
ENDBRANCH   1  14
BRANCH   1  26
ATOM     26  P   UNL     1       2.756   1.693   0.633  0.00  0.00    +0.352 P 
ATOM     27  O   UNL     1       2.039   2.929   0.196  0.00  0.00    -0.257 OA
BRANCH  26  28
ATOM     28  O   UNL     1       4.316   1.629   0.251  0.00  0.00    -0.323 OA
ATOM     29  H   UNL     1       4.542   1.181  -0.585  0.00  0.00    +0.220 HD
ENDBRANCH  26  28
BRANCH  26  30
ATOM     30  O   UNL     1       2.788   1.422   2.216  0.00  0.00    -0.323 OA
ATOM     31  H   UNL     1       2.085   0.821   2.556  0.00  0.00    +0.220 HD
ENDBRANCH  26  30
ENDBRANCH   1  26
TORSDOF 9
