REMARK  Name = 
REMARK  14 active torsions:
REMARK  status: ('A' for Active; 'I' for Inactive)
REMARK    1  A    between atoms: C_2  and  C_3
REMARK    2  A    between atoms: C_3  and  N_4
REMARK    3  A    between atoms: N_4  and  C_5
REMARK    4  A    between atoms: N_4  and  C_6
REMARK    5  A    between atoms: C_6  and  C_7
REMARK    6  A    between atoms: C_7  and  C_8
REMARK    7  A    between atoms: C_8  and  C_9
REMARK    8  A    between atoms: C_9  and  O_10
REMARK    9  A    between atoms: O_10  and  N_11
REMARK   10  A    between atoms: C_13  and  N_15
REMARK   11  A    between atoms: C_16  and  C_17
REMARK   12  A    between atoms: C_21  and  N_22
REMARK   13  A    between atoms: C_27  and  O_29
REMARK   14  A    between atoms: C_30  and  O_32
REMARK                            x       y       z     vdW  Elec       q    Type
REMARK                         _______ _______ _______ _____ _____    ______ ____
ROOT
ATOM      1  C   UNL     1       2.233  -0.111  -0.058  0.00  0.00    +0.166 C 
ATOM      2  C   UNL     1       2.678  -1.434   0.569  0.00  0.00    +0.177 C 
ATOM      3  C   UNL     1       3.974  -1.112   1.314  0.00  0.00    +0.195 C 
ATOM      4  C   UNL     1       4.116   0.412   1.166  0.00  0.00    +0.254 C 
ATOM      5  O   UNL     1       2.853   0.925   0.722  0.00  0.00    -0.347 OA
ENDROOT
BRANCH   4   6
ATOM      6  N   UNL     1       4.552   1.178   2.315  0.00  0.00    -0.279 N 
ATOM      7  C   UNL     1       4.217   0.917   3.628  0.00  0.00    +0.168 A 
ATOM      8  C   UNL     1       4.984   1.787   4.379  0.00  0.00    +0.148 A 
ATOM      9  C   UNL     1       4.902   1.676   5.776  0.00  0.00    +0.147 A 
ATOM     10  N   UNL     1       4.064   0.757   6.303  0.00  0.00    -0.219 NA
ATOM     11  C   UNL     1       3.358  -0.019   5.454  0.00  0.00    +0.225 A 
ATOM     12  N   UNL     1       5.722   2.607   3.570  0.00  0.00    -0.223 NA
ATOM     13  N   UNL     1       3.373  -0.017   4.105  0.00  0.00    -0.216 NA
ATOM     14  C   UNL     1       5.419   2.269   2.326  0.00  0.00    +0.137 A 
BRANCH   9  15
ATOM     15  N   UNL     1       5.651   2.463   6.642  0.00  0.00    -0.341 N 
ATOM     16  H   UNL     1       5.244   2.509   7.567  0.00  0.00    +0.144 HD
ATOM     17  H   UNL     1       5.964   3.331   6.220  0.00  0.00    +0.144 HD
ENDBRANCH   9  15
BRANCH  14  18
ATOM     18  C   UNL     1       5.991   2.875   1.175  0.00  0.00    +0.039 C 
ATOM     19  C   UNL     1       5.396   3.070  -0.008  0.00  0.00    +0.012 C 
ENDBRANCH  14  18
ENDBRANCH   4   6
BRANCH   2  20
ATOM     20  O   UNL     1       2.863  -2.437  -0.430  0.00  0.00    -0.386 OA
ATOM     21  H   UNL     1       3.833  -2.582  -0.478  0.00  0.00    +0.210 HD
ENDBRANCH   2  20
BRANCH   3  22
ATOM     22  O   UNL     1       5.073  -1.816   0.706  0.00  0.00    -0.385 OA
ATOM     23  H   UNL     1       5.807  -1.798   1.349  0.00  0.00    +0.210 HD
ENDBRANCH   3  22
BRANCH   1  24
ATOM     24  C   UNL     1       0.697   0.026  -0.011  0.00  0.00    +0.118 C 
BRANCH  24  25
ATOM     25  N   UNL     1       0.113   1.252  -0.608  0.00  0.00    -0.303 NA
ATOM     26  C   UNL     1       0.400   1.332  -2.044  0.00  0.00    +0.105 C 
BRANCH  25  27
ATOM     27  C   UNL     1      -1.351   1.314  -0.395  0.00  0.00    +0.084 C 
BRANCH  27  28
ATOM     28  C   UNL     1      -1.724   1.417   1.088  0.00  0.00    +0.018 C 
BRANCH  28  29
ATOM     29  C   UNL     1      -3.229   1.505   1.332  0.00  0.00    +0.031 C 
BRANCH  29  30
ATOM     30  C   UNL     1      -3.489   1.518   2.836  0.00  0.00    +0.185 C 
BRANCH  30  31
ATOM     31  O   UNL     1      -4.886   1.678   3.086  0.00  0.00    -0.302 OA
BRANCH  31  32
ATOM     32  N   UNL     1      -5.087   1.620   4.530  0.00  0.00    -0.215 NA
ATOM     33  H   UNL     1      -5.178   2.611   4.760  0.00  0.00    +0.150 HD
ATOM     34  H   UNL     1      -6.031   1.235   4.582  0.00  0.00    +0.150 HD
ENDBRANCH  31  32
ENDBRANCH  30  31
ENDBRANCH  29  30
ENDBRANCH  28  29
ENDBRANCH  27  28
ENDBRANCH  25  27
ENDBRANCH  24  25
ENDBRANCH   1  24
TORSDOF 13
