REMARK  Name = 
REMARK  5 active torsions:
REMARK  status: ('A' for Active; 'I' for Inactive)
REMARK    1  A    between atoms: C_1  and  O_2
REMARK    2  A    between atoms: C_1  and  C_20
REMARK    3  A    between atoms: O_2  and  C_3
REMARK    4  A    between atoms: C_6  and  C_9
REMARK    5  A    between atoms: C_13  and  C_14
REMARK                            x       y       z     vdW  Elec       q    Type
REMARK                         _______ _______ _______ _____ _____    ______ ____
ROOT
ATOM      1  C   UNL     1      -0.832  -1.584   0.256  0.00  0.00    +0.121 A 
ATOM      2  C   UNL     1      -1.781  -0.574   0.388  0.00  0.00    +0.046 A 
ATOM      3  C   UNL     1      -3.142  -0.873   0.254  0.00  0.00    +0.013 A 
ATOM      4  C   UNL     1      -3.570  -2.183  -0.009  0.00  0.00    +0.003 A 
ATOM      5  C   UNL     1      -2.615  -3.206  -0.002  0.00  0.00    +0.013 A 
ATOM      6  C   UNL     1      -1.254  -2.905   0.105  0.00  0.00    +0.046 A 
ENDROOT
BRANCH   4   7
ATOM      7  C   UNL     1      -4.973  -2.434  -0.364  0.00  0.00    +0.100 A 
ATOM      8  C   UNL     1      -5.518  -3.350  -1.334  0.00  0.00    +0.027 A 
ATOM      9  C   UNL     1      -6.879  -3.126  -1.296  0.00  0.00    +0.114 A 
ATOM     10  N   UNL     1      -7.081  -2.159  -0.362  0.00  0.00    -0.284 N 
ATOM     11  H   UNL     1      -7.961  -1.749  -0.066  0.00  0.00    +0.188 HD
ATOM     12  N   UNL     1      -5.956  -1.712   0.206  0.00  0.00    -0.173 NA
BRANCH   8  13
ATOM     13  C   UNL     1      -4.896  -4.336  -2.212  0.00  0.00    -0.011 A 
ATOM     14  C   UNL     1      -5.493  -5.584  -2.409  0.00  0.00    +0.028 A 
ATOM     15  C   UNL     1      -4.801  -6.545  -3.128  0.00  0.00    +0.111 A 
ATOM     16  N   UNL     1      -3.573  -6.352  -3.652  0.00  0.00    -0.263 NA
ATOM     17  C   UNL     1      -3.031  -5.130  -3.486  0.00  0.00    +0.111 A 
ATOM     18  C   UNL     1      -3.660  -4.093  -2.815  0.00  0.00    +0.028 A 
ENDBRANCH   8  13
ENDBRANCH   4   7
BRANCH   1  19
ATOM     19  O   UNL     1       0.520  -1.401   0.311  0.00  0.00    -0.486 OA
BRANCH  19  20
ATOM     20  C   UNL     1       1.004  -0.175  -0.241  0.00  0.00    +0.284 C 
BRANCH  20  21
ATOM     21  C   UNL     1       2.519  -0.205  -0.221  0.00  0.00    +0.079 A 
ATOM     22  N   UNL     1       3.184  -0.058  -1.399  0.00  0.00    -0.248 NA
ATOM     23  C   UNL     1       4.530  -0.142  -1.394  0.00  0.00    +0.071 A 
ATOM     24  C   UNL     1       5.266  -0.356  -0.211  0.00  0.00    +0.000 A 
ATOM     25  C   UNL     1       6.670  -0.463  -0.252  0.00  0.00    +0.010 A 
ATOM     26  C   UNL     1       7.351  -0.359  -1.462  0.00  0.00    +0.001 A 
ATOM     27  C   UNL     1       6.633  -0.138  -2.631  0.00  0.00    +0.002 A 
ATOM     28  C   UNL     1       4.564  -0.470   0.991  0.00  0.00    +0.012 A 
ATOM     29  C   UNL     1       5.237  -0.027  -2.585  0.00  0.00    +0.028 A 
ATOM     30  C   UNL     1       3.178  -0.392   0.988  0.00  0.00    +0.027 A 
ENDBRANCH  20  21
ENDBRANCH  19  20
ENDBRANCH   1  19
TORSDOF 5
