REMARK  Name = 
REMARK  9 active torsions:
REMARK  status: ('A' for Active; 'I' for Inactive)
REMARK    1  A    between atoms: CA_2  and  N_3
REMARK    2  A    between atoms: CA_2  and  C_4
REMARK    3  A    between atoms: CA_2  and  C_21
REMARK    4  A    between atoms: C_4  and  C_5
REMARK    5  A    between atoms: C_5  and  C_7
REMARK    6  A    between atoms: C_5  and  C_18
REMARK    7  A    between atoms: C_7  and  C_8
REMARK    8  A    between atoms: C_18  and  O_19
REMARK    9  A    between atoms: C_21  and  O_22
REMARK                            x       y       z     vdW  Elec       q    Type
REMARK                         _______ _______ _______ _____ _____    ______ ____
ROOT
ATOM      1  C   UNL     1       2.137  -2.450   0.589  0.00  0.00    +0.104 C 
ENDROOT
BRANCH   1   2
ATOM      2  C   UNL     1       2.812  -1.483  -0.357  0.00  0.00    +0.308 C 
ATOM      3  O   UNL     1       2.477  -1.326  -1.524  0.00  0.00    -0.251 OA
BRANCH   2   4
ATOM      4  O   UNL     1       3.917  -0.901   0.151  0.00  0.00    -0.480 OA
ATOM      5  H   UNL     1       4.136  -1.163   1.066  0.00  0.00    +0.295 HD
ENDBRANCH   2   4
ENDBRANCH   1   2
BRANCH   1   6
ATOM      6  C   UNL     1       2.791  -3.845   0.493  0.00  0.00    +0.045 C 
BRANCH   6   7
ATOM      7  CA  UNL     1       2.683  -4.638  -0.824  0.00  0.00    +0.161 C 
BRANCH   7   8
ATOM      8  N   UNL     1       3.336  -4.006  -2.005  0.00  0.00    -0.318 NA
ATOM      9  H1  UNL     1       2.781  -4.250  -2.835  0.00  0.00    +0.119 HD
ATOM     10  H2  UNL     1       3.226  -2.983  -1.988  0.00  0.00    +0.119 HD
ENDBRANCH   7   8
BRANCH   7  11
ATOM     11  C   UNL     1       3.386  -6.005  -0.614  0.00  0.00    +0.322 C 
ATOM     12  OXT UNL     1       3.073  -6.838   0.224  0.00  0.00    -0.249 OA
BRANCH  11  13
ATOM     13  O   UNL     1       4.442  -6.149  -1.457  0.00  0.00    -0.480 OA
ATOM     14  H   UNL     1       4.472  -5.306  -1.980  0.00  0.00    +0.295 HD
ENDBRANCH  11  13
ENDBRANCH   7  11
ENDBRANCH   6   7
ENDBRANCH   1   6
BRANCH   1  15
ATOM     15  C   UNL     1       0.610  -2.445   0.373  0.00  0.00    +0.050 C 
BRANCH  15  16
ATOM     16  C   UNL     1      -0.095  -1.121   0.634  0.00  0.00    -0.046 A 
ATOM     17  C   UNL     1       0.313  -0.237   1.641  0.00  0.00    +0.004 A 
ATOM     18  C   UNL     1      -0.414   0.924   1.920  0.00  0.00    +0.009 A 
ATOM     19  C   UNL     1      -1.589   1.221   1.222  0.00  0.00    -0.018 A 
ATOM     20  C   UNL     1      -2.010   0.358   0.187  0.00  0.00    -0.018 A 
ATOM     21  C   UNL     1      -3.190   0.668  -0.512  0.00  0.00    +0.008 A 
ATOM     22  C   UNL     1      -3.957   1.786  -0.170  0.00  0.00    +0.001 A 
ATOM     23  C   UNL     1      -3.548   2.620   0.866  0.00  0.00    +0.001 A 
ATOM     24  C   UNL     1      -2.364   2.345   1.550  0.00  0.00    +0.008 A 
ATOM     25  C   UNL     1      -1.252  -0.798  -0.096  0.00  0.00    +0.012 A 
ENDBRANCH  15  16
ENDBRANCH   1  15
TORSDOF 9
