REMARK  Name = 
REMARK  1 active torsions:
REMARK  status: ('A' for Active; 'I' for Inactive)
REMARK    1  A    between atoms: C_4  and  C_6
REMARK                            x       y       z     vdW  Elec       q    Type
REMARK                         _______ _______ _______ _____ _____    ______ ____
ROOT
ATOM      1  C   UNL     1       2.152  -1.564  -0.009  0.00  0.00    +0.159 A 
ATOM      2  N   UNL     1       3.429  -1.065  -0.016  0.00  0.00    -0.337 N 
ATOM      3  H   UNL     1       3.648  -0.079  -0.015  0.00  0.00    +0.167 HD
ATOM      4  C   UNL     1       4.304  -2.117  -0.022  0.00  0.00    +0.067 A 
ATOM      5  C   UNL     1       3.482  -3.240  -0.019  0.00  0.00    +0.090 A 
ATOM      6  C   UNL     1       4.066  -4.515  -0.024  0.00  0.00    +0.030 A 
ATOM      7  C   UNL     1       5.463  -4.615  -0.032  0.00  0.00    +0.002 A 
ATOM      8  C   UNL     1       6.263  -3.469  -0.036  0.00  0.00    +0.002 A 
ATOM      9  C   UNL     1       5.699  -2.187  -0.031  0.00  0.00    +0.028 A 
ATOM     10  N   UNL     1       2.155  -2.882  -0.011  0.00  0.00    -0.226 NA
ENDROOT
BRANCH   1  14
ATOM     11  N   UNL     1      -0.251   1.047   0.012  0.00  0.00    -0.284 N 
ATOM     12  H   UNL     1      -0.447   2.043   0.017  0.00  0.00    +0.188 HD
ATOM     13  N   UNL     1       1.034   0.647   0.003  0.00  0.00    -0.171 NA
ATOM     14  C   UNL     1       0.946  -0.692   0.000  0.00  0.00    +0.127 A 
ATOM     15  C   UNL     1      -0.393  -1.134   0.006  0.00  0.00    +0.052 A 
ATOM     16  C   UNL     1      -1.144   0.016   0.014  0.00  0.00    +0.105 A 
ENDBRANCH   1  14
TORSDOF 1
