REMARK  Name = 
REMARK  6 active torsions:
REMARK  status: ('A' for Active; 'I' for Inactive)
REMARK    1  A    between atoms: C_1  and  C_2
REMARK    2  A    between atoms: C_4  and  C_5
REMARK    3  A    between atoms: C_6  and  N_7
REMARK    4  A    between atoms: N_11  and  C_12
REMARK    5  A    between atoms: C_15  and  C_18
REMARK    6  A    between atoms: C_23  and  C_24
REMARK                            x       y       z     vdW  Elec       q    Type
REMARK                         _______ _______ _______ _____ _____    ______ ____
ROOT
ATOM      1  N   UNL     1       6.615  -0.150  -0.035  0.00  0.00    -0.299 N 
ATOM      2  H   UNL     1       7.012   0.771   0.095  0.00  0.00    +0.154 HD
ATOM      3  C   UNL     1       7.582  -1.172   0.048  0.00  0.00    +0.128 A 
ATOM      4  C   UNL     1       8.838  -0.895  -0.458  0.00  0.00    +0.063 A 
ATOM      5  C   UNL     1       9.738  -1.928  -0.466  0.00  0.00    +0.118 A 
ATOM      6  N   UNL     1       9.434  -3.161  -0.044  0.00  0.00    -0.223 NA
ATOM      7  C   UNL     1       8.191  -3.365   0.418  0.00  0.00    +0.221 A 
ATOM      8  N   UNL     1       7.780  -4.633   0.825  0.00  0.00    -0.284 N 
ATOM      9  H   UNL     1       6.835  -4.578   1.176  0.00  0.00    +0.155 HD
ATOM     10  N   UNL     1       7.269  -2.395   0.512  0.00  0.00    -0.199 NA
ENDROOT
BRANCH   1  16
ATOM     11  C   UNL     1       0.898   0.333   0.105  0.00  0.00    +0.044 C 
ATOM     12  C   UNL     1       2.384   0.147   0.160  0.00  0.00    -0.050 A 
ATOM     13  C   UNL     1       2.980  -0.870  -0.584  0.00  0.00    +0.008 A 
ATOM     14  C   UNL     1       4.376  -1.067  -0.600  0.00  0.00    -0.029 A 
ATOM     15  C   UNL     1       4.836  -2.263  -1.385  0.00  0.00    +0.045 C 
ATOM     16  C   UNL     1       5.209  -0.164   0.093  0.00  0.00    +0.038 A 
ATOM     17  C   UNL     1       4.596   0.809   0.933  0.00  0.00    -0.029 A 
ATOM     18  C   UNL     1       5.405   1.671   1.869  0.00  0.00    +0.045 C 
ATOM     19  C   UNL     1       3.198   0.967   0.938  0.00  0.00    +0.008 A 
ENDBRANCH   1  16
BRANCH   8  20
ATOM     20  C   UNL     1       8.312  -5.906   0.603  0.00  0.00    +0.034 A 
ATOM     21  C   UNL     1       7.846  -6.982   1.377  0.00  0.00    +0.024 A 
ATOM     22  C   UNL     1       8.408  -8.258   1.264  0.00  0.00    +0.020 A 
ATOM     23  C   UNL     1       9.460  -8.484   0.371  0.00  0.00    +0.052 A 
ATOM     24  C   UNL     1       9.934  -7.430  -0.409  0.00  0.00    +0.020 A 
ATOM     25  C   UNL     1       9.367  -6.157  -0.285  0.00  0.00    +0.024 A 
BRANCH  23  26
ATOM     26  C   UNL     1      10.060  -9.783   0.267  0.00  0.00    +0.099 C 
ATOM     27  N   UNL     1      10.551 -10.828   0.183  0.00  0.00    -0.191 NA
ENDBRANCH  23  26
ENDBRANCH   8  20
TORSDOF 3
