REMARK  Name = 
REMARK  4 active torsions:
REMARK  status: ('A' for Active; 'I' for Inactive)
REMARK    1  A    between atoms: C_2  and  C_24
REMARK    2  A    between atoms: C_9  and  C_11
REMARK    3  A    between atoms: C_11  and  C_12
REMARK    4  A    between atoms: C_12  and  N_13
REMARK                            x       y       z     vdW  Elec       q    Type
REMARK                         _______ _______ _______ _____ _____    ______ ____
ROOT
ATOM      1  C   UNL     1       2.132  -0.251  -0.086  0.00  0.00    +0.168 C 
ATOM      2  N   UNL     1       2.687  -1.414   0.633  0.00  0.00    -0.284 N 
ATOM      3  C   UNL     1       2.217  -2.700   0.471  0.00  0.00    +0.218 C 
ATOM      4  O   UNL     1       1.339  -2.973  -0.346  0.00  0.00    -0.276 OA
ATOM      5  C   UNL     1       3.769  -1.000   1.523  0.00  0.00    +0.184 C 
ATOM      6  C   UNL     1       3.866   0.511   1.408  0.00  0.00    +0.266 C 
ATOM      7  F   UNL     1       4.927   0.884   0.668  0.00  0.00    -0.204 F 
ATOM      8  F   UNL     1       4.016   1.078   2.627  0.00  0.00    -0.204 F 
ATOM      9  C   UNL     1       2.550   0.943   0.783  0.00  0.00    +0.109 C 
ENDROOT
BRANCH   1  10
ATOM     10  C   UNL     1       2.738  -0.135  -1.506  0.00  0.00    +0.236 C 
ATOM     11  N   UNL     1       1.963  -0.530  -2.575  0.00  0.00    -0.300 N 
ATOM     12  C   UNL     1       0.511  -0.535  -2.624  0.00  0.00    +0.108 C 
ATOM     13  C   UNL     1       0.153  -0.616  -4.106  0.00  0.00    +0.020 C 
ATOM     14  C   UNL     1       1.440  -0.253  -4.839  0.00  0.00    +0.020 C 
ATOM     15  C   UNL     1       2.533  -0.713  -3.895  0.00  0.00    +0.108 C 
ATOM     16  O   UNL     1       3.909   0.214  -1.664  0.00  0.00    -0.274 OA
ENDBRANCH   1  10
BRANCH   3  17
ATOM     17  C   UNL     1       2.782  -3.766   1.402  0.00  0.00    +0.115 C 
BRANCH  17  18
ATOM     18  C   UNL     1       3.370  -4.946   0.643  0.00  0.00    +0.126 C 
BRANCH  18  19
ATOM     19  N   UNL     1       3.949  -5.927   1.557  0.00  0.00    -0.234 N 
ATOM     20  C   UNL     1       5.201  -5.835   2.107  0.00  0.00    +0.254 C 
ATOM     21  O   UNL     1       6.037  -4.965   1.955  0.00  0.00    -0.270 OA
ATOM     22  C   UNL     1       5.361  -6.995   2.991  0.00  0.00    +0.049 A 
ATOM     23  C   UNL     1       6.431  -7.413   3.761  0.00  0.00    +0.014 A 
ATOM     24  C   UNL     1       6.266  -8.585   4.512  0.00  0.00    +0.001 A 
ATOM     25  C   UNL     1       5.050  -9.299   4.482  0.00  0.00    +0.001 A 
ATOM     26  C   UNL     1       3.980  -8.853   3.701  0.00  0.00    +0.014 A 
ATOM     27  C   UNL     1       4.170  -7.698   2.963  0.00  0.00    +0.049 A 
ATOM     28  C   UNL     1       3.259  -6.990   2.067  0.00  0.00    +0.254 C 
ATOM     29  O   UNL     1       2.104  -7.324   1.873  0.00  0.00    -0.270 OA
ENDBRANCH  18  19
ENDBRANCH  17  18
ENDBRANCH   3  17
TORSDOF 4
