REMARK  Name = 
REMARK  7 active torsions:
REMARK  status: ('A' for Active; 'I' for Inactive)
REMARK    1  A    between atoms: C_2  and  C_18
REMARK    2  A    between atoms: CA_4  and  C_5
REMARK    3  A    between atoms: C_5  and  O_6
REMARK    4  A    between atoms: C_14  and  O_16
REMARK    5  A    between atoms: O_16  and  C_17
REMARK    6  A    between atoms: C_18  and  C_21
REMARK    7  A    between atoms: C_19  and  C_20
REMARK                            x       y       z     vdW  Elec       q    Type
REMARK                         _______ _______ _______ _____ _____    ______ ____
ROOT
ATOM      1  C   UNL     1       2.104  -0.087  -0.055  0.00  0.00    +0.111 C 
ATOM      2  C   UNL     1       2.721   0.585  -1.325  0.00  0.00    +0.044 C 
ATOM      3  C   UNL     1       3.444   1.920  -1.128  0.00  0.00    +0.010 C 
ATOM      4  C   UNL     1       4.206   2.324  -2.392  0.00  0.00    +0.003 C 
ATOM      5  C   UNL     1       5.203   1.228  -2.784  0.00  0.00    +0.036 C 
ATOM      6  C   UNL     1       4.503  -0.114  -3.071  0.00  0.00    +0.146 C 
ATOM      7  C   UNL     1       3.659  -0.482  -1.887  0.00  0.00    -0.008 C 
ATOM      8  CA  UNL     1       3.567  -1.603  -1.149  0.00  0.00    +0.115 C 
ATOM      9  N   UNL     1       2.750  -1.391  -0.046  0.00  0.00    -0.331 N 
ATOM     10  H   UNL     1       2.298  -2.210   0.356  0.00  0.00    +0.147 HD
ENDROOT
BRANCH   1  11
ATOM     11  C   UNL     1       2.308   0.600   1.272  0.00  0.00    +0.008 C 
ATOM     12  C   UNL     1       1.444   1.449   1.866  0.00  0.00    -0.022 C 
ATOM     13  C   UNL     1       0.123   1.919   1.354  0.00  0.00    +0.035 C 
BRANCH  11  14
ATOM     14  C   UNL     1       3.583   0.343   2.014  0.00  0.00    +0.256 C 
ATOM     15  O   UNL     1       3.858   0.852   3.095  0.00  0.00    -0.296 OA
ENDBRANCH  11  14
ENDBRANCH   1  11
BRANCH   6  16
ATOM     16  O   UNL     1       3.600  -0.040  -4.177  0.00  0.00    -0.375 OA
ATOM     17  C   UNL     1       4.214   0.225  -5.432  0.00  0.00    +0.194 C 
ENDBRANCH   6  16
BRANCH   8  18
ATOM     18  C   UNL     1       4.234  -2.929  -1.331  0.00  0.00    +0.351 C 
ATOM     19  OXT UNL     1       4.458  -3.688  -0.401  0.00  0.00    -0.244 OA
BRANCH  18  20
ATOM     20  O   UNL     1       4.485  -3.242  -2.618  0.00  0.00    -0.476 OA
ATOM     21  H   UNL     1       4.018  -2.658  -3.243  0.00  0.00    +0.295 HD
ENDBRANCH  18  20
ENDBRANCH   8  18
TORSDOF 5
