REMARK  Name = 
REMARK  7 active torsions:
REMARK  status: ('A' for Active; 'I' for Inactive)
REMARK    1  A    between atoms: C_2  and  N_3
REMARK    2  A    between atoms: C_2  and  C_4
REMARK    3  A    between atoms: C_2  and  C_11
REMARK    4  A    between atoms: C_4  and  C_5
REMARK    5  A    between atoms: C_5  and  C_6
REMARK    6  A    between atoms: C_6  and  N_7
REMARK    7  A    between atoms: C_11  and  C_13
REMARK                            x       y       z     vdW  Elec       q    Type
REMARK                         _______ _______ _______ _____ _____    ______ ____
ROOT
ATOM      1  C   UNL     1       1.961   0.077   0.073  0.00  0.00    +0.125 C 
ENDROOT
BRANCH   1   2
ATOM      2  N   UNL     1       0.482   0.135   0.139  0.00  0.00    -0.321 NA
ATOM      3  H   UNL     1       0.191   1.052   0.479  0.00  0.00    +0.119 HD
ATOM      4  H   UNL     1       0.097   0.032  -0.802  0.00  0.00    +0.119 HD
ENDBRANCH   1   2
BRANCH   1   5
ATOM      5  C   UNL     1       2.481   1.184  -0.879  0.00  0.00    +0.204 C 
ATOM      6  O   UNL     1       2.621   0.945  -2.083  0.00  0.00    -0.288 OA
BRANCH   5   7
ATOM      7  C   UNL     1       2.720   2.500  -0.286  0.00  0.00    +0.146 A 
ATOM      8  S   UNL     1       3.213   3.808  -1.278  0.00  0.00    -0.064 S 
ATOM      9  C   UNL     1       3.262   4.841   0.095  0.00  0.00    +0.040 A 
ATOM     10  C   UNL     1       2.880   4.113   1.224  0.00  0.00    +0.079 A 
ATOM     11  C   UNL     1       2.850   4.776   2.471  0.00  0.00    +0.029 A 
ATOM     12  C   UNL     1       3.209   6.125   2.554  0.00  0.00    +0.002 A 
ATOM     13  C   UNL     1       3.589   6.828   1.414  0.00  0.00    +0.001 A 
ATOM     14  C   UNL     1       3.618   6.199   0.168  0.00  0.00    +0.017 A 
ATOM     15  N   UNL     1       2.565   2.777   0.993  0.00  0.00    -0.236 NA
ENDBRANCH   5   7
ENDBRANCH   1   5
BRANCH   1  16
ATOM     16  C   UNL     1       2.336  -1.339  -0.416  0.00  0.00    +0.029 C 
BRANCH  16  17
ATOM     17  C   UNL     1       3.837  -1.668  -0.425  0.00  0.00    +0.039 C 
BRANCH  17  18
ATOM     18  C   UNL     1       4.475  -1.547   0.955  0.00  0.00    +0.196 C 
BRANCH  18  19
ATOM     19  N   UNL     1       5.849  -2.013   0.941  0.00  0.00    -0.276 N 
ATOM     20  H   UNL     1       6.318  -1.922   0.046  0.00  0.00    +0.258 HD
ATOM     21  C   UNL     1       6.689  -1.841   1.987  0.00  0.00    +0.376 C 
ATOM     22  N   UNL     1       6.403  -1.460   3.176  0.00  0.00    -0.130 NA
ATOM     23  H   UNL     1       5.401  -1.282   3.251  0.00  0.00    +0.306 HD
ATOM     24  N   UNL     1       7.962  -2.135   1.676  0.00  0.00    -0.289 N 
ATOM     25  H   UNL     1       8.511  -2.151   2.530  0.00  0.00    +0.255 HD
ATOM     26  H   UNL     1       8.058  -3.010   1.178  0.00  0.00    +0.255 HD
ENDBRANCH  18  19
ENDBRANCH  17  18
ENDBRANCH  16  17
ENDBRANCH   1  16
TORSDOF 7
