REMARK  Name = 
REMARK  13 active torsions:
REMARK  status: ('A' for Active; 'I' for Inactive)
REMARK    1  A    between atoms: C_2  and  N_3
REMARK    2  A    between atoms: C_2  and  C_26
REMARK    3  A    between atoms: C_2  and  C_29
REMARK    4  A    between atoms: C_4  and  C_6
REMARK    5  A    between atoms: C_6  and  N_7
REMARK    6  A    between atoms: C_10  and  N_11
REMARK    7  A    between atoms: N_11  and  S_12
REMARK    8  A    between atoms: S_12  and  N_15
REMARK    9  A    between atoms: N_15  and  C_16
REMARK   10  A    between atoms: C_19  and  C_20
REMARK   11  A    between atoms: C_26  and  C_27
REMARK   12  A    between atoms: C_26  and  C_28
REMARK   13  A    between atoms: C_29  and  C_31
REMARK                            x       y       z     vdW  Elec       q    Type
REMARK                         _______ _______ _______ _____ _____    ______ ____
ROOT
ATOM      1  N   UNL     1      -2.409   2.416   0.714  0.00  0.00    -0.298 N 
ATOM      2  C   UNL     1      -3.172   3.115  -0.226  0.00  0.00    +0.053 A 
ATOM      3  C   UNL     1      -3.618   4.354   0.047  0.00  0.00    +0.028 A 
ATOM      4  C   UNL     1      -3.307   5.006   1.293  0.00  0.00    +0.032 A 
ATOM      5  C   UNL     1      -2.532   4.379   2.187  0.00  0.00    +0.113 A 
ATOM      6  C   UNL     1      -2.057   2.980   1.951  0.00  0.00    +0.275 A 
ATOM      7  O   UNL     1      -1.443   2.375   2.830  0.00  0.00    -0.266 OA
ENDROOT
BRANCH   2   8
ATOM      8  C   UNL     1      -3.577   2.556  -1.531  0.00  0.00    -0.001 A 
ATOM      9  C   UNL     1      -4.846   1.973  -1.668  0.00  0.00    +0.010 A 
ATOM     10  C   UNL     1      -5.335   1.613  -2.925  0.00  0.00    +0.001 A 
ATOM     11  C   UNL     1      -4.564   1.839  -4.061  0.00  0.00    +0.000 A 
ATOM     12  C   UNL     1      -3.293   2.400  -3.939  0.00  0.00    +0.001 A 
ATOM     13  C   UNL     1      -2.798   2.757  -2.681  0.00  0.00    +0.010 A 
ENDBRANCH   2   8
BRANCH   5  14
ATOM     14  N   UNL     1      -2.134   5.083   3.362  0.00  0.00    -0.201 N 
ATOM     15  H   UNL     1      -2.911   5.442   3.919  0.00  0.00    +0.175 HD
BRANCH  14  16
ATOM     16  S   UNL     1      -1.135   6.392   3.025  0.00  0.00    +0.109 S 
ATOM     17  O   UNL     1      -1.926   7.574   3.249  0.00  0.00    -0.138 OA
ATOM     18  O   UNL     1      -0.403   6.170   1.797  0.00  0.00    -0.138 OA
BRANCH  16  19
ATOM     19  N   UNL     1      -0.047   6.225   4.281  0.00  0.00    -0.180 NA
ATOM     20  H   UNL     1       0.401   5.311   4.191  0.00  0.00    +0.149 HD
ATOM     21  C   UNL     1       0.958   7.304   4.323  0.00  0.00    +0.129 C 
ENDBRANCH  16  19
ENDBRANCH  14  16
ENDBRANCH   5  14
BRANCH   1  22
ATOM     22  C   UNL     1      -1.926   1.054   0.472  0.00  0.00    +0.221 C 
BRANCH  22  25
ATOM     23  N   UNL     1      -4.175   0.355   1.216  0.00  0.00    -0.304 N 
ATOM     24  H   UNL     1      -4.214   1.308   1.561  0.00  0.00    +0.149 HD
ATOM     25  C   UNL     1      -2.882  -0.056   0.937  0.00  0.00    +0.233 C 
ATOM     26  O   UNL     1      -2.526  -1.230   0.922  0.00  0.00    -0.274 OA
BRANCH  23  27
ATOM     27  C   UNL     1      -5.286  -0.536   1.627  0.00  0.00    +0.151 C 
BRANCH  27  28
ATOM     28  C   UNL     1      -5.306  -1.886   0.858  0.00  0.00    +0.011 C 
ATOM     29  C   UNL     1      -5.262  -1.662  -0.666  0.00  0.00    +0.009 C 
ATOM     30  C   UNL     1      -6.515  -2.780   1.137  0.00  0.00    +0.009 C 
ENDBRANCH  27  28
BRANCH  27  31
ATOM     31  C   UNL     1      -5.270  -0.589   3.170  0.00  0.00    +0.256 C 
ATOM     32  O   UNL     1      -4.286  -0.211   3.820  0.00  0.00    -0.286 OA
BRANCH  31  33
ATOM     33  C   UNL     1      -6.558  -1.000   3.862  0.00  0.00    +0.453 C 
ATOM     34  F   UNL     1      -6.980  -0.064   4.759  0.00  0.00    -0.163 F 
ATOM     35  F   UNL     1      -6.432  -2.166   4.551  0.00  0.00    -0.163 F 
ATOM     36  F   UNL     1      -7.605  -1.165   3.008  0.00  0.00    -0.163 F 
ENDBRANCH  31  33
ENDBRANCH  27  31
ENDBRANCH  23  27
ENDBRANCH  22  25
ENDBRANCH   1  22
TORSDOF 10
