REMARK  Name = 
REMARK  8 active torsions:
REMARK  status: ('A' for Active; 'I' for Inactive)
REMARK    1  A    between atoms: O_1  and  C_2
REMARK    2  A    between atoms: C_5  and  C_6
REMARK    3  A    between atoms: C_6  and  C_7
REMARK    4  A    between atoms: C_7  and  N_8
REMARK    5  A    between atoms: C_9  and  C_11
REMARK    6  A    between atoms: C_12  and  C_13
REMARK    7  A    between atoms: C_16  and  O_17
REMARK    8  A    between atoms: C_18  and  O_19
REMARK                            x       y       z     vdW  Elec       q    Type
REMARK                         _______ _______ _______ _____ _____    ______ ____
ROOT
ATOM      1  N   UNL     1       8.745  -1.494  -1.013  0.00  0.00    -0.312 N 
ATOM      2  H   UNL     1       9.230  -0.627  -1.202  0.00  0.00    +0.149 HD
ATOM      3  C   UNL     1       9.415  -2.692  -1.090  0.00  0.00    +0.237 C 
ATOM      4  O   UNL     1       8.887  -3.782  -0.901  0.00  0.00    -0.271 OA
ENDROOT
BRANCH   3   5
ATOM      5  C   UNL     1      10.855  -2.551  -1.430  0.00  0.00    +0.068 C 
ATOM      6  C   UNL     1      11.616  -3.650  -1.572  0.00  0.00    +0.013 C 
BRANCH   6   7
ATOM      7  C   UNL     1      13.055  -3.641  -1.886  0.00  0.00    -0.021 A 
ATOM      8  C   UNL     1      13.905  -2.611  -1.463  0.00  0.00    +0.057 A 
ATOM      9  C   UNL     1      15.264  -2.676  -1.745  0.00  0.00    +0.159 A 
ATOM     10  C   UNL     1      15.804  -3.757  -2.433  0.00  0.00    +0.158 A 
ATOM     11  C   UNL     1      14.984  -4.795  -2.853  0.00  0.00    +0.050 A 
ATOM     12  C   UNL     1      13.612  -4.737  -2.573  0.00  0.00    +0.012 A 
BRANCH   9  13
ATOM     13  O   UNL     1      16.076  -1.660  -1.324  0.00  0.00    -0.503 OA
ATOM     14  H   UNL     1      16.970  -1.925  -1.619  0.00  0.00    +0.292 HD
ENDBRANCH   9  13
BRANCH  10  15
ATOM     15  O   UNL     1      17.151  -3.757  -2.661  0.00  0.00    -0.503 OA
ATOM     16  H   UNL     1      17.384  -4.588  -3.109  0.00  0.00    +0.292 HD
ENDBRANCH  10  15
ENDBRANCH   6   7
ENDBRANCH   3   5
BRANCH   1  17
ATOM     17  C   UNL     1       7.323  -1.467  -0.705  0.00  0.00    +0.109 C 
BRANCH  17  18
ATOM     18  C   UNL     1       6.753  -0.049  -0.660  0.00  0.00    +0.054 C 
BRANCH  18  22
ATOM     19  C   UNL     1       2.552   0.109   0.288  0.00  0.00    +0.117 A 
ATOM     20  C   UNL     1       2.956   0.020  -1.039  0.00  0.00    +0.045 A 
ATOM     21  C   UNL     1       4.317  -0.046  -1.347  0.00  0.00    +0.007 A 
ATOM     22  C   UNL     1       5.279  -0.017  -0.328  0.00  0.00    -0.046 A 
ATOM     23  C   UNL     1       4.850   0.043   1.007  0.00  0.00    +0.007 A 
ATOM     24  C   UNL     1       3.488   0.110   1.316  0.00  0.00    +0.045 A 
BRANCH  19  25
ATOM     25  O   UNL     1       1.216   0.201   0.541  0.00  0.00    -0.507 OA
ATOM     26  H   UNL     1       1.090   0.334   1.495  0.00  0.00    +0.292 HD
ENDBRANCH  19  25
ENDBRANCH  18  22
ENDBRANCH  17  18
ENDBRANCH   1  17
TORSDOF 8
