REMARK  Name = 
REMARK  7 active torsions:
REMARK  status: ('A' for Active; 'I' for Inactive)
REMARK    1  A    between atoms: C_1  and  C_2
REMARK    2  A    between atoms: C_4  and  C_5
REMARK    3  A    between atoms: C_5  and  C_6
REMARK    4  A    between atoms: N_8  and  C_16
REMARK    5  A    between atoms: C_16  and  C_17
REMARK    6  A    between atoms: C_16  and  C_18
REMARK    7  A    between atoms: C_16  and  C_19
REMARK                            x       y       z     vdW  Elec       q    Type
REMARK                         _______ _______ _______ _____ _____    ______ ____
ROOT
ATOM      1  C   UNL     1       4.296   3.760  -0.186  0.00  0.00    +0.080 A 
ATOM      2  C   UNL     1       2.886   3.730  -0.373  0.00  0.00    +0.082 A 
ATOM      3  C   UNL     1       1.888   2.829  -0.762  0.00  0.00    +0.130 A 
ATOM      4  N   UNL     1       0.598   3.174  -0.569  0.00  0.00    -0.220 NA
ATOM      5  C   UNL     1       0.326   4.400  -0.084  0.00  0.00    +0.225 A 
ATOM      6  N   UNL     1       1.186   5.396   0.166  0.00  0.00    -0.216 NA
ATOM      7  N   UNL     1       2.127   1.620  -1.382  0.00  0.00    -0.342 N 
ATOM      8  H   UNL     1       1.311   1.019  -1.395  0.00  0.00    +0.144 HD
ATOM      9  H   UNL     1       3.026   1.184  -1.255  0.00  0.00    +0.144 HD
ATOM     10  C   UNL     1       2.463   4.993   0.000  0.00  0.00    +0.164 A 
ATOM     11  N   UNL     1       3.603   5.763   0.069  0.00  0.00    -0.241 N 
ATOM     12  N   UNL     1       4.735   5.010   0.066  0.00  0.00    -0.173 NA
ENDROOT
BRANCH  11  13
ATOM     13  C   UNL     1       3.676   7.233  -0.004  0.00  0.00    +0.058 C 
ATOM     14  C   UNL     1       3.061   7.866   1.254  0.00  0.00    +0.036 C 
ATOM     15  C   UNL     1       2.927   7.732  -1.259  0.00  0.00    +0.036 C 
ATOM     16  C   UNL     1       5.138   7.726  -0.124  0.00  0.00    +0.036 C 
ENDBRANCH  11  13
BRANCH   1  17
ATOM     17  C   UNL     1       5.288   2.637  -0.219  0.00  0.00    +0.093 C 
BRANCH  17  23
ATOM     18  C   UNL     1       2.655   0.862   3.778  0.00  0.00    +0.044 C 
ATOM     19  C   UNL     1       3.632   0.647   2.659  0.00  0.00    -0.050 A 
ATOM     20  C   UNL     1       4.037  -0.649   2.327  0.00  0.00    +0.003 A 
ATOM     21  C   UNL     1       4.873  -0.862   1.234  0.00  0.00    +0.001 A 
ATOM     22  C   UNL     1       5.272   0.213   0.437  0.00  0.00    +0.004 A 
ATOM     23  C   UNL     1       4.857   1.524   0.727  0.00  0.00    -0.041 A 
ATOM     24  C   UNL     1       4.091   1.727   1.889  0.00  0.00    +0.007 A 
ENDBRANCH  17  23
ENDBRANCH   1  17
TORSDOF 3
