REMARK  Name = 
REMARK  7 active torsions:
REMARK  status: ('A' for Active; 'I' for Inactive)
REMARK    1  A    between atoms: O_1  and  N_2
REMARK    2  A    between atoms: N_2  and  C_3
REMARK    3  A    between atoms: C_3  and  C_4
REMARK    4  A    between atoms: C_4  and  O_5
REMARK    5  A    between atoms: O_5  and  C_6
REMARK    6  A    between atoms: C_10  and  C_12
REMARK    7  A    between atoms: C_12  and  C_14
REMARK                            x       y       z     vdW  Elec       q    Type
REMARK                         _______ _______ _______ _____ _____    ______ ____
ROOT
ATOM      1  C   UNL     1       2.058  -3.925   2.836  0.00  0.00    +0.121 A 
ATOM      2  C   UNL     1       0.870  -3.640   3.513  0.00  0.00    +0.057 A 
ATOM      3  C   UNL     1       0.208  -4.641   4.235  0.00  0.00    +0.026 A 
ATOM      4  C   UNL     1       0.699  -5.950   4.218  0.00  0.00    +0.012 A 
ATOM      5  C   UNL     1       1.872  -6.244   3.524  0.00  0.00    +0.004 A 
ATOM      6  C   UNL     1       2.554  -5.231   2.846  0.00  0.00    +0.046 A 
ENDROOT
BRANCH   3   7
ATOM      7  C   UNL     1      -1.036  -4.347   4.989  0.00  0.00    +0.193 C 
ATOM      8  O   UNL     1      -1.906  -5.212   5.060  0.00  0.00    -0.287 OA
BRANCH   7   9
ATOM      9  C   UNL     1      -1.259  -3.035   5.663  0.00  0.00    +0.022 A 
ATOM     10  C   UNL     1      -2.575  -2.582   5.820  0.00  0.00    +0.012 A 
ATOM     11  C   UNL     1      -2.830  -1.372   6.469  0.00  0.00    +0.001 A 
ATOM     12  C   UNL     1      -1.774  -0.610   6.966  0.00  0.00    +0.000 A 
ATOM     13  C   UNL     1      -0.461  -1.057   6.819  0.00  0.00    +0.001 A 
ATOM     14  C   UNL     1      -0.203  -2.272   6.180  0.00  0.00    +0.012 A 
ENDBRANCH   7   9
ENDBRANCH   3   7
BRANCH   1  15
ATOM     15  O   UNL     1       2.810  -3.013   2.139  0.00  0.00    -0.490 OA
BRANCH  15  16
ATOM     16  C   UNL     1       2.329  -1.667   2.177  0.00  0.00    +0.250 C 
BRANCH  16  17
ATOM     17  C   UNL     1       3.248  -0.753   1.371  0.00  0.00    +0.180 C 
BRANCH  17  18
ATOM     18  N   UNL     1       2.763   0.624   1.353  0.00  0.00    -0.183 N 
ATOM     19  C   UNL     1       2.927   1.450   2.442  0.00  0.00    +0.353 C 
ATOM     20  O   UNL     1       3.752   1.303   3.336  0.00  0.00    -0.277 OA
BRANCH  18  21
ATOM     21  O   UNL     1       1.497   0.742   0.731  0.00  0.00    -0.293 OA
ATOM     22  H   UNL     1       1.744   1.068  -0.156  0.00  0.00    +0.242 HD
ENDBRANCH  18  21
ENDBRANCH  17  18
ENDBRANCH  16  17
ENDBRANCH  15  16
ENDBRANCH   1  15
TORSDOF 7
