REMARK  Name = 
REMARK  4 active torsions:
REMARK  status: ('A' for Active; 'I' for Inactive)
REMARK    1  A    between atoms: C_2  and  C_3
REMARK    2  A    between atoms: C_3  and  C_4
REMARK    3  A    between atoms: C_4  and  O_5
REMARK    4  A    between atoms: N_15  and  C_16
REMARK                            x       y       z     vdW  Elec       q    Type
REMARK                         _______ _______ _______ _____ _____    ______ ____
ROOT
ATOM      1  C   UNL     1       2.244   0.005   0.023  0.00  0.00    +0.168 C 
ATOM      2  C   UNL     1       2.394  -1.218  -0.917  0.00  0.00    +0.236 C 
ATOM      3  O   UNL     1       2.793  -1.059  -2.078  0.00  0.00    -0.274 OA
ATOM      4  N   UNL     1       1.891  -2.432  -0.478  0.00  0.00    -0.299 N 
ATOM      5  C   UNL     1       1.285  -3.328  -1.443  0.00  0.00    +0.132 C 
ATOM      6  C   UNL     1       2.219  -2.940   0.848  0.00  0.00    +0.144 C 
ATOM      7  C   UNL     1       1.442  -2.230   1.916  0.00  0.00    -0.009 A 
ATOM      8  C   UNL     1       1.734  -0.886   2.190  0.00  0.00    +0.032 A 
ATOM      9  C   UNL     1       0.993  -0.205   3.160  0.00  0.00    +0.023 A 
ATOM     10  C   UNL     1      -0.018  -0.862   3.865  0.00  0.00    +0.002 A 
ATOM     11  C   UNL     1      -0.288  -2.205   3.614  0.00  0.00    +0.000 A 
ATOM     12  C   UNL     1       0.438  -2.893   2.639  0.00  0.00    +0.007 A 
ATOM     13  N   UNL     1       2.701  -0.201   1.417  0.00  0.00    -0.332 N 
ATOM     14  H   UNL     1       2.952   0.679   1.870  0.00  0.00    +0.147 HD
ENDROOT
BRANCH   1  15
ATOM     15  C   UNL     1       2.889   1.244  -0.607  0.00  0.00    +0.152 C 
BRANCH  15  16
ATOM     16  C   UNL     1       4.393   1.215  -0.598  0.00  0.00    +0.307 C 
ATOM     17  O   UNL     1       5.062   1.952   0.113  0.00  0.00    -0.251 OA
BRANCH  16  18
ATOM     18  O   UNL     1       4.952   0.360  -1.479  0.00  0.00    -0.481 OA
ATOM     19  H   UNL     1       4.307  -0.171  -2.004  0.00  0.00    +0.295 HD
ENDBRANCH  16  18
ENDBRANCH  15  16
ENDBRANCH   1  15
TORSDOF 3
