REMARK  Name = 
REMARK  6 active torsions:
REMARK  status: ('A' for Active; 'I' for Inactive)
REMARK    1  A    between atoms: C_2  and  C_4
REMARK    2  A    between atoms: C_7  and  N_8
REMARK    3  A    between atoms: C_11  and  O_12
REMARK    4  A    between atoms: O_12  and  C_13
REMARK    5  A    between atoms: C_13  and  C_14
REMARK    6  A    between atoms: C_20  and  N_21
REMARK                            x       y       z     vdW  Elec       q    Type
REMARK                         _______ _______ _______ _____ _____    ______ ____
ROOT
ATOM      1  N   UNL     1       5.524   4.891  -0.010  0.00  0.00    -0.283 N 
ATOM      2  H   UNL     1       5.212   3.931   0.030  0.00  0.00    +0.155 HD
ATOM      3  C   UNL     1       6.848   4.934  -0.450  0.00  0.00    +0.224 A 
ATOM      4  N   UNL     1       7.443   3.749  -0.618  0.00  0.00    -0.197 NA
ATOM      5  C   UNL     1       8.729   3.731  -1.028  0.00  0.00    +0.154 A 
ATOM      6  N   UNL     1       9.265   2.444  -1.180  0.00  0.00    -0.341 N 
ATOM      7  H   UNL     1       8.593   1.768  -0.829  0.00  0.00    +0.144 HD
ATOM      8  H   UNL     1      10.179   2.347  -0.748  0.00  0.00    +0.144 HD
ATOM      9  C   UNL     1       9.458   4.883  -1.332  0.00  0.00    +0.208 A 
ATOM     10  C   UNL     1       8.738   6.056  -1.148  0.00  0.00    +0.251 A 
ATOM     11  N   UNL     1       7.462   6.100  -0.702  0.00  0.00    -0.177 NA
ENDROOT
BRANCH   1  15
ATOM     12  C   UNL     1       3.009   7.712   1.922  0.00  0.00    +0.037 A 
ATOM     13  C   UNL     1       2.516   6.478   1.480  0.00  0.00    +0.015 A 
ATOM     14  C   UNL     1       3.363   5.553   0.851  0.00  0.00    +0.024 A 
ATOM     15  C   UNL     1       4.726   5.827   0.661  0.00  0.00    +0.034 A 
ATOM     16  C   UNL     1       5.199   7.068   1.096  0.00  0.00    +0.024 A 
ATOM     17  C   UNL     1       4.361   7.996   1.729  0.00  0.00    +0.015 A 
BRANCH  12  21
ATOM     18  N   UNL     1       2.514   9.894   2.948  0.00  0.00    -0.325 N 
ATOM     19  H   UNL     1       3.437  10.253   2.773  0.00  0.00    +0.145 HD
ATOM     20  H   UNL     1       1.835  10.518   3.362  0.00  0.00    +0.145 HD
ATOM     21  C   UNL     1       2.062   8.653   2.577  0.00  0.00    +0.242 C 
ATOM     22  O   UNL     1       0.891   8.350   2.782  0.00  0.00    -0.270 OA
ENDBRANCH  12  21
ENDBRANCH   1  15
BRANCH   9  23
ATOM     23  N   UNL     1      10.756   4.808  -1.805  0.00  0.00    -0.022 NA
ATOM     24  O   UNL     1      11.521   5.634  -1.291  0.00  0.00    -0.143 OA
ENDBRANCH   9  23
BRANCH  10  25
ATOM     25  O   UNL     1       9.373   7.261  -1.442  0.00  0.00    -0.474 OA
BRANCH  25  26
ATOM     26  C   UNL     1       8.523   8.397  -1.283  0.00  0.00    +0.234 C 
BRANCH  26  27
ATOM     27  C   UNL     1       9.288   9.710  -1.462  0.00  0.00    +0.027 C 
ATOM     28  C   UNL     1      10.368   9.922  -0.391  0.00  0.00    +0.007 C 
ATOM     29  C   UNL     1      10.815  11.381  -0.433  0.00  0.00    +0.000 C 
ATOM     30  C   UNL     1      11.346  11.777  -1.813  0.00  0.00    +0.000 C 
ATOM     31  C   UNL     1      10.445  11.334  -2.970  0.00  0.00    +0.000 C 
ATOM     32  C   UNL     1       9.954   9.887  -2.833  0.00  0.00    +0.007 C 
ENDBRANCH  26  27
ENDBRANCH  25  26
ENDBRANCH  10  25
TORSDOF 6
