REMARK  Name = 
REMARK  7 active torsions:
REMARK  status: ('A' for Active; 'I' for Inactive)
REMARK    1  A    between atoms: C_2  and  O_3
REMARK    2  A    between atoms: C_2  and  C_4
REMARK    3  A    between atoms: C_2  and  C_16
REMARK    4  A    between atoms: C_4  and  N_5
REMARK    5  A    between atoms: N_8  and  C_9
REMARK    6  A    between atoms: C_9  and  C_10
REMARK    7  A    between atoms: C_16  and  O_17
REMARK                            x       y       z     vdW  Elec       q    Type
REMARK                         _______ _______ _______ _____ _____    ______ ____
ROOT
ATOM      1  N   UNL     1       2.011   2.193   1.512  0.00  0.00    -0.296 N 
ATOM      2  H   UNL     1       1.070   2.414   1.215  0.00  0.00    +0.150 HD
ATOM      3  C   UNL     1       2.494   2.962   2.536  0.00  0.00    +0.300 C 
ATOM      4  N   UNL     1       1.831   4.149   2.642  0.00  0.00    -0.295 N 
ATOM      5  H   UNL     1       1.500   4.546   1.775  0.00  0.00    +0.151 HD
ATOM      6  O   UNL     1       3.412   2.599   3.258  0.00  0.00    -0.253 OA
ENDROOT
BRANCH   1   7
ATOM      7  C   UNL     1       2.451   0.810   1.354  0.00  0.00    +0.148 C 
BRANCH   7   8
ATOM      8  C   UNL     1       3.786   0.688   0.607  0.00  0.00    +0.239 C 
BRANCH   8   9
ATOM      9  C   UNL     1       4.101  -0.793   0.422  0.00  0.00    +0.335 C 
ATOM     10  O   UNL     1       3.336  -1.625  -0.044  0.00  0.00    -0.248 OA
BRANCH   9  11
ATOM     11  O   UNL     1       5.361  -1.090   0.836  0.00  0.00    -0.479 OA
ATOM     12  H   UNL     1       5.757  -0.247   1.170  0.00  0.00    +0.295 HD
ENDBRANCH   9  11
ENDBRANCH   8   9
BRANCH   8  13
ATOM     13  O   UNL     1       4.889   1.277   1.327  0.00  0.00    -0.379 OA
ATOM     14  H   UNL     1       4.517   1.736   2.116  0.00  0.00    +0.211 HD
ENDBRANCH   8  13
ENDBRANCH   7   8
ENDBRANCH   1   7
BRANCH   4  15
ATOM     15  C   UNL     1       2.188   5.094   3.677  0.00  0.00    +0.141 C 
BRANCH  15  16
ATOM     16  C   UNL     1       1.078   6.085   3.916  0.00  0.00    -0.030 A 
ATOM     17  C   UNL     1       1.308   7.464   3.803  0.00  0.00    +0.005 A 
ATOM     18  C   UNL     1       0.281   8.376   4.059  0.00  0.00    +0.000 A 
ATOM     19  C   UNL     1      -0.984   7.921   4.429  0.00  0.00    +0.000 A 
ATOM     20  C   UNL     1      -1.223   6.554   4.549  0.00  0.00    +0.000 A 
ATOM     21  C   UNL     1      -0.198   5.641   4.298  0.00  0.00    +0.005 A 
ENDBRANCH  15  16
ENDBRANCH   4  15
TORSDOF 7
