REMARK  Name = 
REMARK  7 active torsions:
REMARK  status: ('A' for Active; 'I' for Inactive)
REMARK    1  A    between atoms: O_1  and  N_2
REMARK    2  A    between atoms: C_3  and  C_5
REMARK    3  A    between atoms: C_5  and  C_6
REMARK    4  A    between atoms: C_6  and  O_7
REMARK    5  A    between atoms: O_7  and  C_8
REMARK    6  A    between atoms: C_11  and  C_14
REMARK    7  A    between atoms: C_17  and  C_20
REMARK                            x       y       z     vdW  Elec       q    Type
REMARK                         _______ _______ _______ _____ _____    ______ ____
ROOT
ATOM      1  C   UNL     1       7.243  -1.069   3.731  0.00  0.00    +0.121 A 
ATOM      2  C   UNL     1       7.230  -2.409   4.119  0.00  0.00    +0.046 A 
ATOM      3  C   UNL     1       7.977  -2.839   5.230  0.00  0.00    +0.012 A 
ATOM      4  C   UNL     1       8.769  -1.942   5.971  0.00  0.00    -0.018 A 
ATOM      5  C   UNL     1       8.718  -0.594   5.591  0.00  0.00    +0.012 A 
ATOM      6  C   UNL     1       7.959  -0.159   4.501  0.00  0.00    +0.046 A 
ENDROOT
BRANCH   4   7
ATOM      7  C   UNL     1       9.686  -2.380   7.058  0.00  0.00    -0.018 A 
ATOM      8  C   UNL     1      10.315  -3.637   7.029  0.00  0.00    +0.010 A 
ATOM      9  C   UNL     1      11.273  -4.000   7.986  0.00  0.00    +0.019 A 
ATOM     10  C   UNL     1      11.633  -3.106   8.996  0.00  0.00    +0.052 A 
ATOM     11  C   UNL     1      11.008  -1.863   9.063  0.00  0.00    +0.019 A 
ATOM     12  C   UNL     1      10.037  -1.515   8.115  0.00  0.00    +0.010 A 
BRANCH  10  13
ATOM     13  C   UNL     1      12.645  -3.458   9.947  0.00  0.00    +0.099 C 
ATOM     14  N   UNL     1      13.471  -3.738  10.712  0.00  0.00    -0.191 NA
ENDBRANCH  10  13
ENDBRANCH   4   7
BRANCH   1  15
ATOM     15  O   UNL     1       6.557  -0.752   2.585  0.00  0.00    -0.491 OA
BRANCH  15  16
ATOM     16  C   UNL     1       6.663   0.621   2.173  0.00  0.00    +0.238 C 
BRANCH  16  17
ATOM     17  C   UNL     1       5.968   0.844   0.842  0.00  0.00    +0.139 C 
BRANCH  17  20
ATOM     18  N   UNL     1       4.150  -0.691   1.154  0.00  0.00    -0.197 N 
ATOM     19  H   UNL     1       4.839  -1.325   1.557  0.00  0.00    +0.182 HD
ATOM     20  C   UNL     1       4.480   0.634   0.967  0.00  0.00    +0.239 C 
ATOM     21  O   UNL     1       3.689   1.567   0.873  0.00  0.00    -0.274 OA
BRANCH  18  22
ATOM     22  O   UNL     1       2.784  -0.968   1.363  0.00  0.00    -0.295 OA
ATOM     23  H   UNL     1       2.790  -1.854   1.764  0.00  0.00    +0.241 HD
ENDBRANCH  18  22
ENDBRANCH  17  20
ENDBRANCH  16  17
ENDBRANCH  15  16
ENDBRANCH   1  15
TORSDOF 7
