REMARK  Name = 
REMARK  7 active torsions:
REMARK  status: ('A' for Active; 'I' for Inactive)
REMARK    1  A    between atoms: C_1  and  C_2
REMARK    2  A    between atoms: C_2  and  C_3
REMARK    3  A    between atoms: C_3  and  C_4
REMARK    4  A    between atoms: C_4  and  N_5
REMARK    5  A    between atoms: C_6  and  C_7
REMARK    6  A    between atoms: C_7  and  C_8
REMARK    7  A    between atoms: C_19  and  N_20
REMARK                            x       y       z     vdW  Elec       q    Type
REMARK                         _______ _______ _______ _____ _____    ______ ____
ROOT
ATOM      1  N   UNL     1       4.967   1.798   2.125  0.00  0.00    -0.312 N 
ATOM      2  C   UNL     1       5.692   1.764   3.294  0.00  0.00    +0.166 A 
ATOM      3  C   UNL     1       5.832   3.088   3.666  0.00  0.00    +0.148 A 
ATOM      4  C   UNL     1       6.397   3.329   4.931  0.00  0.00    +0.147 A 
ATOM      5  N   UNL     1       6.858   2.276   5.645  0.00  0.00    -0.219 NA
ATOM      6  C   UNL     1       6.699   1.038   5.132  0.00  0.00    +0.225 A 
ATOM      7  N   UNL     1       5.340   3.918   2.681  0.00  0.00    -0.227 NA
ATOM      8  N   UNL     1       6.101   0.682   3.980  0.00  0.00    -0.216 NA
ATOM      9  C   UNL     1       4.863   3.119   1.736  0.00  0.00    +0.116 A 
ENDROOT
BRANCH   4  10
ATOM     10  N   UNL     1       6.496   4.589   5.502  0.00  0.00    -0.341 N 
ATOM     11  H   UNL     1       7.182   4.631   6.242  0.00  0.00    +0.144 HD
ATOM     12  H   UNL     1       6.445   5.353   4.839  0.00  0.00    +0.144 HD
ENDBRANCH   4  10
BRANCH   1  13
ATOM     13  C   UNL     1       4.294   0.636   1.587  0.00  0.00    +0.125 C 
BRANCH  13  14
ATOM     14  C   UNL     1       4.667   0.221   0.167  0.00  0.00    +0.021 C 
BRANCH  14  16
ATOM     15  C   UNL     1       6.463  -0.313  -1.490  0.00  0.00    +0.004 C 
ATOM     16  C   UNL     1       6.164   0.019  -0.038  0.00  0.00    -0.002 C 
ENDBRANCH  14  16
ENDBRANCH  13  14
ENDBRANCH   1  13
BRANCH   9  17
ATOM     17  C   UNL     1       4.209   3.597   0.471  0.00  0.00    +0.109 C 
BRANCH  17  18
ATOM     18  C   UNL     1       5.124   3.992  -0.681  0.00  0.00    -0.036 A 
ATOM     19  C   UNL     1       6.522   3.773  -0.701  0.00  0.00    +0.008 A 
ATOM     20  C   UNL     1       7.330   4.291  -1.728  0.00  0.00    +0.050 A 
ATOM     21  C   UNL     1       6.721   5.055  -2.698  0.00  0.00    +0.166 A 
ATOM     22  O   UNL     1       7.345   5.744  -3.692  0.00  0.00    -0.453 OA
ATOM     23  C   UNL     1       6.245   6.544  -4.174  0.00  0.00    +0.466 C 
ATOM     24  O   UNL     1       4.962   6.053  -3.734  0.00  0.00    -0.453 OA
ATOM     25  C   UNL     1       5.359   5.236  -2.719  0.00  0.00    +0.166 A 
ATOM     26  C   UNL     1       4.537   4.689  -1.757  0.00  0.00    +0.053 A 
ENDBRANCH  17  18
ENDBRANCH   9  17
TORSDOF 6
