REMARK  Name = 
REMARK  5 active torsions:
REMARK  status: ('A' for Active; 'I' for Inactive)
REMARK    1  A    between atoms: C_2  and  N_3
REMARK    2  A    between atoms: C_8  and  C_10
REMARK    3  A    between atoms: C_23  and  C_25
REMARK    4  A    between atoms: C_29  and  S_31
REMARK    5  A    between atoms: S_31  and  C_32
REMARK                            x       y       z     vdW  Elec       q    Type
REMARK                         _______ _______ _______ _____ _____    ______ ____
ROOT
ATOM      1  C   UNL     1       2.109   0.138   0.042  0.00  0.00    +0.076 C 
ATOM      2  C   UNL     1       2.727   1.084  -1.038  0.00  0.00    +0.042 C 
ATOM      3  C   UNL     1       2.138   0.706  -2.419  0.00  0.00    +0.029 C 
ATOM      4  C   UNL     1       2.356  -0.770  -2.764  0.00  0.00    +0.107 C 
ATOM      5  N   UNL     1       1.846  -1.601  -1.680  0.00  0.00    -0.314 N 
ATOM      6  C   UNL     1       1.174  -2.765  -1.997  0.00  0.00    +0.125 A 
ATOM      7  C   UNL     1       1.229  -3.869  -1.174  0.00  0.00    +0.072 A 
ATOM      8  C   UNL     1       0.394  -4.943  -1.431  0.00  0.00    +0.076 A 
ATOM      9  N   UNL     1      -0.435  -4.951  -2.489  0.00  0.00    -0.235 NA
ATOM     10  C   UNL     1      -0.379  -3.866  -3.273  0.00  0.00    +0.223 A 
ATOM     11  N   UNL     1       0.387  -2.780  -3.084  0.00  0.00    -0.221 NA
ATOM     12  C   UNL     1       2.362  -1.341  -0.330  0.00  0.00    +0.125 C 
ENDROOT
BRANCH   2  13
ATOM     13  C   UNL     1       4.256   1.207  -0.950  0.00  0.00    -0.005 A 
ATOM     14  C   UNL     1       5.117   1.150  -2.062  0.00  0.00    +0.130 A 
ATOM     15  F   UNL     1       4.648   0.938  -3.297  0.00  0.00    -0.205 F 
ATOM     16  C   UNL     1       6.496   1.328  -1.951  0.00  0.00    +0.080 A 
ATOM     17  C   UNL     1       7.050   1.590  -0.710  0.00  0.00    +0.161 A 
ATOM     18  F   UNL     1       8.370   1.780  -0.605  0.00  0.00    -0.202 F 
ATOM     19  C   UNL     1       6.234   1.672   0.408  0.00  0.00    +0.159 A 
ATOM     20  F   UNL     1       6.764   1.946   1.608  0.00  0.00    -0.202 F 
ATOM     21  C   UNL     1       4.854   1.490   0.297  0.00  0.00    +0.048 A 
ENDBRANCH   2  13
BRANCH   8  22
ATOM     22  C   UNL     1       0.308  -6.072  -0.482  0.00  0.00    +0.002 A 
ATOM     23  C   UNL     1       1.418  -6.461   0.289  0.00  0.00    +0.037 A 
ATOM     24  C   UNL     1       1.290  -7.413   1.304  0.00  0.00    +0.088 A 
ATOM     25  C   UNL     1       0.064  -8.024   1.558  0.00  0.00    +0.027 A 
ATOM     26  C   UNL     1      -1.035  -7.690   0.770  0.00  0.00    +0.002 A 
ATOM     27  C   UNL     1      -0.913  -6.724  -0.238  0.00  0.00    +0.010 A 
BRANCH  24  28
ATOM     28  S   UNL     1       2.691  -7.739   2.348  0.00  0.00    -0.006 S 
ATOM     29  O   UNL     1       2.186  -8.230   3.617  0.00  0.00    -0.170 OA
ATOM     30  O   UNL     1       3.554  -6.575   2.295  0.00  0.00    -0.170 OA
ATOM     31  C   UNL     1       3.513  -9.075   1.524  0.00  0.00    +0.200 C 
ENDBRANCH  24  28
ENDBRANCH   8  22
BRANCH   1  32
ATOM     32  N   UNL     1       0.649   0.351   0.198  0.00  0.00    -0.325 NA
ATOM     33  H   UNL     1       0.416   1.336   0.110  0.00  0.00    +0.119 HD
ATOM     34  H   UNL     1       0.179  -0.129  -0.579  0.00  0.00    +0.119 HD
ENDBRANCH   1  32
TORSDOF 4
