REMARK  Name = 
REMARK  3 active torsions:
REMARK  status: ('A' for Active; 'I' for Inactive)
REMARK    1  A    between atoms: C_1  and  N_2
REMARK    2  A    between atoms: C_7  and  O_8
REMARK    3  A    between atoms: C_9  and  C_10
REMARK                            x       y       z     vdW  Elec       q    Type
REMARK                         _______ _______ _______ _____ _____    ______ ____
ROOT
ATOM      1  C   UNL     1       0.974   0.116   0.049  0.00  0.00    +0.148 C 
ATOM      2  N   UNL     1       2.441   0.077   0.128  0.00  0.00    -0.351 N 
ATOM      3  C   UNL     1       3.145  -1.149   0.197  0.00  0.00    +0.061 A 
ATOM      4  C   UNL     1       2.352  -2.435   0.230  0.00  0.00    +0.067 C 
ATOM      5  C   UNL     1       4.494  -1.189   0.241  0.00  0.00    +0.183 A 
ATOM      6  C   UNL     1       5.257   0.095   0.232  0.00  0.00    +0.223 A 
ATOM      7  O   UNL     1       6.485   0.079   0.262  0.00  0.00    -0.284 OA
ATOM      8  C   UNL     1       4.494   1.355   0.197  0.00  0.00    +0.072 A 
ATOM      9  C   UNL     1       3.162   1.266   0.146  0.00  0.00    +0.089 A 
ENDROOT
BRANCH   5  10
ATOM     10  O   UNL     1       5.229  -2.359   0.293  0.00  0.00    -0.502 OA
ATOM     11  H   UNL     1       6.163  -2.062   0.300  0.00  0.00    +0.292 HD
ENDBRANCH   5  10
TORSDOF 1
