REMARK  Name = 
REMARK  7 active torsions:
REMARK  status: ('A' for Active; 'I' for Inactive)
REMARK    1  A    between atoms: O_1  and  C_2
REMARK    2  A    between atoms: C_2  and  N_3
REMARK    3  A    between atoms: N_3  and  O_4
REMARK    4  A    between atoms: N_3  and  C_5
REMARK    5  A    between atoms: C_5  and  C_6
REMARK    6  A    between atoms: C_6  and  C_7
REMARK    7  A    between atoms: C_7  and  C_8
REMARK                            x       y       z     vdW  Elec       q    Type
REMARK                         _______ _______ _______ _____ _____    ______ ____
ROOT
ATOM      1  C   UNL     1       4.845  -1.791   2.179  0.00  0.00    +0.022 C 
ENDROOT
BRANCH   1   2
ATOM      2  C   UNL     1       4.335  -0.860   1.072  0.00  0.00    +0.117 C 
BRANCH   2   3
ATOM      3  N   UNL     1       2.869  -0.795   1.067  0.00  0.00    -0.165 NA
BRANCH   3   4
ATOM      4  O   UNL     1       2.404  -2.119   0.664  0.00  0.00    -0.310 OA
ATOM      5  H   UNL     1       1.437  -2.004   0.785  0.00  0.00    +0.237 HD
ENDBRANCH   3   4
BRANCH   3   6
ATOM      6  C   UNL     1       2.377   0.110   0.037  0.00  0.00    +0.270 C 
BRANCH   6   7
ATOM      7  O   UNL     1       0.961  -0.006  -0.036  0.00  0.00    -0.378 OA
ATOM      8  H   UNL     1       0.665   0.706  -0.627  0.00  0.00    +0.211 HD
ENDBRANCH   6   7
ENDBRANCH   3   6
ENDBRANCH   2   3
ENDBRANCH   1   2
BRANCH   1   9
ATOM      9  C   UNL     1       6.374  -1.831   2.200  0.00  0.00    +0.036 C 
BRANCH   9  10
ATOM     10  C   UNL     1       6.898  -2.750   3.275  0.00  0.00    -0.047 A 
ATOM     11  C   UNL     1       7.153  -2.264   4.564  0.00  0.00    +0.003 A 
ATOM     12  C   UNL     1       7.627  -3.118   5.561  0.00  0.00    +0.000 A 
ATOM     13  C   UNL     1       7.844  -4.466   5.281  0.00  0.00    +0.000 A 
ATOM     14  C   UNL     1       7.584  -4.962   4.005  0.00  0.00    +0.000 A 
ATOM     15  C   UNL     1       7.109  -4.109   3.007  0.00  0.00    +0.003 A 
ENDBRANCH   9  10
ENDBRANCH   1   9
TORSDOF 7
