REMARK  Name = 
REMARK  20 active torsions:
REMARK  status: ('A' for Active; 'I' for Inactive)
REMARK    1  A    between atoms: C_1  and  C_2
REMARK    2  A    between atoms: C_2  and  C_3
REMARK    3  A    between atoms: C_3  and  C_4
REMARK    4  A    between atoms: C_4  and  C_5
REMARK    5  A    between atoms: C_5  and  C_6
REMARK    6  A    between atoms: C_6  and  C_7
REMARK    7  A    between atoms: C_7  and  C_8
REMARK    8  A    between atoms: C_8  and  C_9
REMARK    9  A    between atoms: C_9  and  C_10
REMARK   10  A    between atoms: C_10  and  C_12
REMARK   11  A    between atoms: C_12  and  N_13
REMARK   12  A    between atoms: C_14  and  C_15
REMARK   13  A    between atoms: C_16  and  C_17
REMARK   14  A    between atoms: C_17  and  O_18
REMARK   15  A    between atoms: O_18  and  P_19
REMARK   16  A    between atoms: P_19  and  O_20
REMARK   17  A    between atoms: P_19  and  O_21
REMARK   18  A    between atoms: P_19  and  O_22
REMARK   19  A    between atoms: C_25  and  C_26
REMARK   20  A    between atoms: C_27  and  O_28
REMARK                            x       y       z     vdW  Elec       q    Type
REMARK                         _______ _______ _______ _____ _____    ______ ____
ROOT
ATOM      1  C   UNL     1      14.521  -3.372   5.493  0.00  0.00    +0.043 A 
ATOM      2  C   UNL     1      14.385  -2.926   6.817  0.00  0.00    +0.147 A 
ATOM      3  C   UNL     1      15.519  -2.475   7.494  0.00  0.00    +0.080 A 
ATOM      4  C   UNL     1      15.459  -2.013   8.920  0.00  0.00    +0.069 C 
ATOM      5  N   UNL     1      16.739  -2.422   6.908  0.00  0.00    -0.256 NA
ATOM      6  C   UNL     1      16.829  -2.812   5.616  0.00  0.00    +0.117 A 
ATOM      7  C   UNL     1      15.766  -3.285   4.848  0.00  0.00    +0.009 A 
ENDROOT
BRANCH   2   8
ATOM      8  O   UNL     1      13.147  -2.881   7.400  0.00  0.00    -0.504 OA
ATOM      9  H   UNL     1      13.223  -2.865   8.365  0.00  0.00    +0.292 HD
ENDBRANCH   2   8
BRANCH   1  11
ATOM     10  N   UNL     1      12.433  -4.627   5.407  0.00  0.00    -0.283 NA
ATOM     11  C   UNL     1      13.371  -3.994   4.791  0.00  0.00    +0.117 C 
BRANCH  10  12
ATOM     12  C   UNL     1      11.418  -5.275   4.572  0.00  0.00    +0.215 C 
BRANCH  12  13
ATOM     13  C   UNL     1      10.693  -4.298   3.659  0.00  0.00    +0.154 C 
ATOM     14  O   UNL     1      11.280  -3.703   2.750  0.00  0.00    -0.295 OA
BRANCH  13  15
ATOM     15  C   UNL     1       9.203  -4.129   3.890  0.00  0.00    +0.076 C 
BRANCH  15  16
ATOM     16  C   UNL     1       8.603  -3.172   2.866  0.00  0.00    +0.008 C 
BRANCH  16  17
ATOM     17  C   UNL     1       7.095  -3.025   3.028  0.00  0.00    +0.000 C 
BRANCH  17  18
ATOM     18  C   UNL     1       6.545  -2.064   1.974  0.00  0.00    +0.000 C 
BRANCH  18  19
ATOM     19  C   UNL     1       5.035  -1.896   2.107  0.00  0.00    +0.000 C 
BRANCH  19  20
ATOM     20  C   UNL     1       4.496  -0.934   1.050  0.00  0.00    -0.000 C 
BRANCH  20  21
ATOM     21  C   UNL     1       2.984  -0.764   1.184  0.00  0.00    -0.000 C 
BRANCH  21  23
ATOM     22  C   UNL     1       0.929   0.359   0.266  0.00  0.00    +0.004 C 
ATOM     23  C   UNL     1       2.436   0.194   0.130  0.00  0.00    -0.003 C 
ENDBRANCH  21  23
ENDBRANCH  20  21
ENDBRANCH  19  20
ENDBRANCH  18  19
ENDBRANCH  17  18
ENDBRANCH  16  17
ENDBRANCH  15  16
ENDBRANCH  13  15
ENDBRANCH  12  13
ENDBRANCH  10  12
ENDBRANCH   1  11
BRANCH   7  24
ATOM     24  C   UNL     1      16.032  -3.630   3.409  0.00  0.00    +0.208 C 
BRANCH  24  25
ATOM     25  O   UNL     1      16.999  -4.667   3.326  0.00  0.00    -0.293 OA
BRANCH  25  26
ATOM     26  P   UNL     1      17.441  -5.095   1.870  0.00  0.00    +0.376 P 
BRANCH  26  27
ATOM     27  O   UNL     1      18.514  -6.248   1.879  0.00  0.00    -0.314 OA
ATOM     28  H   UNL     1      18.246  -7.096   2.278  0.00  0.00    +0.221 HD
ENDBRANCH  26  27
BRANCH  26  29
ATOM     29  O   UNL     1      16.226  -5.543   0.971  0.00  0.00    -0.314 OA
ATOM     30  H   UNL     1      15.729  -6.339   1.232  0.00  0.00    +0.221 HD
ENDBRANCH  26  29
BRANCH  26  31
ATOM     31  O   UNL     1      18.135  -3.872   1.147  0.00  0.00    -0.314 OA
ATOM     32  H   UNL     1      19.048  -3.702   1.442  0.00  0.00    +0.221 HD
ENDBRANCH  26  31
ENDBRANCH  25  26
ENDBRANCH  24  25
ENDBRANCH   7  24
TORSDOF 18
