REMARK  Name = 
REMARK  2 active torsions:
REMARK  status: ('A' for Active; 'I' for Inactive)
REMARK    1  A    between atoms: C_1  and  C_2
REMARK    2  A    between atoms: N_4  and  C_5
REMARK                            x       y       z     vdW  Elec       q    Type
REMARK                         _______ _______ _______ _____ _____    ______ ____
ROOT
ATOM      1  C   UNL     1       4.603   0.708  -1.156  0.00  0.00    +0.043 A 
ATOM      2  C   UNL     1       5.285   1.815  -0.661  0.00  0.00    +0.034 A 
ATOM      3  C   UNL     1       6.680   1.828  -0.623  0.00  0.00    +0.004 A 
ATOM      4  C   UNL     1       7.425   0.731  -1.117  0.00  0.00    +0.097 A 
ATOM      5  N   UNL     1       8.782   0.776  -1.083  0.00  0.00    -0.253 NA
ATOM      6  C   UNL     1       9.408   1.858  -0.574  0.00  0.00    +0.111 A 
ATOM      7  C   UNL     1       8.746   2.953  -0.065  0.00  0.00    +0.020 A 
ATOM      8  C   UNL     1       6.740  -0.384  -1.638  0.00  0.00    +0.099 A 
ATOM      9  N   UNL     1       7.443  -1.429  -2.149  0.00  0.00    -0.253 NA
ATOM     10  C   UNL     1       6.798  -2.483  -2.684  0.00  0.00    +0.111 A 
ATOM     11  C   UNL     1       5.430  -2.588  -2.733  0.00  0.00    +0.020 A 
ATOM     12  C   UNL     1       4.689  -1.543  -2.204  0.00  0.00    +0.013 A 
ATOM     13  C   UNL     1       7.360   2.934  -0.090  0.00  0.00    +0.011 A 
ATOM     14  C   UNL     1       5.321  -0.409  -1.643  0.00  0.00    +0.024 A 
ENDROOT
BRANCH   1  17
ATOM     15  C   UNL     1       0.956   1.504  -1.535  0.00  0.00    +0.109 C 
ATOM     16  C   UNL     1       2.436   1.760  -1.623  0.00  0.00    +0.214 C 
ATOM     17  N   UNL     1       3.188   0.704  -1.138  0.00  0.00    -0.285 N 
ATOM     18  H   UNL     1       2.724  -0.193  -1.105  0.00  0.00    +0.155 HD
ATOM     19  O   UNL     1       2.885   2.796  -2.103  0.00  0.00    -0.276 OA
ENDBRANCH   1  17
TORSDOF 1
