REMARK  Name = 
REMARK  5 active torsions:
REMARK  status: ('A' for Active; 'I' for Inactive)
REMARK    1  A    between atoms: C_1  and  N_2
REMARK    2  A    between atoms: N_2  and  C_3
REMARK    3  A    between atoms: N_2  and  C_4
REMARK    4  A    between atoms: C_7  and  C_10
REMARK    5  A    between atoms: C_10  and  O_11
REMARK                            x       y       z     vdW  Elec       q    Type
REMARK                         _______ _______ _______ _____ _____    ______ ____
ROOT
ATOM      1  C   UNL     1       3.096   0.609  -1.138  0.00  0.00    +0.029 A 
ATOM      2  C   UNL     1       3.721  -0.202  -2.101  0.00  0.00    +0.024 A 
ATOM      3  C   UNL     1       4.237   0.327  -3.295  0.00  0.00    +0.017 A 
ATOM      4  C   UNL     1       4.162   1.696  -3.546  0.00  0.00    +0.059 A 
ATOM      5  C   UNL     1       3.609   2.535  -2.582  0.00  0.00    +0.017 A 
ATOM      6  C   UNL     1       3.080   1.990  -1.403  0.00  0.00    +0.024 A 
ENDROOT
BRANCH   1   8
ATOM      7  C   UNL     1       1.338   0.752   0.555  0.00  0.00    +0.129 C 
ATOM      8  N   UNL     1       2.540   0.100   0.037  0.00  0.00    -0.336 N 
ATOM      9  C   UNL     1       2.733  -1.301   0.399  0.00  0.00    +0.129 C 
ENDBRANCH   1   8
BRANCH   4  10
ATOM     10  C   UNL     1       4.706   2.220  -4.823  0.00  0.00    +0.337 C 
ATOM     11  O   UNL     1       5.647   1.709  -5.405  0.00  0.00    -0.245 OA
BRANCH  10  12
ATOM     12  O   UNL     1       4.024   3.280  -5.307  0.00  0.00    -0.477 OA
ATOM     13  H   UNL     1       3.188   3.478  -4.845  0.00  0.00    +0.295 HD
ENDBRANCH  10  12
ENDBRANCH   4  10
TORSDOF 3
