REMARK  Name = 
REMARK  7 active torsions:
REMARK  status: ('A' for Active; 'I' for Inactive)
REMARK    1  A    between atoms: C_1  and  C_2
REMARK    2  A    between atoms: C_12  and  S_14
REMARK    3  A    between atoms: S_14  and  C_15
REMARK    4  A    between atoms: C_15  and  C_16
REMARK    5  A    between atoms: N_18  and  C_19
REMARK    6  A    between atoms: C_23  and  S_26
REMARK    7  A    between atoms: S_26  and  N_27
REMARK                            x       y       z     vdW  Elec       q    Type
REMARK                         _______ _______ _______ _____ _____    ______ ____
ROOT
ATOM      1  C   UNL     1      11.524  -1.988   1.782  0.00  0.00    +0.228 C 
ATOM      2  N   UNL     1      12.245  -2.013   0.600  0.00  0.00    -0.284 N 
ATOM      3  H   UNL     1      11.752  -1.629  -0.204  0.00  0.00    +0.155 HD
ATOM      4  O   UNL     1      12.032  -1.957   2.902  0.00  0.00    -0.275 OA
ENDROOT
BRANCH   2   5
ATOM      5  C   UNL     1      13.657  -1.983   0.532  0.00  0.00    +0.052 A 
ATOM      6  C   UNL     1      14.447  -2.779   1.371  0.00  0.00    +0.027 A 
ATOM      7  C   UNL     1      15.841  -2.772   1.241  0.00  0.00    +0.030 A 
ATOM      8  C   UNL     1      16.444  -1.938   0.293  0.00  0.00    +0.107 A 
ATOM      9  C   UNL     1      15.669  -1.136  -0.547  0.00  0.00    +0.050 A 
ATOM     10  C   UNL     1      14.279  -1.174  -0.434  0.00  0.00    +0.064 A 
ATOM     11 CL   UNL     1      13.347  -0.140  -1.460  0.00  0.00    -0.082 Cl
BRANCH   8  12
ATOM     12  S   UNL     1      18.201  -1.945   0.099  0.00  0.00    +0.056 S 
ATOM     13  O   UNL     1      18.544  -1.413  -1.201  0.00  0.00    -0.153 OA
ATOM     14  O   UNL     1      18.721  -3.206   0.580  0.00  0.00    -0.153 OA
BRANCH  12  15
ATOM     15  N   UNL     1      18.678  -0.790   1.220  0.00  0.00    -0.204 NA
ATOM     16  H   UNL     1      19.131  -0.009   0.743  0.00  0.00    +0.144 HD
ATOM     17  H   UNL     1      19.259  -1.222   1.939  0.00  0.00    +0.144 HD
ENDBRANCH  12  15
ENDBRANCH   8  12
ENDBRANCH   2   5
BRANCH   1  18
ATOM     18  C   UNL     1      10.009  -2.042   1.603  0.00  0.00    +0.174 C 
BRANCH  18  19
ATOM     19  S   UNL     1       9.442  -0.966   0.246  0.00  0.00    -0.058 S 
BRANCH  19  26
ATOM     20  C   UNL     1       1.097   0.092   0.138  0.00  0.00    +0.044 C 
ATOM     21  C   UNL     1       2.598   0.068   0.119  0.00  0.00    -0.050 A 
ATOM     22  C   UNL     1       3.294  -1.136   0.222  0.00  0.00    +0.005 A 
ATOM     23  C   UNL     1       4.698  -1.163   0.214  0.00  0.00    +0.024 A 
ATOM     24  C   UNL     1       5.458   0.012   0.103  0.00  0.00    +0.040 A 
ATOM     25  N   UNL     1       6.912   0.018   0.076  0.00  0.00    -0.262 N 
ATOM     26  C   UNL     1       7.686  -1.087   0.488  0.00  0.00    +0.279 C 
ATOM     27  O   UNL     1       7.264  -2.117   1.001  0.00  0.00    -0.262 OA
ATOM     28  C   UNL     1       7.506   1.268  -0.436  0.00  0.00    +0.115 C 
ATOM     29  C   UNL     1       6.890   2.485   0.224  0.00  0.00    +0.024 C 
ATOM     30  C   UNL     1       5.430   2.562  -0.160  0.00  0.00    +0.038 C 
ATOM     31  C   UNL     1       4.743   1.230  -0.009  0.00  0.00    -0.026 A 
ATOM     32  C   UNL     1       3.333   1.244  -0.005  0.00  0.00    +0.008 A 
ENDBRANCH  19  26
ENDBRANCH  18  19
ENDBRANCH   1  18
TORSDOF 6
