REMARK  Name = 
REMARK  9 active torsions:
REMARK  status: ('A' for Active; 'I' for Inactive)
REMARK    1  A    between atoms: C_1  and  O_2
REMARK    2  A    between atoms: O_2  and  C_3
REMARK    3  A    between atoms: C_5  and  N_12
REMARK    4  A    between atoms: C_7  and  O_8
REMARK    5  A    between atoms: O_8  and  C_9
REMARK    6  A    between atoms: C_10  and  O_11
REMARK    7  A    between atoms: N_13  and  C_14
REMARK    8  A    between atoms: C_19  and  C_20
REMARK    9  A    between atoms: C_20  and  O_21
REMARK                            x       y       z     vdW  Elec       q    Type
REMARK                         _______ _______ _______ _____ _____    ______ ____
ROOT
ATOM      1  C   UNL     1       2.942   1.004   0.746  0.00  0.00    +0.167 A 
ATOM      2  C   UNL     1       3.837   0.541   1.734  0.00  0.00    +0.201 A 
ATOM      3  C   UNL     1       4.518   1.443   2.557  0.00  0.00    +0.167 A 
ATOM      4  C   UNL     1       4.289   2.816   2.377  0.00  0.00    +0.079 A 
ATOM      5  C   UNL     1       3.411   3.297   1.401  0.00  0.00    +0.093 A 
ATOM      6  C   UNL     1       2.748   2.379   0.582  0.00  0.00    +0.079 A 
ENDROOT
BRANCH   1   8
ATOM      7  C   UNL     1       1.149   0.426  -0.709  0.00  0.00    +0.277 C 
ATOM      8  O   UNL     1       2.360   0.055  -0.059  0.00  0.00    -0.491 OA
ENDBRANCH   1   8
BRANCH   2   9
ATOM      9  O   UNL     1       3.984  -0.817   1.847  0.00  0.00    -0.501 OA
ATOM     10  H   UNL     1       4.930  -1.008   1.766  0.00  0.00    +0.292 HD
ENDBRANCH   2   9
BRANCH   3  11
ATOM     11  O   UNL     1       5.410   1.212   3.564  0.00  0.00    -0.491 OA
ATOM     12  C   UNL     1       5.816  -0.103   3.894  0.00  0.00    +0.277 C 
ENDBRANCH   3  11
BRANCH   5  13
ATOM     13  N   UNL     1       3.241   4.672   1.147  0.00  0.00    -0.149 NA
ATOM     14  N   UNL     1       2.987   5.319   2.186  0.00  0.00    -0.148 NA
BRANCH  14  15
ATOM     15  C   UNL     1       2.800   6.695   1.900  0.00  0.00    +0.100 A 
ATOM     16  C   UNL     1       3.366   7.690   2.717  0.00  0.00    +0.086 A 
ATOM     17  C   UNL     1       3.136   9.051   2.430  0.00  0.00    +0.017 A 
ATOM     18  C   UNL     1       2.336   9.426   1.352  0.00  0.00    +0.001 A 
ATOM     19  C   UNL     1       1.764   8.450   0.546  0.00  0.00    +0.002 A 
ATOM     20  C   UNL     1       1.989   7.098   0.820  0.00  0.00    +0.030 A 
BRANCH  16  21
ATOM     21  C   UNL     1       4.242   7.406   3.885  0.00  0.00    +0.339 C 
ATOM     22  O   UNL     1       5.044   8.224   4.307  0.00  0.00    -0.245 OA
BRANCH  21  23
ATOM     23  O   UNL     1       4.032   6.223   4.495  0.00  0.00    -0.477 OA
ATOM     24  H   UNL     1       3.372   5.650   4.058  0.00  0.00    +0.295 HD
ENDBRANCH  21  23
ENDBRANCH  16  21
ENDBRANCH  14  15
ENDBRANCH   5  13
TORSDOF 7
