REMARK  Name = 
REMARK  8 active torsions:
REMARK  status: ('A' for Active; 'I' for Inactive)
REMARK    1  A    between atoms: C_2  and  C_3
REMARK    2  A    between atoms: C_2  and  N_14
REMARK    3  A    between atoms: C_2  and  B_18
REMARK    4  A    between atoms: C_3  and  C_4
REMARK    5  A    between atoms: C_15  and  C_16
REMARK    6  A    between atoms: B_18  and  O_19
REMARK    7  A    between atoms: B_18  and  O_20
REMARK    8  A    between atoms: B_18  and  O_21
REMARK                            x       y       z     vdW  Elec       q    Type
REMARK                         _______ _______ _______ _____ _____    ______ ____
ROOT
ATOM      1  C   UNL     1       1.880  -0.232   0.008  0.00  0.00    +0.000 C 
ENDROOT
BRANCH   1   2
ATOM      2  N   UNL     1       0.462  -0.467   0.271  0.00  0.00    +0.000 N 
ATOM      3  H   UNL     1      -0.206   0.213  -0.126  0.00  0.00    +0.000 HD
ATOM      4  C   UNL     1      -0.043  -1.518   0.983  0.00  0.00    +0.000 C 
ATOM      5  O   UNL     1       0.691  -2.344   1.497  0.00  0.00    +0.000 OA
ATOM      6  C   UNL     1      -1.520  -1.677   1.158  0.00  0.00    +0.000 C 
ENDBRANCH   1   2
BRANCH   1   7
ATOM      7  B   UNL     1       2.448  -1.365  -1.077  0.00  0.00    +0.000 B 
BRANCH   7   8
ATOM      8  O   UNL     1       3.839  -1.094  -1.511  0.00  0.00    +0.000 OA
ATOM      9  H   UNL     1       4.334  -0.645  -0.788  0.00  0.00    +0.000 HD
ENDBRANCH   7   8
BRANCH   7  10
ATOM     10  O   UNL     1       1.628  -1.350  -2.323  0.00  0.00    +0.000 OA
ATOM     11  H   UNL     1       0.771  -0.884  -2.160  0.00  0.00    +0.000 HD
ENDBRANCH   7  10
BRANCH   7  12
ATOM     12  O   UNL     1       2.411  -2.721  -0.484  0.00  0.00    +0.000 OA
ATOM     13  H   UNL     1       1.726  -3.249  -0.974  0.00  0.00    +0.000 HD
ENDBRANCH   7  12
ENDBRANCH   1   7
BRANCH   1  14
ATOM     14  C   UNL     1       2.684  -0.065   1.343  0.00  0.00    +0.000 C 
BRANCH  14  15
ATOM     15  C   UNL     1       2.301   1.116   2.249  0.00  0.00    +0.000 A 
ATOM     16  C   UNL     1       1.290   2.036   1.884  0.00  0.00    +0.000 A 
ATOM     17  C   UNL     1       0.971   3.126   2.691  0.00  0.00    +0.000 A 
ATOM     18  C   UNL     1       1.654   3.348   3.879  0.00  0.00    +0.000 A 
ATOM     19  C   UNL     1       2.663   2.469   4.284  0.00  0.00    +0.000 A 
ATOM     20  C   UNL     1       3.353   2.714   5.482  0.00  0.00    +0.000 A 
ATOM     21  C   UNL     1       4.355   1.845   5.907  0.00  0.00    +0.000 A 
ATOM     22  C   UNL     1       4.675   0.723   5.145  0.00  0.00    +0.000 A 
ATOM     23  C   UNL     1       4.006   0.469   3.944  0.00  0.00    +0.000 A 
ATOM     24  C   UNL     1       2.990   1.337   3.482  0.00  0.00    +0.000 A 
ENDBRANCH  14  15
ENDBRANCH   1  14
TORSDOF 7
