REMARK  Name = 
REMARK  6 active torsions:
REMARK  status: ('A' for Active; 'I' for Inactive)
REMARK    1  A    between atoms: N_1  and  C_2
REMARK    2  A    between atoms: C_2  and  C_3
REMARK    3  A    between atoms: C_3  and  N_4
REMARK    4  A    between atoms: C_8  and  C_10
REMARK    5  A    between atoms: C_11  and  N_12
REMARK    6  A    between atoms: N_12  and  C_13
REMARK                            x       y       z     vdW  Elec       q    Type
REMARK                         _______ _______ _______ _____ _____    ______ ____
ROOT
ATOM      1  C   UNL     1       5.117  -6.293  -0.704  0.00  0.00    +0.063 A 
ATOM      2  C   UNL     1       5.807  -7.384  -1.281  0.00  0.00    +0.018 A 
ATOM      3  C   UNL     1       5.582  -8.697  -0.863  0.00  0.00    +0.042 A 
ATOM      4  C   UNL     1       4.640  -8.941   0.126  0.00  0.00    +0.160 A 
ATOM      5  F   UNL     1       4.376 -10.203   0.491  0.00  0.00    -0.202 F 
ATOM      6  C   UNL     1       3.984  -7.881   0.743  0.00  0.00    +0.180 A 
ATOM      7  F   UNL     1       3.092  -8.139   1.715  0.00  0.00    -0.201 F 
ATOM      8  C   UNL     1       4.234  -6.541   0.382  0.00  0.00    +0.082 A 
ENDROOT
BRANCH   1  13
ATOM      9  N   UNL     1       7.163  -3.058  -3.399  0.00  0.00    -0.296 N 
ATOM     10  H   UNL     1       8.089  -3.467  -3.295  0.00  0.00    +0.150 HD
ATOM     11  C   UNL     1       6.212  -3.514  -2.565  0.00  0.00    +0.308 A 
ATOM     12  O   UNL     1       6.416  -4.765  -2.059  0.00  0.00    -0.405 OA
ATOM     13  C   UNL     1       5.270  -4.975  -1.329  0.00  0.00    +0.252 A 
ATOM     14  N   UNL     1       4.455  -3.939  -1.381  0.00  0.00    -0.106 NA
ATOM     15  N   UNL     1       5.074  -2.988  -2.170  0.00  0.00    -0.092 NA
BRANCH   9  16
ATOM     16  C   UNL     1       7.202  -1.645  -3.736  0.00  0.00    +0.121 C 
BRANCH  16  17
ATOM     17  C   UNL     1       8.243  -0.908  -2.870  0.00  0.00    +0.096 C 
BRANCH  17  18
ATOM     18  N   UNL     1       9.589  -1.487  -3.008  0.00  0.00    -0.329 NA
ATOM     19  H   UNL     1       9.932  -1.316  -3.954  0.00  0.00    +0.118 HD
ATOM     20  H   UNL     1      10.227  -0.983  -2.390  0.00  0.00    +0.118 HD
ENDBRANCH  17  18
ENDBRANCH  16  17
ENDBRANCH   9  16
ENDBRANCH   1  13
BRANCH   8  21
ATOM     21  N   UNL     1       3.656  -5.540   1.205  0.00  0.00    -0.309 N 
ATOM     22  H   UNL     1       2.835  -5.850   1.719  0.00  0.00    +0.152 HD
BRANCH  21  23
ATOM     23  C   UNL     1       4.183  -4.306   1.639  0.00  0.00    +0.067 A 
ATOM     24  C   UNL     1       5.556  -4.004   1.638  0.00  0.00    +0.145 A 
ATOM     25  F   UNL     1       6.466  -4.975   1.458  0.00  0.00    -0.204 F 
ATOM     26  C   UNL     1       6.024  -2.703   1.792  0.00  0.00    +0.054 A 
ATOM     27  C   UNL     1       5.110  -1.676   1.989  0.00  0.00    +0.016 A 
ATOM     28  I   UNL     1       5.774   0.291   2.049  0.00  0.00    -0.044 I 
ATOM     29  C   UNL     1       3.748  -1.957   2.102  0.00  0.00    +0.016 A 
ATOM     30  C   UNL     1       3.289  -3.268   1.932  0.00  0.00    +0.027 A 
ENDBRANCH  21  23
ENDBRANCH   8  21
TORSDOF 6
