REMARK  Name = 
REMARK  5 active torsions:
REMARK  status: ('A' for Active; 'I' for Inactive)
REMARK    1  A    between atoms: C_2  and  C_3
REMARK    2  A    between atoms: C_3  and  N_4
REMARK    3  A    between atoms: C_5  and  C_7
REMARK    4  A    between atoms: N_14  and  C_18
REMARK    5  A    between atoms: C_21  and  N_24
REMARK                            x       y       z     vdW  Elec       q    Type
REMARK                         _______ _______ _______ _____ _____    ______ ____
ROOT
ATOM      1  C   UNL     1       2.141   0.059   0.173  0.00  0.00    +0.213 C 
ATOM      2  O   UNL     1       2.659  -1.041   0.934  0.00  0.00    -0.444 OA
ATOM      3  C   UNL     1       3.909  -0.672   1.373  0.00  0.00    +0.408 C 
ATOM      4  O   UNL     1       4.673  -1.484   1.869  0.00  0.00    -0.226 OA
ATOM      5  N   UNL     1       4.076   0.698   1.189  0.00  0.00    -0.234 N 
ATOM      6  C   UNL     1       2.816   1.256   0.798  0.00  0.00    +0.163 C 
ENDROOT
BRANCH   5   7
ATOM      7  C   UNL     1       5.230   1.466   1.471  0.00  0.00    +0.040 A 
ATOM      8  C   UNL     1       5.203   2.865   1.425  0.00  0.00    +0.025 A 
ATOM      9  C   UNL     1       6.334   3.629   1.763  0.00  0.00    +0.025 A 
ATOM     10  C   UNL     1       7.525   3.020   2.172  0.00  0.00    +0.037 A 
ATOM     11  C   UNL     1       7.570   1.623   2.135  0.00  0.00    +0.025 A 
ATOM     12  C   UNL     1       6.442   0.860   1.797  0.00  0.00    +0.025 A 
BRANCH  10  13
ATOM     13  N   UNL     1       8.613   3.766   2.724  0.00  0.00    -0.267 N 
ATOM     14  C   UNL     1       9.899   3.217   2.867  0.00  0.00    +0.246 C 
ATOM     15  O   UNL     1      10.378   2.330   2.159  0.00  0.00    -0.273 OA
ATOM     16  C   UNL     1      10.651   3.705   4.120  0.00  0.00    +0.256 C 
ATOM     17  O   UNL     1      10.403   5.025   4.579  0.00  0.00    -0.369 OA
ATOM     18  C   UNL     1       9.000   5.273   4.635  0.00  0.00    +0.180 C 
ATOM     19  C   UNL     1       8.408   5.121   3.238  0.00  0.00    +0.142 C 
ENDBRANCH  10  13
ENDBRANCH   5   7
BRANCH   1  20
ATOM     20  C   UNL     1       0.622   0.107   0.270  0.00  0.00    +0.150 C 
BRANCH  20  21
ATOM     21  N   UNL     1       0.008  -1.051  -0.349  0.00  0.00    -0.307 N 
ATOM     22  H   UNL     1      -0.049  -1.909   0.187  0.00  0.00    +0.149 HD
ATOM     23  C   UNL     1      -0.253  -1.132  -1.700  0.00  0.00    +0.251 C 
ATOM     24  O   UNL     1      -0.012  -0.191  -2.453  0.00  0.00    -0.270 OA
BRANCH  23  25
ATOM     25  C   UNL     1      -0.813  -2.398  -2.155  0.00  0.00    +0.075 A 
ATOM     26  S   UNL     1      -1.107  -3.703  -1.073  0.00  0.00    -0.072 S 
ATOM     27  C   UNL     1      -1.751  -4.661  -2.309  0.00  0.00    +0.079 A 
ATOM     28 CL   UNL     1      -2.330  -6.235  -1.940  0.00  0.00    -0.076 Cl
ATOM     29  C   UNL     1      -1.745  -4.051  -3.531  0.00  0.00    +0.028 A 
ATOM     30  C   UNL     1      -1.192  -2.736  -3.445  0.00  0.00    +0.022 A 
ENDBRANCH  23  25
ENDBRANCH  20  21
ENDBRANCH   1  20
TORSDOF 5
