REMARK  Name = 
REMARK  5 active torsions:
REMARK  status: ('A' for Active; 'I' for Inactive)
REMARK    1  A    between atoms: C_2  and  C_3
REMARK    2  A    between atoms: C_2  and  C_5
REMARK    3  A    between atoms: C_2  and  C_11
REMARK    4  A    between atoms: C_3  and  C_4
REMARK    5  A    between atoms: C_12  and  O_13
REMARK                            x       y       z     vdW  Elec       q    Type
REMARK                         _______ _______ _______ _____ _____    ______ ____
ROOT
ATOM      1  C   UNL     1       2.401   1.226   1.014  0.00  0.00    +0.086 A 
ATOM      2  C   UNL     1       3.615   1.115   1.873  0.00  0.00    +0.344 A 
ATOM      3  O   UNL     1       4.321   0.113   1.853  0.00  0.00    -0.245 OA
ATOM      4  O   UNL     1       3.929   2.182   2.671  0.00  0.00    -0.427 OA
ATOM      5  C   UNL     1       3.087   3.312   2.765  0.00  0.00    +0.116 A 
ATOM      6  C   UNL     1       3.614   4.420   3.635  0.00  0.00    +0.075 C 
ATOM      7  C   UNL     1       3.900   5.709   2.851  0.00  0.00    +0.008 C 
ATOM      8  C   UNL     1       2.668   6.514   2.423  0.00  0.00    +0.001 C 
ATOM      9  C   UNL     1       1.686   5.792   1.500  0.00  0.00    +0.005 C 
ATOM     10  C   UNL     1       1.038   4.583   2.170  0.00  0.00    +0.042 C 
ATOM     11  C   UNL     1       1.938   3.379   2.080  0.00  0.00    +0.033 A 
ATOM     12  C   UNL     1       1.627   2.319   1.152  0.00  0.00    +0.134 A 
ENDROOT
BRANCH  12  13
ATOM     13  O   UNL     1       0.502   2.561   0.395  0.00  0.00    -0.506 OA
ATOM     14  H   UNL     1       0.599   2.129  -0.468  0.00  0.00    +0.292 HD
ENDBRANCH  12  13
BRANCH   1  15
ATOM     15  C   UNL     1       2.136   0.060   0.059  0.00  0.00    +0.059 C 
BRANCH  15  16
ATOM     16  C   UNL     1       2.112   0.535  -1.408  0.00  0.00    -0.040 A 
ATOM     17  C   UNL     1       0.961   0.462  -2.214  0.00  0.00    +0.004 A 
ATOM     18  C   UNL     1       0.930   1.045  -3.482  0.00  0.00    +0.000 A 
ATOM     19  C   UNL     1       2.060   1.679  -3.986  0.00  0.00    +0.000 A 
ATOM     20  C   UNL     1       3.230   1.709  -3.231  0.00  0.00    +0.000 A 
ATOM     21  C   UNL     1       3.259   1.139  -1.955  0.00  0.00    +0.004 A 
ENDBRANCH  15  16
BRANCH  15  22
ATOM     22  C   UNL     1       0.867  -0.732   0.475  0.00  0.00    +0.010 C 
ATOM     23  C   UNL     1       0.850  -1.224   1.915  0.00  0.00    +0.005 C 
ENDBRANCH  15  22
ENDBRANCH   1  15
TORSDOF 4
