REMARK  Name = 
REMARK  7 active torsions:
REMARK  status: ('A' for Active; 'I' for Inactive)
REMARK    1  A    between atoms: C_2  and  N_3
REMARK    2  A    between atoms: C_6  and  N_10
REMARK    3  A    between atoms: C_14  and  C_24
REMARK    4  A    between atoms: C_18  and  N_19
REMARK    5  A    between atoms: N_19  and  C_20
REMARK    6  A    between atoms: C_20  and  C_21
REMARK    7  A    between atoms: C_20  and  C_22
REMARK                            x       y       z     vdW  Elec       q    Type
REMARK                         _______ _______ _______ _____ _____    ______ ____
ROOT
ATOM      1  N   UNL     1       4.147  -0.868  -2.854  0.00  0.00    -0.326 N 
ATOM      2  H   UNL     1       3.624  -0.378  -2.136  0.00  0.00    +0.148 HD
ATOM      3  C   UNL     1       4.789  -0.041  -3.752  0.00  0.00    +0.125 A 
ATOM      4  C   UNL     1       4.489   1.426  -3.627  0.00  0.00    +0.087 A 
ATOM      5  C   UNL     1       5.098   2.289  -4.459  0.00  0.00    +0.126 A 
ATOM      6  N   UNL     1       5.975   1.749  -5.430  0.00  0.00    -0.199 N 
ATOM      7  C   UNL     1       6.202   0.367  -5.510  0.00  0.00    +0.177 A 
ATOM      8  C   UNL     1       7.066   0.191  -6.569  0.00  0.00    +0.116 A 
ATOM      9  C   UNL     1       7.308   1.476  -7.076  0.00  0.00    +0.156 A 
ATOM     10  N   UNL     1       6.668   2.430  -6.398  0.00  0.00    -0.170 NA
ATOM     11  N   UNL     1       5.614  -0.519  -4.648  0.00  0.00    -0.212 NA
ENDROOT
BRANCH   1  15
ATOM     12  C   UNL     1       2.254  -3.853  -1.921  0.00  0.00    +0.051 C 
ATOM     13  C   UNL     1       2.810  -3.594  -3.328  0.00  0.00    +0.020 C 
ATOM     14  C   UNL     1       4.311  -3.294  -3.336  0.00  0.00    +0.024 C 
ATOM     15  C   UNL     1       4.689  -2.146  -2.393  0.00  0.00    +0.072 C 
ATOM     16  C   UNL     1       4.158  -2.421  -0.974  0.00  0.00    +0.024 C 
ATOM     17  C   UNL     1       2.655  -2.732  -0.954  0.00  0.00    +0.020 C 
BRANCH  12  18
ATOM     18  N   UNL     1       2.697  -5.147  -1.400  0.00  0.00    -0.327 NA
ATOM     19  H   UNL     1       2.436  -5.885  -2.055  0.00  0.00    +0.118 HD
ATOM     20  H   UNL     1       3.712  -5.187  -1.327  0.00  0.00    +0.118 HD
ENDBRANCH  12  18
ENDBRANCH   1  15
BRANCH   5  21
ATOM     21  N   UNL     1       4.921   3.680  -4.385  0.00  0.00    -0.327 N 
ATOM     22  H   UNL     1       5.579   4.149  -5.019  0.00  0.00    +0.148 HD
BRANCH  21  23
ATOM     23  C   UNL     1       3.594   4.305  -4.388  0.00  0.00    +0.066 C 
ATOM     24  C   UNL     1       3.216   4.693  -5.814  0.00  0.00    +0.027 C 
ATOM     25  C   UNL     1       3.593   5.529  -3.479  0.00  0.00    +0.027 C 
ENDBRANCH  21  23
ENDBRANCH   5  21
BRANCH   8  26
ATOM     26  C   UNL     1       7.593  -1.043  -7.039  0.00  0.00    +0.104 C 
ATOM     27  N   UNL     1       8.054  -2.026  -7.456  0.00  0.00    -0.191 NA
ENDBRANCH   8  26
TORSDOF 5
