REMARK  Name = 
REMARK  8 active torsions:
REMARK  status: ('A' for Active; 'I' for Inactive)
REMARK    1  A    between atoms: C_2  and  O_3
REMARK    2  A    between atoms: C_5  and  N_16
REMARK    3  A    between atoms: C_8  and  C_10
REMARK    4  A    between atoms: C_10  and  O_11
REMARK    5  A    between atoms: O_11  and  P_12
REMARK    6  A    between atoms: P_12  and  O_13
REMARK    7  A    between atoms: P_12  and  O_14
REMARK    8  A    between atoms: C_18  and  C_19
REMARK                            x       y       z     vdW  Elec       q    Type
REMARK                         _______ _______ _______ _____ _____    ______ ____
ROOT
ATOM      1  C   UNL     1       1.892   0.060   0.099  0.00  0.00    +0.150 C 
ATOM      2  C   UNL     1       2.517  -1.175   0.741  0.00  0.00    +0.175 C 
ATOM      3  O   UNL     1       3.715  -0.724   1.418  0.00  0.00    -0.348 OA
ATOM      4  C   UNL     1       3.883   0.693   1.167  0.00  0.00    +0.226 C 
ATOM      5  C   UNL     1       2.450   1.168   0.960  0.00  0.00    +0.088 C 
ENDROOT
BRANCH   4   6
ATOM      6  N   UNL     1       4.861   0.848   0.072  0.00  0.00    -0.274 N 
ATOM      7  C   UNL     1       4.863   1.990  -0.723  0.00  0.00    +0.331 A 
ATOM      8  O   UNL     1       4.045   2.903  -0.648  0.00  0.00    -0.246 OA
ATOM      9  N   UNL     1       5.866   2.073  -1.651  0.00  0.00    -0.275 N 
ATOM     10  H   UNL     1       5.879   2.908  -2.219  0.00  0.00    +0.173 HD
ATOM     11  C   UNL     1       6.948   1.253  -1.746  0.00  0.00    +0.257 A 
ATOM     12  O   UNL     1       7.882   1.488  -2.504  0.00  0.00    -0.267 OA
ATOM     13  C   UNL     1       6.940   0.073  -0.861  0.00  0.00    +0.030 A 
ATOM     14  C   UNL     1       8.071  -0.895  -0.974  0.00  0.00    +0.051 C 
ATOM     15  C   UNL     1       5.917  -0.052  -0.001  0.00  0.00    +0.101 A 
ENDBRANCH   4   6
BRANCH   1  16
ATOM     16  O   UNL     1       0.478   0.025   0.090  0.00  0.00    -0.389 OA
ATOM     17  H   UNL     1       0.151   0.087   1.005  0.00  0.00    +0.210 HD
ENDBRANCH   1  16
BRANCH   2  18
ATOM     18  C   UNL     1       2.857  -2.239  -0.299  0.00  0.00    +0.204 C 
BRANCH  18  19
ATOM     19  O   UNL     1       3.367  -3.407   0.347  0.00  0.00    -0.308 OA
BRANCH  19  20
ATOM     20  P   UNL     1       3.798  -4.673  -0.750  0.00  0.00    +0.303 P 
ATOM     21  S   UNL     1       4.271  -6.061  -1.954  0.00  0.00    +0.022 S 
BRANCH  20  22
ATOM     22  O   UNL     1       2.231  -5.139  -0.634  0.00  0.00    -0.327 OA
ATOM     23  H   UNL     1       1.802  -5.165  -1.509  0.00  0.00    +0.219 HD
ENDBRANCH  20  22
BRANCH  20  24
ATOM     24  O   UNL     1       4.317  -5.438   0.597  0.00  0.00    -0.327 OA
ATOM     25  H   UNL     1       3.874  -5.023   1.360  0.00  0.00    +0.219 HD
ENDBRANCH  20  24
ENDBRANCH  19  20
ENDBRANCH  18  19
ENDBRANCH   2  18
TORSDOF 7
