REMARK  Name = 
REMARK  5 active torsions:
REMARK  status: ('A' for Active; 'I' for Inactive)
REMARK    1  A    between atoms: O_1  and  C_2
REMARK    2  A    between atoms: C_5  and  N_6
REMARK    3  A    between atoms: C_9  and  O_10
REMARK    4  A    between atoms: O_10  and  C_11
REMARK    5  A    between atoms: C_11  and  C_12
REMARK                            x       y       z     vdW  Elec       q    Type
REMARK                         _______ _______ _______ _____ _____    ______ ____
ROOT
ATOM      1  N   UNL     1       6.497  -0.246  -0.490  0.00  0.00    -0.283 N 
ATOM      2  H   UNL     1       7.023   0.582  -0.724  0.00  0.00    +0.155 HD
ATOM      3  C   UNL     1       7.270  -1.405  -0.617  0.00  0.00    +0.225 A 
ATOM      4  N   UNL     1       6.624  -2.586  -0.528  0.00  0.00    -0.195 NA
ATOM      5  C   UNL     1       7.426  -3.634  -0.679  0.00  0.00    +0.167 A 
ATOM      6  C   UNL     1       8.787  -3.630  -0.890  0.00  0.00    +0.169 A 
ATOM      7  N   UNL     1       9.261  -4.923  -0.980  0.00  0.00    -0.229 NA
ATOM      8  C   UNL     1       8.198  -5.686  -0.839  0.00  0.00    +0.199 A 
ATOM      9  C   UNL     1       9.373  -2.368  -0.972  0.00  0.00    +0.248 A 
ATOM     10  N   UNL     1       7.060  -4.947  -0.671  0.00  0.00    -0.329 N 
ATOM     11  H   UNL     1       6.116  -5.288  -0.569  0.00  0.00    +0.168 HD
ATOM     12  N   UNL     1       8.600  -1.248  -0.856  0.00  0.00    -0.177 NA
ENDROOT
BRANCH   1  16
ATOM     13  C   UNL     1       3.000   0.312   1.804  0.00  0.00    +0.117 A 
ATOM     14  C   UNL     1       3.266   1.142   0.721  0.00  0.00    +0.047 A 
ATOM     15  C   UNL     1       4.438   0.960  -0.026  0.00  0.00    +0.027 A 
ATOM     16  C   UNL     1       5.348  -0.054   0.300  0.00  0.00    +0.034 A 
ATOM     17  C   UNL     1       5.036  -0.891   1.384  0.00  0.00    +0.027 A 
ATOM     18  C   UNL     1       3.876  -0.708   2.142  0.00  0.00    +0.047 A 
BRANCH  13  19
ATOM     19  O   UNL     1       1.859   0.531   2.517  0.00  0.00    -0.507 OA
ATOM     20  H   UNL     1       1.836  -0.094   3.261  0.00  0.00    +0.292 HD
ENDBRANCH  13  19
ENDBRANCH   1  16
BRANCH   9  21
ATOM     21  O   UNL     1      10.704  -2.277  -1.311  0.00  0.00    -0.475 OA
BRANCH  21  22
ATOM     22  C   UNL     1      11.424  -1.188  -0.736  0.00  0.00    +0.234 C 
BRANCH  22  23
ATOM     23  C   UNL     1      12.918  -1.427  -1.066  0.00  0.00    +0.027 C 
ATOM     24  C   UNL     1      13.852  -0.381  -0.442  0.00  0.00    +0.007 C 
ATOM     25  C   UNL     1      13.773   0.979  -1.132  0.00  0.00    +0.000 C 
ATOM     26  C   UNL     1      13.985   0.871  -2.640  0.00  0.00    +0.000 C 
ATOM     27  C   UNL     1      13.071  -0.169  -3.281  0.00  0.00    +0.000 C 
ATOM     28  C   UNL     1      13.177  -1.521  -2.582  0.00  0.00    +0.007 C 
ENDBRANCH  22  23
ENDBRANCH  21  22
ENDBRANCH   9  21
TORSDOF 5
