REMARK  Name = 
REMARK  4 active torsions:
REMARK  status: ('A' for Active; 'I' for Inactive)
REMARK    1  A    between atoms: C_1  and  C_2
REMARK    2  A    between atoms: C_2  and  C_4
REMARK    3  A    between atoms: C_5  and  C_6
REMARK    4  A    between atoms: N_9  and  C_10
REMARK                            x       y       z     vdW  Elec       q    Type
REMARK                         _______ _______ _______ _____ _____    ______ ____
ROOT
ATOM      1  C   UNL     1       3.314  -1.233   0.634  0.00  0.00    +0.078 A 
ATOM      2  S   UNL     1       2.233  -2.558   0.716  0.00  0.00    -0.049 S 
ATOM      3  C   UNL     1       3.545  -3.664   0.679  0.00  0.00    +0.163 A 
ATOM      4  N   UNL     1       3.220  -4.968   0.591  0.00  0.00    -0.294 N 
ATOM      5  H   UNL     1       2.231  -5.168   0.518  0.00  0.00    +0.154 HD
ATOM      6  N   UNL     1       4.726  -3.095   0.761  0.00  0.00    -0.229 NA
ATOM      7  C   UNL     1       4.615  -1.705   0.748  0.00  0.00    +0.058 A 
ATOM      8  C   UNL     1       5.884  -0.927   0.825  0.00  0.00    +0.067 C 
ENDROOT
BRANCH   4   9
ATOM      9  C   UNL     1       4.030  -6.106   0.489  0.00  0.00    +0.033 A 
ATOM     10  C   UNL     1       5.414  -6.078   0.301  0.00  0.00    +0.023 A 
ATOM     11  C   UNL     1       6.157  -7.263   0.279  0.00  0.00    +0.002 A 
ATOM     12  C   UNL     1       5.526  -8.492   0.461  0.00  0.00    +0.000 A 
ATOM     13  C   UNL     1       4.151  -8.541   0.653  0.00  0.00    +0.002 A 
ATOM     14  C   UNL     1       3.413  -7.358   0.664  0.00  0.00    +0.023 A 
ENDBRANCH   4   9
BRANCH   1  16
ATOM     15  C   UNL     1       1.315   0.323   0.347  0.00  0.00    +0.092 C 
ATOM     16  C   UNL     1       2.811   0.119   0.471  0.00  0.00    +0.168 C 
ATOM     17  O   UNL     1       3.548   1.109   0.416  0.00  0.00    -0.292 OA
ENDBRANCH   1  16
TORSDOF 2
