REMARK  Name = 
REMARK  0 active torsions:
REMARK  status: ('A' for Active; 'I' for Inactive)
REMARK                            x       y       z     vdW  Elec       q    Type
REMARK                         _______ _______ _______ _____ _____    ______ ____
ROOT
ATOM      1  C   UNL     1       5.081   0.688   2.353  0.00  0.00    +0.222 C 
ATOM      2  N   UNL     1       6.438   0.237   2.680  0.00  0.00    -0.312 N 
ATOM      3  C   UNL     1       6.917  -1.033   2.555  0.00  0.00    +0.077 A 
ATOM      4  C   UNL     1       6.646  -1.931   1.530  0.00  0.00    +0.077 A 
ATOM      5  C   UNL     1       7.213  -3.204   1.702  0.00  0.00    +0.023 A 
ATOM      6  C   UNL     1       7.910  -3.768   2.799  0.00  0.00    +0.062 A 
ATOM      7  C   UNL     1       8.128  -2.864   3.851  0.00  0.00    +0.062 A 
ATOM      8  C   UNL     1       8.543  -3.572   5.009  0.00  0.00    +0.260 A 
ATOM      9  O   UNL     1       8.791  -3.253   6.166  0.00  0.00    -0.267 OA
ATOM     10  N   UNL     1       8.534  -4.873   4.574  0.00  0.00    -0.289 N 
ATOM     11  H   UNL     1       8.767  -5.638   5.185  0.00  0.00    +0.172 HD
ATOM     12  C   UNL     1       8.313  -5.060   3.234  0.00  0.00    +0.260 A 
ATOM     13  O   UNL     1       8.508  -6.138   2.677  0.00  0.00    -0.267 OA
ATOM     14  C   UNL     1       6.386  -3.976   0.854  0.00  0.00    +0.008 A 
ATOM     15  C   UNL     1       6.214  -5.366   0.673  0.00  0.00    +0.010 A 
ATOM     16  C   UNL     1       5.079  -5.860   0.045  0.00  0.00    +0.001 A 
ATOM     17  C   UNL     1       4.153  -4.997  -0.514  0.00  0.00    +0.002 A 
ATOM     18  C   UNL     1       4.344  -3.611  -0.486  0.00  0.00    +0.026 A 
ATOM     19  C   UNL     1       5.439  -3.081   0.223  0.00  0.00    +0.052 A 
ATOM     20  N   UNL     1       5.696  -1.734   0.576  0.00  0.00    -0.312 N 
ATOM     21  C   UNL     1       4.780  -0.623   0.494  0.00  0.00    +0.222 C 
ATOM     22  C   UNL     1       5.358   0.727   0.037  0.00  0.00    +0.059 C 
ATOM     23  C   UNL     1       7.707  -1.556   3.571  0.00  0.00    +0.023 A 
ATOM     24  C   UNL     1       8.025  -0.404   4.303  0.00  0.00    +0.008 A 
ATOM     25  C   UNL     1       8.930  -0.155   5.353  0.00  0.00    +0.010 A 
ATOM     26  C   UNL     1       9.200   1.151   5.742  0.00  0.00    +0.001 A 
ATOM     27  C   UNL     1       8.534   2.213   5.144  0.00  0.00    +0.002 A 
ATOM     28  C   UNL     1       7.549   2.013   4.150  0.00  0.00    +0.026 A 
ATOM     29  C   UNL     1       7.310   0.707   3.703  0.00  0.00    +0.052 A 
ATOM     30  O   UNL     1       4.311  -0.427   1.849  0.00  0.00    -0.333 OA
ATOM     31  C   UNL     1       4.945   1.635   1.181  0.00  0.00    +0.059 C 
ENDROOT
TORSDOF 0
