REMARK  Name = 
REMARK  14 active torsions:
REMARK  status: ('A' for Active; 'I' for Inactive)
REMARK    1  A    between atoms: C_2  and  O_3
REMARK    2  A    between atoms: C_4  and  C_5
REMARK    3  A    between atoms: C_5  and  O_6
REMARK    4  A    between atoms: C_8  and  N_10
REMARK    5  A    between atoms: N_10  and  C_11
REMARK    6  A    between atoms: C_11  and  C_12
REMARK    7  A    between atoms: C_12  and  C_13
REMARK    8  A    between atoms: C_13  and  C_14
REMARK    9  A    between atoms: C_14  and  C_15
REMARK   10  A    between atoms: C_15  and  C_16
REMARK   11  A    between atoms: C_16  and  C_17
REMARK   12  A    between atoms: C_17  and  C_18
REMARK   13  A    between atoms: C_19  and  O_21
REMARK   14  A    between atoms: C_22  and  O_24
REMARK                            x       y       z     vdW  Elec       q    Type
REMARK                         _______ _______ _______ _____ _____    ______ ____
ROOT
ATOM      1  C   UNL     1       2.073  -0.133  -0.334  0.00  0.00    +0.173 C 
ATOM      2  C   UNL     1       2.468  -1.421   0.438  0.00  0.00    +0.177 C 
ATOM      3  C   UNL     1       3.539  -1.287   1.545  0.00  0.00    +0.166 C 
ATOM      4  C   UNL     1       3.714   0.116   2.197  0.00  0.00    +0.108 C 
ATOM      5  C   UNL     1       3.249   1.273   1.370  0.00  0.00    -0.002 C 
ATOM      6  C   UNL     1       2.471   1.182   0.282  0.00  0.00    -0.016 C 
ENDROOT
BRANCH   2   7
ATOM      7  O   UNL     1       1.275  -2.022   1.010  0.00  0.00    -0.386 OA
ATOM      8  H   UNL     1       0.894  -1.386   1.636  0.00  0.00    +0.210 HD
ENDBRANCH   2   7
BRANCH   3   9
ATOM      9  O   UNL     1       4.816  -1.739   1.055  0.00  0.00    -0.387 OA
ATOM     10  H   UNL     1       5.333  -1.993   1.840  0.00  0.00    +0.210 HD
ENDBRANCH   3   9
BRANCH   4  11
ATOM     11  N   UNL     1       2.996   0.166   3.480  0.00  0.00    -0.308 NA
ATOM     12  H   UNL     1       1.993   0.077   3.337  0.00  0.00    +0.123 HD
BRANCH  11  13
ATOM     13  C   UNL     1       3.287   1.348   4.293  0.00  0.00    +0.081 C 
BRANCH  13  14
ATOM     14  C   UNL     1       2.576   1.245   5.639  0.00  0.00    +0.015 C 
BRANCH  14  15
ATOM     15  C   UNL     1       3.060   0.040   6.437  0.00  0.00    +0.001 C 
BRANCH  15  16
ATOM     16  C   UNL     1       2.335  -0.063   7.770  0.00  0.00    +0.000 C 
BRANCH  16  17
ATOM     17  C   UNL     1       2.828  -1.287   8.535  0.00  0.00    -0.000 C 
BRANCH  17  18
ATOM     18  C   UNL     1       2.113  -1.411   9.874  0.00  0.00    -0.000 C 
BRANCH  18  19
ATOM     19  C   UNL     1       2.611  -2.628  10.646  0.00  0.00    -0.003 C 
ATOM     20  C   UNL     1       1.905  -2.747  11.984  0.00  0.00    +0.004 C 
ENDBRANCH  18  19
ENDBRANCH  17  18
ENDBRANCH  16  17
ENDBRANCH  15  16
ENDBRANCH  14  15
ENDBRANCH  13  14
ENDBRANCH  11  13
ENDBRANCH   4  11
BRANCH   1  21
ATOM     21  O   UNL     1       2.632  -0.188  -1.649  0.00  0.00    -0.385 OA
ATOM     22  H   UNL     1       2.503   0.699  -2.046  0.00  0.00    +0.210 HD
ENDBRANCH   1  21
BRANCH   6  23
ATOM     23  C   UNL     1       1.889   2.426  -0.333  0.00  0.00    +0.189 C 
BRANCH  23  24
ATOM     24  O   UNL     1       2.308   2.520  -1.682  0.00  0.00    -0.391 OA
ATOM     25  H   UNL     1       2.980   3.225  -1.713  0.00  0.00    +0.210 HD
ENDBRANCH  23  24
ENDBRANCH   6  23
TORSDOF 13
