REMARK  Name = 
REMARK  4 active torsions:
REMARK  status: ('A' for Active; 'I' for Inactive)
REMARK    1  A    between atoms: N_1  and  C_2
REMARK    2  A    between atoms: C_2  and  C_3
REMARK    3  A    between atoms: C_3  and  C_4
REMARK    4  A    between atoms: C_7  and  O_8
REMARK                            x       y       z     vdW  Elec       q    Type
REMARK                         _______ _______ _______ _____ _____    ______ ____
ROOT
ATOM      1  C   UNL     1       4.534  -1.497  -0.237  0.00  0.00    -0.046 A 
ATOM      2  C   UNL     1       5.283  -0.472  -0.830  0.00  0.00    +0.007 A 
ATOM      3  C   UNL     1       6.674  -0.453  -0.708  0.00  0.00    +0.045 A 
ATOM      4  C   UNL     1       7.315  -1.453   0.011  0.00  0.00    +0.117 A 
ATOM      5  C   UNL     1       6.591  -2.482   0.604  0.00  0.00    +0.045 A 
ATOM      6  C   UNL     1       5.200  -2.502   0.480  0.00  0.00    +0.007 A 
ENDROOT
BRANCH   4   7
ATOM      7  O   UNL     1       8.673  -1.387   0.119  0.00  0.00    -0.507 OA
ATOM      8  H   UNL     1       8.972  -2.112   0.692  0.00  0.00    +0.292 HD
ENDBRANCH   4   7
BRANCH   1   9
ATOM      9  C   UNL     1       3.027  -1.498  -0.337  0.00  0.00    +0.050 C 
BRANCH   9  10
ATOM     10  C   UNL     1       2.387  -0.734   0.827  0.00  0.00    +0.082 C 
BRANCH  10  11
ATOM     11  N   UNL     1       0.927  -0.752   0.734  0.00  0.00    -0.330 NA
ATOM     12  H   UNL     1       0.591  -1.711   0.813  0.00  0.00    +0.118 HD
ATOM     13  H   UNL     1       0.536  -0.249   1.530  0.00  0.00    +0.118 HD
ENDBRANCH  10  11
ENDBRANCH   9  10
ENDBRANCH   1   9
TORSDOF 4
