REMARK  Name = 
REMARK  10 active torsions:
REMARK  status: ('A' for Active; 'I' for Inactive)
REMARK    1  A    between atoms: C_1  and  O_2
REMARK    2  A    between atoms: O_2  and  C_3
REMARK    3  A    between atoms: C_3  and  C_5
REMARK    4  A    between atoms: C_6  and  C_7
REMARK    5  A    between atoms: C_9  and  O_10
REMARK    6  A    between atoms: O_10  and  C_11
REMARK    7  A    between atoms: C_12  and  O_13
REMARK    8  A    between atoms: C_14  and  O_15
REMARK    9  A    between atoms: C_17  and  C_18
REMARK   10  A    between atoms: C_21  and  O_22
REMARK                            x       y       z     vdW  Elec       q    Type
REMARK                         _______ _______ _______ _____ _____    ______ ____
ROOT
ATOM      1  C   UNL     1       4.483   0.923   0.738  0.00  0.00    +0.103 A 
ATOM      2  C   UNL     1       5.173   1.731  -0.182  0.00  0.00    +0.135 A 
ATOM      3  C   UNL     1       6.561   1.671  -0.290  0.00  0.00    +0.092 A 
ATOM      4  C   UNL     1       7.290   0.905   0.618  0.00  0.00    +0.132 A 
ATOM      5  C   UNL     1       6.624   0.081   1.526  0.00  0.00    +0.050 A 
ATOM      6  C   UNL     1       5.214   0.063   1.589  0.00  0.00    -0.029 A 
ATOM      7  C   UNL     1       4.579  -0.877   2.579  0.00  0.00    +0.045 C 
ENDROOT
BRANCH   1   8
ATOM      8  C   UNL     1       3.006   1.039   0.843  0.00  0.00    +0.343 C 
ATOM      9  O   UNL     1       2.400   1.150   1.896  0.00  0.00    -0.245 OA
BRANCH   8  11
ATOM     10  C   UNL     1       1.053   1.190  -0.438  0.00  0.00    +0.280 C 
ATOM     11  O   UNL     1       2.459   0.962  -0.396  0.00  0.00    -0.464 OA
ENDBRANCH   8  11
ENDBRANCH   1   8
BRANCH   2  12
ATOM     12  O   UNL     1       4.502   2.647  -0.949  0.00  0.00    -0.506 OA
ATOM     13  H   UNL     1       5.137   3.186  -1.450  0.00  0.00    +0.292 HD
ENDBRANCH   2  12
BRANCH   4  14
ATOM     14  O   UNL     1       8.669   0.913   0.666  0.00  0.00    -0.452 OA
BRANCH  14  15
ATOM     15  C   UNL     1       9.331   2.121   0.533  0.00  0.00    +0.174 A 
ATOM     16  C   UNL     1       8.781   3.364   0.874  0.00  0.00    +0.053 A 
ATOM     17  C   UNL     1       9.475   4.557   0.614  0.00  0.00    -0.043 A 
ATOM     18  C   UNL     1       8.784   5.871   0.826  0.00  0.00    +0.044 C 
ATOM     19  C   UNL     1      10.780   4.491   0.113  0.00  0.00    +0.052 A 
ATOM     20  C   UNL     1      11.358   3.254  -0.143  0.00  0.00    +0.162 A 
ATOM     21  C   UNL     1      10.638   2.076   0.050  0.00  0.00    +0.201 A 
BRANCH  20  22
ATOM     22  O   UNL     1      12.641   3.205  -0.604  0.00  0.00    -0.503 OA
ATOM     23  H   UNL     1      12.840   2.251  -0.686  0.00  0.00    +0.292 HD
ENDBRANCH  20  22
BRANCH  21  24
ATOM     24  O   UNL     1      11.255   0.894  -0.272  0.00  0.00    -0.501 OA
ATOM     25  H   UNL     1      10.595   0.192  -0.114  0.00  0.00    +0.292 HD
ENDBRANCH  21  24
ENDBRANCH  14  15
ENDBRANCH   4  14
TORSDOF 7
