REMARK  Name = 
REMARK  6 active torsions:
REMARK  status: ('A' for Active; 'I' for Inactive)
REMARK    1  A    between atoms: C_5  and  N_6
REMARK    2  A    between atoms: N_6  and  C_7
REMARK    3  A    between atoms: C_7  and  O_9
REMARK    4  A    between atoms: O_9  and  C_10
REMARK    5  A    between atoms: C_10  and  C_11
REMARK    6  A    between atoms: C_11  and  N_12
REMARK                            x       y       z     vdW  Elec       q    Type
REMARK                         _______ _______ _______ _____ _____    ______ ____
ROOT
ATOM      1  C   UNL     1      10.328  -2.399  -1.184  0.00  0.00    +0.250 C 
ENDROOT
BRANCH   1   2
ATOM      2  O   UNL     1       9.726  -1.087  -1.032  0.00  0.00    -0.472 OA
BRANCH   2   3
ATOM      3  C   UNL     1       9.435  -0.251  -2.062  0.00  0.00    +0.232 C 
ATOM      4  S   UNL     1       9.624  -0.638  -3.669  0.00  0.00    +0.006 S 
BRANCH   3   5
ATOM      5  N   UNL     1       9.051   1.015  -1.710  0.00  0.00    -0.279 N 
ATOM      6  H   UNL     1       9.143   1.689  -2.461  0.00  0.00    +0.156 HD
BRANCH   5  11
ATOM      7  I   UNL     1       6.358   3.347   3.468  0.00  0.00    -0.044 I 
ATOM      8  C   UNL     1       7.249   2.557   1.765  0.00  0.00    +0.013 A 
ATOM      9  C   UNL     1       7.798   3.407   0.810  0.00  0.00    +0.016 A 
ATOM     10  C   UNL     1       8.399   2.869  -0.333  0.00  0.00    +0.024 A 
ATOM     11  C   UNL     1       8.477   1.482  -0.513  0.00  0.00    +0.034 A 
ATOM     12  C   UNL     1       7.910   0.641   0.446  0.00  0.00    +0.024 A 
ATOM     13  C   UNL     1       7.292   1.176   1.582  0.00  0.00    +0.016 A 
ENDBRANCH   5  11
ENDBRANCH   3   5
ENDBRANCH   2   3
ENDBRANCH   1   2
BRANCH   1  14
ATOM     14  C   UNL     1      11.833  -2.308  -1.456  0.00  0.00    +0.158 C 
BRANCH  14  15
ATOM     15  N   UNL     1      12.454  -3.615  -1.546  0.00  0.00    -0.231 N 
ATOM     16  C   UNL     1      12.485  -4.376  -2.683  0.00  0.00    +0.254 C 
ATOM     17  O   UNL     1      12.034  -4.130  -3.784  0.00  0.00    -0.270 OA
ATOM     18  C   UNL     1      13.164  -5.623  -2.330  0.00  0.00    +0.049 A 
ATOM     19  C   UNL     1      13.472  -6.729  -3.098  0.00  0.00    +0.014 A 
ATOM     20  C   UNL     1      14.125  -7.788  -2.459  0.00  0.00    +0.001 A 
ATOM     21  C   UNL     1      14.449  -7.719  -1.088  0.00  0.00    +0.001 A 
ATOM     22  C   UNL     1      14.123  -6.589  -0.331  0.00  0.00    +0.014 A 
ATOM     23  C   UNL     1      13.480  -5.558  -0.984  0.00  0.00    +0.049 A 
ATOM     24  C   UNL     1      12.999  -4.274  -0.480  0.00  0.00    +0.254 C 
ATOM     25  O   UNL     1      13.076  -3.924   0.681  0.00  0.00    -0.270 OA
ENDBRANCH  14  15
ENDBRANCH   1  14
TORSDOF 6
