REMARK  Name = 
REMARK  8 active torsions:
REMARK  status: ('A' for Active; 'I' for Inactive)
REMARK    1  A    between atoms: C_1  and  N_2
REMARK    2  A    between atoms: C_3  and  C_5
REMARK    3  A    between atoms: C_9  and  N_12
REMARK    4  A    between atoms: N_15  and  C_21
REMARK    5  A    between atoms: C_18  and  C_19
REMARK    6  A    between atoms: C_18  and  C_20
REMARK    7  A    between atoms: C_24  and  C_25
REMARK    8  A    between atoms: C_27  and  C_29
REMARK                            x       y       z     vdW  Elec       q    Type
REMARK                         _______ _______ _______ _____ _____    ______ ____
ROOT
ATOM      1  N   UNL     1       8.839  -1.182  -1.269  0.00  0.00    -0.268 N 
ATOM      2  C   UNL     1       9.598  -2.380  -1.602  0.00  0.00    +0.112 C 
ATOM      3  C   UNL     1       8.897  -3.429  -2.472  0.00  0.00    +0.042 C 
ATOM      4  C   UNL     1      10.252  -2.998  -0.358  0.00  0.00    +0.042 C 
ATOM      5  C   UNL     1      10.701  -1.757  -2.478  0.00  0.00    +0.249 C 
ATOM      6  O   UNL     1      11.566  -2.444  -3.016  0.00  0.00    -0.272 OA
ATOM      7  N   UNL     1      10.577  -0.380  -2.481  0.00  0.00    -0.220 N 
ATOM      8  C   UNL     1       9.645  -0.039  -1.504  0.00  0.00    +0.152 C 
ATOM      9  S   UNL     1       9.584   1.348  -0.555  0.00  0.00    -0.017 S 
ENDROOT
BRANCH   1  13
ATOM     10  C   UNL     1       4.626  -1.218  -0.576  0.00  0.00    +0.072 A 
ATOM     11  C   UNL     1       5.424  -2.293  -0.168  0.00  0.00    +0.018 A 
ATOM     12  C   UNL     1       6.816  -2.265  -0.348  0.00  0.00    +0.024 A 
ATOM     13  C   UNL     1       7.449  -1.169  -0.941  0.00  0.00    +0.039 A 
ATOM     14  C   UNL     1       6.643  -0.078  -1.301  0.00  0.00    +0.062 A 
ATOM     15  C   UNL     1       5.257  -0.104  -1.117  0.00  0.00    +0.137 A 
ATOM     16  F   UNL     1       4.554   0.966  -1.521  0.00  0.00    -0.205 F 
BRANCH  10  20
ATOM     17  C   UNL     1       0.935  -0.394  -0.926  0.00  0.00    +0.128 C 
ATOM     18  N   UNL     1       2.373  -0.316  -0.944  0.00  0.00    -0.314 N 
ATOM     19  H   UNL     1       2.812   0.488  -1.379  0.00  0.00    +0.149 HD
ATOM     20  C   UNL     1       3.148  -1.343  -0.453  0.00  0.00    +0.247 C 
ATOM     21  O   UNL     1       2.664  -2.355   0.048  0.00  0.00    -0.270 OA
ENDBRANCH  10  20
ENDBRANCH   1  13
BRANCH   7  22
ATOM     22  C   UNL     1      11.271   0.499  -3.391  0.00  0.00    +0.044 A 
ATOM     23  C   UNL     1      10.962   1.865  -3.503  0.00  0.00    +0.037 A 
ATOM     24  C   UNL     1      11.650   2.759  -4.366  0.00  0.00    +0.074 A 
ATOM     25  C   UNL     1      12.633   2.250  -5.218  0.00  0.00    +0.064 A 
ATOM     26  C   UNL     1      12.898   0.876  -5.192  0.00  0.00    +0.021 A 
ATOM     27  C   UNL     1      12.236   0.026  -4.292  0.00  0.00    +0.025 A 
BRANCH  24  28
ATOM     28  C   UNL     1      11.272   4.222  -4.298  0.00  0.00    +0.419 C 
ATOM     29  F   UNL     1      11.379   4.709  -3.030  0.00  0.00    -0.166 F 
ATOM     30  F   UNL     1       9.977   4.427  -4.665  0.00  0.00    -0.166 F 
ATOM     31  F   UNL     1      12.014   5.051  -5.073  0.00  0.00    -0.166 F 
ENDBRANCH  24  28
BRANCH  25  32
ATOM     32  C   UNL     1      13.387   3.063  -6.126  0.00  0.00    +0.100 C 
ATOM     33  N   UNL     1      14.018   3.696  -6.868  0.00  0.00    -0.191 NA
ENDBRANCH  25  32
ENDBRANCH   7  22
TORSDOF 5
