REMARK  Name = 
REMARK  8 active torsions:
REMARK  status: ('A' for Active; 'I' for Inactive)
REMARK    1  A    between atoms: C_2  and  C_3
REMARK    2  A    between atoms: C_9  and  C_10
REMARK    3  A    between atoms: N_12  and  C_13
REMARK    4  A    between atoms: N_12  and  C_15
REMARK    5  A    between atoms: C_13  and  C_14
REMARK    6  A    between atoms: C_15  and  C_16
REMARK    7  A    between atoms: C_17  and  N_18
REMARK    8  A    between atoms: C_19  and  C_21
REMARK                            x       y       z     vdW  Elec       q    Type
REMARK                         _______ _______ _______ _____ _____    ______ ____
ROOT
ATOM      1  C   UNL     1       2.186  -0.359   0.239  0.00  0.00    -0.009 C 
ATOM      2  C   UNL     1       0.667  -0.179   0.357  0.00  0.00    +0.008 C 
ATOM      3  C   UNL     1       2.643  -1.801   0.601  0.00  0.00    +0.040 C 
ATOM      4  C   UNL     1       2.550  -2.775  -0.559  0.00  0.00    -0.023 A 
ATOM      5  C   UNL     1       2.820  -4.228  -0.522  0.00  0.00    +0.069 A 
ATOM      6  C   UNL     1       2.782  -4.689  -1.828  0.00  0.00    +0.085 A 
ATOM      7  S   UNL     1       2.141  -3.585  -2.951  0.00  0.00    -0.077 S 
ATOM      8  C   UNL     1       2.287  -2.319  -1.840  0.00  0.00    -0.004 A 
ATOM      9  C   UNL     1       2.125  -0.889  -2.255  0.00  0.00    +0.043 C 
ATOM     10  C   UNL     1       2.677   0.041  -1.166  0.00  0.00    +0.009 C 
ENDROOT
BRANCH   6  11
ATOM     11  N   UNL     1       3.110  -5.905  -2.402  0.00  0.00    -0.275 N 
ATOM     12  H   UNL     1       2.364  -6.290  -2.973  0.00  0.00    +0.156 HD
ATOM     13  C   UNL     1       4.301  -5.986  -3.127  0.00  0.00    +0.255 C 
ATOM     14  O   UNL     1       5.205  -5.155  -3.055  0.00  0.00    -0.269 OA
BRANCH  13  15
ATOM     15  C   UNL     1       4.384  -7.144  -4.020  0.00  0.00    +0.074 A 
ATOM     16  S   UNL     1       3.167  -8.356  -4.055  0.00  0.00    -0.092 S 
ATOM     17  C   UNL     1       4.039  -9.309  -5.172  0.00  0.00    +0.046 A 
ATOM     18  C   UNL     1       5.216  -8.707  -5.552  0.00  0.00    +0.008 A 
ATOM     19  C   UNL     1       5.408  -7.451  -4.900  0.00  0.00    +0.021 A 
ENDBRANCH  13  15
ENDBRANCH   6  11
BRANCH   5  20
ATOM     20  C   UNL     1       3.216  -4.943   0.720  0.00  0.00    +0.249 C 
ATOM     21  N   UNL     1       2.795  -6.258   1.045  0.00  0.00    -0.298 N 
ATOM     22  O   UNL     1       3.874  -4.315   1.556  0.00  0.00    -0.270 OA
BRANCH  21  23
ATOM     23  C   UNL     1       3.031  -6.694   2.433  0.00  0.00    +0.104 C 
ATOM     24  C   UNL     1       4.388  -7.341   2.670  0.00  0.00    +0.024 C 
ENDBRANCH  21  23
BRANCH  21  25
ATOM     25  C   UNL     1       1.976  -7.168   0.242  0.00  0.00    +0.104 C 
ATOM     26  C   UNL     1       2.648  -8.519   0.011  0.00  0.00    +0.024 C 
ENDBRANCH  21  25
ENDBRANCH   5  20
TORSDOF 5
