REMARK  Name = 
REMARK  4 active torsions:
REMARK  status: ('A' for Active; 'I' for Inactive)
REMARK    1  A    between atoms: C_2  and  C_3
REMARK    2  A    between atoms: C_3  and  C_4
REMARK    3  A    between atoms: C_7  and  C_10
REMARK    4  A    between atoms: C_15  and  S_16
REMARK                            x       y       z     vdW  Elec       q    Type
REMARK                         _______ _______ _______ _____ _____    ______ ____
ROOT
ATOM      1  C   UNL     1       0.229  -1.496   0.210  0.00  0.00    -0.046 A 
ATOM      2  C   UNL     1      -1.149  -1.704   0.055  0.00  0.00    +0.004 A 
ATOM      3  C   UNL     1      -1.676  -2.996   0.033  0.00  0.00    +0.012 A 
ATOM      4  C   UNL     1      -0.836  -4.109   0.171  0.00  0.00    +0.055 A 
ATOM      5  C   UNL     1       0.528  -3.898   0.413  0.00  0.00    +0.012 A 
ATOM      6  C   UNL     1       1.053  -2.603   0.448  0.00  0.00    +0.004 A 
ENDROOT
BRANCH   4   7
ATOM      7  C   UNL     1      -1.401  -5.500   0.023  0.00  0.00    +0.417 C 
ATOM      8  F   UNL     1      -2.025  -5.675  -1.177  0.00  0.00    -0.166 F 
ATOM      9  F   UNL     1      -2.329  -5.797   0.972  0.00  0.00    -0.166 F 
ATOM     10  F   UNL     1      -0.460  -6.482   0.096  0.00  0.00    -0.166 F 
ENDBRANCH   4   7
BRANCH   1  11
ATOM     11  C   UNL     1       0.774  -0.088   0.096  0.00  0.00    +0.059 C 
BRANCH  11  12
ATOM     12  C   UNL     1       2.135   0.072  -0.598  0.00  0.00    +0.145 C 
ATOM     13  C   UNL     1       2.350   1.550  -0.899  0.00  0.00    +0.251 C 
ATOM     14  O   UNL     1       2.669   2.351  -0.030  0.00  0.00    -0.272 OA
ATOM     15  N   UNL     1       2.073   1.909  -2.205  0.00  0.00    -0.166 NA
ATOM     16  C   UNL     1       1.958   0.875  -2.958  0.00  0.00    +0.121 C 
ATOM     17  S   UNL     1       2.185  -0.690  -2.262  0.00  0.00    -0.089 S 
BRANCH  16  18
ATOM     18  S   UNL     1       1.542   0.961  -4.634  0.00  0.00    -0.119 S 
ATOM     19  H   UNL     1       1.385  -0.361  -4.795  0.00  0.00    +0.109 HD
ENDBRANCH  16  18
ENDBRANCH  11  12
ENDBRANCH   1  11
TORSDOF 4
