REMARK  Name = 
REMARK  18 active torsions:
REMARK  status: ('A' for Active; 'I' for Inactive)
REMARK    1  A    between atoms: C_2  and  O_3
REMARK    2  A    between atoms: C_2  and  C_4
REMARK    3  A    between atoms: C_2  and  C_15
REMARK    4  A    between atoms: N_6  and  C_7
REMARK    5  A    between atoms: C_7  and  C_8
REMARK    6  A    between atoms: C_8  and  C_9
REMARK    7  A    between atoms: N_11  and  C_12
REMARK    8  A    between atoms: C_12  and  C_13
REMARK    9  A    between atoms: C_13  and  O_14
REMARK   10  A    between atoms: C_15  and  C_16
REMARK   11  A    between atoms: C_15  and  C_17
REMARK   12  A    between atoms: C_15  and  C_18
REMARK   13  A    between atoms: C_18  and  O_19
REMARK   14  A    between atoms: O_19  and  C_20
REMARK   15  A    between atoms: C_20  and  C_22
REMARK   16  A    between atoms: C_22  and  C_23
REMARK   17  A    between atoms: C_22  and  C_24
REMARK   18  A    between atoms: C_22  and  C_25
REMARK                            x       y       z     vdW  Elec       q    Type
REMARK                         _______ _______ _______ _____ _____    ______ ____
ROOT
ATOM      1  C   UNL     1       2.061   0.199  -0.015  0.00  0.00    +0.209 C 
ENDROOT
BRANCH   1   2
ATOM      2  C   UNL     1       0.530   0.118  -0.175  0.00  0.00    +0.242 C 
ATOM      3  N   UNL     1       0.116  -0.325  -1.417  0.00  0.00    -0.313 N 
ATOM      4  H   UNL     1       0.801  -0.854  -1.948  0.00  0.00    +0.149 HD
ATOM      5  O   UNL     1      -0.272   0.432   0.703  0.00  0.00    -0.273 OA
BRANCH   3   6
ATOM      6  C   UNL     1      -1.297  -0.550  -1.676  0.00  0.00    +0.113 C 
BRANCH   6   7
ATOM      7  C   UNL     1      -2.119   0.736  -1.638  0.00  0.00    +0.114 C 
BRANCH   7   8
ATOM      8  C   UNL     1      -3.586   0.456  -1.860  0.00  0.00    +0.215 C 
ATOM      9  N   UNL     1      -4.371   1.586  -1.794  0.00  0.00    -0.313 N 
ATOM     10  H   UNL     1      -3.953   2.476  -1.554  0.00  0.00    +0.149 HD
ATOM     11  O   UNL     1      -4.037  -0.664  -2.083  0.00  0.00    -0.276 OA
BRANCH   9  12
ATOM     12  C   UNL     1      -5.809   1.525  -1.999  0.00  0.00    +0.132 C 
BRANCH  12  13
ATOM     13  C   UNL     1      -6.566   1.254  -0.701  0.00  0.00    +0.174 C 
BRANCH  13  14
ATOM     14  O   UNL     1      -6.377   2.337   0.211  0.00  0.00    -0.393 OA
ATOM     15  H   UNL     1      -5.444   2.301   0.484  0.00  0.00    +0.209 HD
ENDBRANCH  13  14
ENDBRANCH  12  13
ENDBRANCH   9  12
ENDBRANCH   7   8
ENDBRANCH   6   7
ENDBRANCH   3   6
ENDBRANCH   1   2
BRANCH   1  16
ATOM     16  C   UNL     1       2.558   0.724   1.367  0.00  0.00    +0.034 C 
ATOM     17  C   UNL     1       2.056  -0.149   2.539  0.00  0.00    +0.017 C 
ATOM     18  C   UNL     1       2.081   2.179   1.582  0.00  0.00    +0.017 C 
BRANCH  16  19
ATOM     19  C   UNL     1       4.111   0.712   1.370  0.00  0.00    +0.241 C 
BRANCH  19  20
ATOM     20  O   UNL     1       4.635   1.211   2.618  0.00  0.00    -0.464 OA
BRANCH  20  21
ATOM     21  C   UNL     1       5.323   0.324   3.395  0.00  0.00    +0.313 C 
ATOM     22  O   UNL     1       5.517  -0.848   3.102  0.00  0.00    -0.250 OA
BRANCH  21  23
ATOM     23  C   UNL     1       5.795   0.977   4.699  0.00  0.00    +0.059 C 
ATOM     24  C   UNL     1       6.660   2.206   4.391  0.00  0.00    +0.022 C 
ATOM     25  C   UNL     1       6.638  -0.039   5.490  0.00  0.00    +0.022 C 
ATOM     26  C   UNL     1       4.579   1.382   5.541  0.00  0.00    +0.022 C 
ENDBRANCH  21  23
ENDBRANCH  20  21
ENDBRANCH  19  20
ENDBRANCH  16  19
ENDBRANCH   1  16
BRANCH   1  27
ATOM     27  O   UNL     1       2.617  -1.078  -0.339  0.00  0.00    -0.382 OA
ATOM     28  H   UNL     1       2.335  -1.708   0.349  0.00  0.00    +0.210 HD
ENDBRANCH   1  27
TORSDOF 13
