REMARK  Name = 
REMARK  2 active torsions:
REMARK  status: ('A' for Active; 'I' for Inactive)
REMARK    1  A    between atoms: O_1  and  C_2
REMARK    2  A    between atoms: C_5  and  N_8
REMARK                            x       y       z     vdW  Elec       q    Type
REMARK                         _______ _______ _______ _____ _____    ______ ____
ROOT
ATOM      1  C   UNL     1       2.505   0.037   0.034  0.00  0.00    +0.117 A 
ATOM      2  C   UNL     1       3.210  -1.156  -0.048  0.00  0.00    +0.047 A 
ATOM      3  C   UNL     1       4.594  -1.136  -0.248  0.00  0.00    +0.030 A 
ATOM      4  C   UNL     1       5.276   0.086  -0.368  0.00  0.00    +0.048 A 
ATOM      5  C   UNL     1       4.547   1.282  -0.263  0.00  0.00    +0.030 A 
ATOM      6  C   UNL     1       3.162   1.256  -0.064  0.00  0.00    +0.047 A 
ENDROOT
BRANCH   4   7
ATOM      7  N   UNL     1       6.681   0.112  -0.609  0.00  0.00    -0.306 N 
ATOM      8  C   UNL     1       7.528  -0.967  -0.755  0.00  0.00    +0.204 A 
ATOM      9  N   UNL     1       8.771  -0.613  -1.001  0.00  0.00    -0.244 NA
ATOM     10  C   UNL     1       8.752   0.750  -1.014  0.00  0.00    +0.130 A 
ATOM     11  C   UNL     1       7.484   1.223  -0.768  0.00  0.00    +0.112 A 
ENDBRANCH   4   7
BRANCH   1  12
ATOM     12  O   UNL     1       1.155  -0.034   0.208  0.00  0.00    -0.507 OA
ATOM     13  H   UNL     1       0.789   0.865   0.183  0.00  0.00    +0.292 HD
ENDBRANCH   1  12
TORSDOF 2
