REMARK  Name = 
REMARK  1 active torsions:
REMARK  status: ('A' for Active; 'I' for Inactive)
REMARK    1  A    between atoms: N_3  and  C_7
REMARK                            x       y       z     vdW  Elec       q    Type
REMARK                         _______ _______ _______ _____ _____    ______ ____
ROOT
ATOM      1  C   UNL     1      -2.512  -0.114  -0.988  0.00  0.00    +0.152 A 
ATOM      2  N   UNL     1      -2.965   1.056  -1.540  0.00  0.00    -0.218 NA
ATOM      3  C   UNL     1      -4.014   1.049  -2.390  0.00  0.00    +0.225 A 
ATOM      4  N   UNL     1      -4.732  -0.005  -2.813  0.00  0.00    -0.216 NA
ATOM      5  C   UNL     1      -4.269  -1.133  -2.263  0.00  0.00    +0.163 A 
ATOM      6  N   UNL     1      -4.776  -2.384  -2.461  0.00  0.00    -0.329 N 
ATOM      7  H   UNL     1      -5.568  -2.605  -3.045  0.00  0.00    +0.168 HD
ATOM      8  C   UNL     1      -4.028  -3.254  -1.721  0.00  0.00    +0.198 A 
ATOM      9  N   UNL     1      -3.077  -2.634  -1.058  0.00  0.00    -0.231 NA
ATOM     10  C   UNL     1      -3.209  -1.290  -1.382  0.00  0.00    +0.147 A 
ENDROOT
BRANCH   1  15
ATOM     11  C   UNL     1       0.630   1.211  -0.324  0.00  0.00    +0.178 C 
ATOM     12  O   UNL     1       1.372   0.077   0.159  0.00  0.00    -0.377 OA
ATOM     13  C   UNL     1       0.722  -1.146  -0.229  0.00  0.00    +0.178 C 
ATOM     14  C   UNL     1      -0.702  -1.230   0.342  0.00  0.00    +0.134 C 
ATOM     15  N   UNL     1      -1.474  -0.055  -0.076  0.00  0.00    -0.309 N 
ATOM     16  C   UNL     1      -0.811   1.224   0.213  0.00  0.00    +0.134 C 
ENDBRANCH   1  15
TORSDOF 1
