REMARK  Name = 
REMARK  3 active torsions:
REMARK  status: ('A' for Active; 'I' for Inactive)
REMARK    1  A    between atoms: C_1  and  C_2
REMARK    2  A    between atoms: C_9  and  N_10
REMARK    3  A    between atoms: N_10  and  C_11
REMARK                            x       y       z     vdW  Elec       q    Type
REMARK                         _______ _______ _______ _____ _____    ______ ____
ROOT
ATOM      1  C   UNL     1       4.364   3.750  -0.013  0.00  0.00    +0.033 A 
ATOM      2  C   UNL     1       4.980   4.970  -0.294  0.00  0.00    +0.024 A 
ATOM      3  C   UNL     1       4.265   6.173  -0.176  0.00  0.00    +0.010 A 
ATOM      4  C   UNL     1       2.921   6.184   0.247  0.00  0.00    -0.017 A 
ATOM      5  C   UNL     1       2.308   4.958   0.559  0.00  0.00    -0.016 A 
ATOM      6  C   UNL     1       0.971   4.918   0.974  0.00  0.00    +0.017 A 
ATOM      7  C   UNL     1       0.245   6.093   1.177  0.00  0.00    -0.017 A 
ATOM      8  C   UNL     1       0.854   7.337   0.906  0.00  0.00    -0.017 A 
ATOM      9  C   UNL     1       0.136   8.511   1.190  0.00  0.00    +0.008 A 
ATOM     10  C   UNL     1      -1.142   8.449   1.752  0.00  0.00    +0.001 A 
ATOM     11  C   UNL     1      -1.743   7.217   1.993  0.00  0.00    +0.001 A 
ATOM     12  C   UNL     1      -1.060   6.043   1.687  0.00  0.00    +0.008 A 
ATOM     13  C   UNL     1       2.172   7.366   0.402  0.00  0.00    +0.017 A 
ATOM     14  C   UNL     1       3.043   3.774   0.459  0.00  0.00    +0.031 A 
ENDROOT
BRANCH   1  15
ATOM     15  N   UNL     1       5.036   2.533  -0.274  0.00  0.00    -0.299 N 
ATOM     16  H   UNL     1       5.917   2.419   0.232  0.00  0.00    +0.154 HD
BRANCH  15  20
ATOM     17  C   UNL     1       1.142  -0.036  -1.848  0.00  0.00    +0.066 C 
ATOM     18  C   UNL     1       2.569  -0.063  -1.364  0.00  0.00    +0.045 A 
ATOM     19  C   UNL     1       3.227   1.265  -1.262  0.00  0.00    +0.067 A 
ATOM     20  C   UNL     1       4.392   1.335  -0.585  0.00  0.00    +0.130 A 
ATOM     21  N   UNL     1       4.988   0.111  -0.215  0.00  0.00    -0.182 N 
ATOM     22  C   UNL     1       4.359  -1.120  -0.473  0.00  0.00    +0.255 A 
ATOM     23  N   UNL     1       5.153  -2.092  -0.085  0.00  0.00    -0.197 NA
ATOM     24  C   UNL     1       6.235  -1.445   0.413  0.00  0.00    +0.247 A 
ATOM     25  N   UNL     1       6.190  -0.112   0.389  0.00  0.00    -0.151 NA
ATOM     26  N   UNL     1       3.103  -1.191  -1.006  0.00  0.00    -0.216 NA
ENDBRANCH  15  20
ENDBRANCH   1  15
TORSDOF 2
