REMARK  Name = 
REMARK  10 active torsions:
REMARK  status: ('A' for Active; 'I' for Inactive)
REMARK    1  A    between atoms: C_1  and  C_2
REMARK    2  A    between atoms: C_3  and  C_7
REMARK    3  A    between atoms: C_7  and  N_9
REMARK    4  A    between atoms: N_9  and  C_10
REMARK    5  A    between atoms: C_12  and  C_13
REMARK    6  A    between atoms: N_14  and  O_15
REMARK    7  A    between atoms: O_15  and  C_16
REMARK    8  A    between atoms: C_16  and  C_17
REMARK    9  A    between atoms: C_16  and  C_18
REMARK   10  A    between atoms: C_16  and  C_19
REMARK                            x       y       z     vdW  Elec       q    Type
REMARK                         _______ _______ _______ _____ _____    ______ ____
ROOT
ATOM      1  C   UNL     1       3.197   4.884  -0.097  0.00  0.00    +0.032 A 
ATOM      2  C   UNL     1       4.140   5.863   0.214  0.00  0.00    +0.025 A 
ATOM      3  C   UNL     1       3.795   7.215   0.131  0.00  0.00    +0.022 A 
ATOM      4  C   UNL     1       2.522   7.606  -0.302  0.00  0.00    +0.050 A 
ATOM      5 CL   UNL     1       2.239   9.305  -0.407  0.00  0.00    -0.083 Cl
ATOM      6  C   UNL     1       1.587   6.627  -0.665  0.00  0.00    +0.016 A 
ATOM      7  C   UNL     1       1.939   5.272  -0.571  0.00  0.00    +0.034 A 
ENDROOT
BRANCH   1   8
ATOM      8  N   UNL     1       3.564   3.526   0.011  0.00  0.00    -0.308 N 
ATOM      9  H   UNL     1       4.554   3.313  -0.042  0.00  0.00    +0.153 HD
BRANCH   8  10
ATOM     10  C   UNL     1       2.729   2.460   0.299  0.00  0.00    +0.087 C 
ATOM     11  S   UNL     1       1.317   2.508   1.204  0.00  0.00    -0.035 S 
BRANCH  10  17
ATOM     12  C   UNL     1       4.252   1.648  -2.537  0.00  0.00    +0.087 C 
ATOM     13  C   UNL     1       3.803   0.860  -1.367  0.00  0.00    +0.111 A 
ATOM     14  O   UNL     1       3.976  -0.486  -1.506  0.00  0.00    -0.467 OA
ATOM     15  C   UNL     1       3.461  -1.080  -0.407  0.00  0.00    +0.196 A 
ATOM     16  C   UNL     1       2.977  -0.134   0.459  0.00  0.00    +0.051 A 
ATOM     17  C   UNL     1       3.167   1.146  -0.161  0.00  0.00    +0.044 A 
ENDBRANCH  10  17
ENDBRANCH   8  10
ENDBRANCH   1   8
BRANCH   6  18
ATOM     18  C   UNL     1       0.212   6.902  -1.125  0.00  0.00    +0.162 C 
ATOM     19  N   UNL     1      -0.405   7.978  -0.790  0.00  0.00    -0.092 NA
BRANCH  19  20
ATOM     20  O   UNL     1      -1.713   7.993  -1.296  0.00  0.00    -0.388 OA
BRANCH  20  21
ATOM     21  C   UNL     1      -2.413   9.138  -0.763  0.00  0.00    +0.130 C 
ATOM     22  C   UNL     1      -2.505   9.032   0.766  0.00  0.00    +0.058 C 
ATOM     23  C   UNL     1      -3.829   9.109  -1.350  0.00  0.00    +0.058 C 
ATOM     24  C   UNL     1      -1.721  10.438  -1.194  0.00  0.00    +0.058 C 
ENDBRANCH  20  21
ENDBRANCH  19  20
ENDBRANCH   6  18
TORSDOF 6
