REMARK  Name = 
REMARK  3 active torsions:
REMARK  status: ('A' for Active; 'I' for Inactive)
REMARK    1  A    between atoms: C_4  and  N_20
REMARK    2  A    between atoms: C_6  and  C_8
REMARK    3  A    between atoms: N_10  and  C_11
REMARK                            x       y       z     vdW  Elec       q    Type
REMARK                         _______ _______ _______ _____ _____    ______ ____
ROOT
ATOM      1  C   UNL     1       5.187  -2.432   0.022  0.00  0.00    +0.248 C 
ATOM      2  N   UNL     1       4.785  -3.592   0.677  0.00  0.00    -0.281 N 
ATOM      3  H   UNL     1       4.003  -3.534   1.314  0.00  0.00    +0.155 HD
ATOM      4  O   UNL     1       6.241  -2.285  -0.594  0.00  0.00    -0.270 OA
ENDROOT
BRANCH   2   5
ATOM      5  C   UNL     1       5.538  -4.798   0.694  0.00  0.00    +0.034 A 
ATOM      6  C   UNL     1       5.239  -5.764   1.670  0.00  0.00    +0.033 A 
ATOM      7  C   UNL     1       6.024  -6.941   1.759  0.00  0.00    +0.001 A 
ATOM      8  C   UNL     1       7.059  -7.129   0.846  0.00  0.00    +0.047 A 
ATOM      9  N   UNL     1       7.670  -8.326   1.146  0.00  0.00    -0.361 N 
ATOM     10  H   UNL     1       8.457  -8.707   0.641  0.00  0.00    +0.165 HD
ATOM     11  C   UNL     1       7.062  -8.902   2.228  0.00  0.00    +0.083 A 
ATOM     12  C   UNL     1       7.351  -6.210  -0.159  0.00  0.00    +0.028 A 
ATOM     13  C   UNL     1       6.036  -8.071   2.627  0.00  0.00    +0.027 A 
ATOM     14  C   UNL     1       6.570  -5.052  -0.214  0.00  0.00    +0.025 A 
ENDBRANCH   2   5
BRANCH   1  18
ATOM     15  F   UNL     1       0.885  -0.107   0.183  0.00  0.00    -0.205 F 
ATOM     16  C   UNL     1       2.226  -0.079   0.156  0.00  0.00    +0.126 A 
ATOM     17  C   UNL     1       2.925  -1.284   0.164  0.00  0.00    +0.051 A 
ATOM     18  C   UNL     1       4.312  -1.237   0.115  0.00  0.00    +0.041 A 
ATOM     19  C   UNL     1       4.958   0.011   0.053  0.00  0.00    +0.036 A 
ATOM     20  C   UNL     1       4.267   1.230   0.029  0.00  0.00    +0.033 A 
ATOM     21  C   UNL     1       2.876   1.159   0.098  0.00  0.00    +0.061 A 
BRANCH  20  22
ATOM     22  N   UNL     1       4.990   2.410  -0.016  0.00  0.00    -0.325 N 
ATOM     23  C   UNL     1       5.959   2.585  -1.124  0.00  0.00    +0.133 C 
ATOM     24  C   UNL     1       7.058   3.566  -0.680  0.00  0.00    +0.178 C 
ATOM     25  O   UNL     1       6.506   4.819  -0.239  0.00  0.00    -0.377 OA
ATOM     26  C   UNL     1       5.586   4.608   0.848  0.00  0.00    +0.178 C 
ATOM     27  C   UNL     1       4.421   3.690   0.431  0.00  0.00    +0.133 C 
ENDBRANCH  20  22
ENDBRANCH   1  18
TORSDOF 3
