REMARK  Name = 
REMARK  9 active torsions:
REMARK  status: ('A' for Active; 'I' for Inactive)
REMARK    1  A    between atoms: O_1  and  C_2
REMARK    2  A    between atoms: C_2  and  C_4
REMARK    3  A    between atoms: C_4  and  C_5
REMARK    4  A    between atoms: C_5  and  C_6
REMARK    5  A    between atoms: C_6  and  C_7
REMARK    6  A    between atoms: C_7  and  C_8
REMARK    7  A    between atoms: C_8  and  C_9
REMARK    8  A    between atoms: C_9  and  N_10
REMARK    9  A    between atoms: N_13  and  C_14
REMARK                            x       y       z     vdW  Elec       q    Type
REMARK                         _______ _______ _______ _____ _____    ______ ____
ROOT
ATOM      1  N   UNL     1       9.965   1.475  -4.192  0.00  0.00    -0.299 N 
ATOM      2  H   UNL     1       9.622   1.326  -5.129  0.00  0.00    +0.150 HD
ATOM      3  C   UNL     1      11.332   1.503  -4.063  0.00  0.00    +0.300 C 
ATOM      4  N   UNL     1      11.935   1.809  -5.257  0.00  0.00    -0.297 N 
ATOM      5  H   UNL     1      11.384   2.392  -5.870  0.00  0.00    +0.151 HD
ATOM      6  O   UNL     1      11.932   1.262  -3.026  0.00  0.00    -0.253 OA
ENDROOT
BRANCH   4   7
ATOM      7  C   UNL     1      13.387   1.900  -5.371  0.00  0.00    +0.074 C 
ATOM      8  C   UNL     1      13.911   3.268  -4.913  0.00  0.00    +0.022 C 
ATOM      9  C   UNL     1      13.554   4.391  -5.887  0.00  0.00    +0.002 C 
ATOM     10  C   UNL     1      13.969   4.068  -7.320  0.00  0.00    +0.000 C 
ATOM     11  C   UNL     1      13.447   2.710  -7.781  0.00  0.00    +0.002 C 
ATOM     12  C   UNL     1      13.836   1.600  -6.806  0.00  0.00    +0.022 C 
ENDBRANCH   4   7
BRANCH   1  13
ATOM     13  C   UNL     1       9.133   1.005  -3.102  0.00  0.00    +0.106 C 
BRANCH  13  14
ATOM     14  C   UNL     1       8.735   2.136  -2.156  0.00  0.00    +0.019 C 
BRANCH  14  15
ATOM     15  C   UNL     1       7.901   1.601  -0.991  0.00  0.00    +0.002 C 
BRANCH  15  16
ATOM     16  C   UNL     1       7.474   2.715  -0.033  0.00  0.00    +0.001 C 
BRANCH  16  17
ATOM     17  C   UNL     1       6.650   2.152   1.127  0.00  0.00    +0.011 C 
BRANCH  17  18
ATOM     18  C   UNL     1       6.211   3.246   2.097  0.00  0.00    +0.120 C 
BRANCH  18  19
ATOM     19  C   UNL     1       5.391   2.685   3.237  0.00  0.00    +0.305 C 
ATOM     20  O   UNL     1       5.094   1.511   3.388  0.00  0.00    -0.251 OA
BRANCH  19  21
ATOM     21  O   UNL     1       4.998   3.645   4.107  0.00  0.00    -0.481 OA
ATOM     22  H   UNL     1       5.304   4.540   3.868  0.00  0.00    +0.295 HD
ENDBRANCH  19  21
ENDBRANCH  18  19
ENDBRANCH  17  18
ENDBRANCH  16  17
ENDBRANCH  15  16
ENDBRANCH  14  15
ENDBRANCH  13  14
ENDBRANCH   1  13
TORSDOF 9
