REMARK  Name = 
REMARK  3 active torsions:
REMARK  status: ('A' for Active; 'I' for Inactive)
REMARK    1  A    between atoms: C_2  and  C_24
REMARK    2  A    between atoms: C_4  and  C_5
REMARK    3  A    between atoms: C_21  and  O_22
REMARK                            x       y       z     vdW  Elec       q    Type
REMARK                         _______ _______ _______ _____ _____    ______ ____
ROOT
ATOM      1  C   UNL     1       2.105   0.024   0.083  0.00  0.00    +0.257 C 
ATOM      2  C   UNL     1       2.696   1.336  -0.511  0.00  0.00    +0.319 C 
ATOM      3  N   UNL     1       3.365   2.134   0.420  0.00  0.00    -0.217 N 
ATOM      4  C   UNL     1       4.639   1.651   0.879  0.00  0.00    +0.260 C 
ATOM      5  C   UNL     1       5.273   2.985   0.475  0.00  0.00    +0.193 C 
ATOM      6  C   UNL     1       3.872   3.420   0.036  0.00  0.00    +0.260 C 
ATOM      7  N   UNL     1       2.533   1.701  -1.759  0.00  0.00    -0.043 NA
ATOM      8  C   UNL     1       1.671   0.982  -2.614  0.00  0.00    +0.185 A 
ATOM      9  C   UNL     1       1.588  -0.412  -2.725  0.00  0.00    +0.051 A 
ATOM     10  C   UNL     1       0.608  -1.012  -3.542  0.00  0.00    +0.014 A 
ATOM     11  C   UNL     1      -0.271  -0.228  -4.283  0.00  0.00    +0.001 A 
ATOM     12  C   UNL     1      -0.176   1.157  -4.212  0.00  0.00    +0.004 A 
ATOM     13  C   UNL     1       2.447  -1.303  -1.903  0.00  0.00    +0.078 C 
ATOM     14  C   UNL     1       0.788   1.750  -3.390  0.00  0.00    +0.056 A 
ATOM     15  N   UNL     1       2.670  -1.136  -0.640  0.00  0.00    -0.262 NA
ENDROOT
BRANCH  13  16
ATOM     16  C   UNL     1       3.056  -2.505  -2.563  0.00  0.00    +0.001 A 
ATOM     17  C   UNL     1       3.497  -2.463  -3.893  0.00  0.00    +0.010 A 
ATOM     18  C   UNL     1       4.056  -3.600  -4.482  0.00  0.00    +0.001 A 
ATOM     19  C   UNL     1       4.180  -4.779  -3.747  0.00  0.00    +0.000 A 
ATOM     20  C   UNL     1       3.744  -4.826  -2.423  0.00  0.00    +0.001 A 
ATOM     21  C   UNL     1       3.185  -3.692  -1.830  0.00  0.00    +0.010 A 
ENDBRANCH  13  16
BRANCH   1  22
ATOM     22  C   UNL     1       0.596   0.027   0.188  0.00  0.00    +0.026 A 
ATOM     23  S   UNL     1      -0.290   1.492   0.369  0.00  0.00    -0.099 S 
ATOM     24  C   UNL     1      -1.786   0.679   0.263  0.00  0.00    +0.045 A 
ATOM     25  C   UNL     1      -1.625  -0.685   0.224  0.00  0.00    +0.008 A 
ATOM     26  C   UNL     1      -0.254  -1.062   0.209  0.00  0.00    +0.014 A 
ENDBRANCH   1  22
BRANCH   5  27
ATOM     27  O   UNL     1       6.295   2.941  -0.544  0.00  0.00    -0.384 OA
ATOM     28  H   UNL     1       5.872   2.488  -1.300  0.00  0.00    +0.210 HD
ENDBRANCH   5  27
TORSDOF 3
