REMARK  Name = 
REMARK  13 active torsions:
REMARK  status: ('A' for Active; 'I' for Inactive)
REMARK    1  A    between atoms: C_1  and  N_2
REMARK    2  A    between atoms: N_2  and  C_3
REMARK    3  A    between atoms: N_2  and  C_18
REMARK    4  A    between atoms: C_3  and  C_4
REMARK    5  A    between atoms: C_4  and  O_5
REMARK    6  A    between atoms: O_5  and  P_6
REMARK    7  A    between atoms: P_6  and  O_7
REMARK    8  A    between atoms: P_6  and  O_9
REMARK    9  A    between atoms: O_9  and  P_10
REMARK   10  A    between atoms: P_10  and  O_11
REMARK   11  A    between atoms: P_10  and  O_13
REMARK   12  A    between atoms: O_13  and  BE_14
REMARK   13  A    between atoms: C_23  and  N_24
REMARK                            x       y       z     vdW  Elec       q    Type
REMARK                         _______ _______ _______ _____ _____    ______ ____
ROOT
ATOM      1  O   UNL     1       4.452  -4.347  -2.508  0.00  0.00    +0.000 OA
ENDROOT
BRANCH   1   2
ATOM      2  P   UNL     1       3.148  -3.214  -2.601  0.00  0.00    +0.000 P 
ATOM      3  O   UNL     1       2.678  -2.685  -3.979  0.00  0.00    +0.000 OA
BRANCH   2   4
ATOM      4  O   UNL     1       2.021  -4.521  -2.718  0.00  0.00    +0.000 OA
ATOM      5  H   UNL     1       1.121  -4.167  -2.789  0.00  0.00    +0.000 HD
ENDBRANCH   2   4
BRANCH   2   6
ATOM      6  O   UNL     1       4.275  -1.906  -2.484  0.00  0.00    +0.000 OA
BRANCH   6   7
ATOM      7  P   UNL     1       3.916  -0.960  -1.081  0.00  0.00    +0.000 P 
ATOM      8  O   UNL     1       2.971  -0.069  -1.925  0.00  0.00    +0.000 OA
BRANCH   7   9
ATOM      9  O   UNL     1       5.589  -0.546  -0.932  0.00  0.00    +0.000 OA
ATOM     10  H   UNL     1       6.092  -0.969  -1.645  0.00  0.00    +0.000 HD
ENDBRANCH   7   9
BRANCH   7  11
ATOM     11  O   UNL     1       3.557  -0.013   0.321  0.00  0.00    +0.000 OA
BRANCH  11  12
ATOM     12 BE   UNL     1       2.719  -0.910   1.379  0.00  0.00    +0.000 Be
ATOM     13  F   UNL     1       1.928  -1.757   2.377  0.00  0.00    +0.000 F 
ATOM     14  F   UNL     1        -nan    -nan    -nan  0.00  0.00    +0.000 F 
ATOM     15  F   UNL     1       2.788  -2.412   1.659  0.00  0.00    +0.000 F 
ENDBRANCH  11  12
ENDBRANCH   7  11
ENDBRANCH   6   7
ENDBRANCH   2   6
ENDBRANCH   1   2
BRANCH   1  16
ATOM     16  C   UNL     1       4.240  -5.161  -1.364  0.00  0.00    +0.000 C 
BRANCH  16  17
ATOM     17  C   UNL     1       5.368  -6.173  -1.246  0.00  0.00    +0.000 C 
BRANCH  17  19
ATOM     18  C   UNL     1       6.680  -3.995  -1.108  0.00  0.00    +0.000 C 
ATOM     19  N   UNL     1       6.649  -5.465  -1.113  0.00  0.00    +0.000 N 
BRANCH  19  20
ATOM     20  C   UNL     1       7.900  -6.227  -0.984  0.00  0.00    +0.000 A 
ATOM     21  C   UNL     1       9.099  -5.651  -0.883  0.00  0.00    +0.000 A 
ATOM     22  C   UNL     1      10.248  -6.473  -0.788  0.00  0.00    +0.000 A 
ATOM     23  C   UNL     1      10.102  -7.837  -0.499  0.00  0.00    +0.000 A 
ATOM     24  C   UNL     1       8.936  -8.404  -0.602  0.00  0.00    +0.000 A 
ATOM     25  C   UNL     1       7.819  -7.647  -0.993  0.00  0.00    +0.000 A 
BRANCH  21  26
ATOM     26  N   UNL     1       9.226  -4.187  -0.871  0.00  0.00    +1.000 N 
ATOM     27  O   UNL     1       9.881  -3.621  -1.740  0.00  0.00    +0.000 OA
ATOM     28  O   UNL     1       8.612  -3.454   0.110  0.00  0.00    -1.000 OA
ENDBRANCH  21  26
ENDBRANCH  19  20
ENDBRANCH  17  19
ENDBRANCH  16  17
ENDBRANCH   1  16
TORSDOF 12
