REMARK  Name = 
REMARK  10 active torsions:
REMARK  status: ('A' for Active; 'I' for Inactive)
REMARK    1  A    between atoms: C_1  and  C_2
REMARK    2  A    between atoms: C_2  and  C_3
REMARK    3  A    between atoms: C_2  and  C_4
REMARK    4  A    between atoms: C_5  and  S_6
REMARK    5  A    between atoms: S_6  and  C_7
REMARK    6  A    between atoms: N_15  and  C_16
REMARK    7  A    between atoms: C_16  and  C_17
REMARK    8  A    between atoms: C_23  and  C_24
REMARK    9  A    between atoms: C_24  and  O_25
REMARK   10  A    between atoms: O_25  and  C_26
REMARK                            x       y       z     vdW  Elec       q    Type
REMARK                         _______ _______ _______ _____ _____    ______ ____
ROOT
ATOM      1  C   UNL     1       2.926  -1.434  -0.605  0.00  0.00    +0.076 A 
ATOM      2  N   UNL     1       2.384  -2.554  -0.033  0.00  0.00    -0.232 NA
ATOM      3  C   UNL     1       2.930  -3.597  -0.617  0.00  0.00    +0.149 A 
ATOM      4  N   UNL     1       3.835  -3.182  -1.589  0.00  0.00    -0.315 N 
ATOM      5  C   UNL     1       3.861  -1.791  -1.561  0.00  0.00    +0.104 A 
ENDROOT
BRANCH   1   7
ATOM      6  C   UNL     1       0.888  -0.006  -0.376  0.00  0.00    +0.014 C 
ATOM      7  C   UNL     1       2.400  -0.116  -0.124  0.00  0.00    +0.034 C 
ATOM      8  C   UNL     1       2.667   0.026   1.380  0.00  0.00    +0.014 C 
ENDBRANCH   1   7
BRANCH   3   9
ATOM      9  C   UNL     1       2.594  -5.018  -0.265  0.00  0.00    +0.308 C 
BRANCH   9  10
ATOM     10  O   UNL     1       1.785  -5.038   0.930  0.00  0.00    -0.443 OA
BRANCH  10  11
ATOM     11  C   UNL     1       2.476  -4.897   2.084  0.00  0.00    +0.398 C 
ATOM     12  O   UNL     1       3.686  -4.755   2.195  0.00  0.00    -0.227 OA
ATOM     13  N   UNL     1       1.648  -4.962   3.150  0.00  0.00    -0.295 N 
ATOM     14  H   UNL     1       2.029  -4.823   4.077  0.00  0.00    +0.148 HD
ATOM     15  H   UNL     1       0.651  -5.066   3.008  0.00  0.00    +0.148 HD
ENDBRANCH  10  11
ENDBRANCH   9  10
ENDBRANCH   3   9
BRANCH   4  16
ATOM     16  C   UNL     1       4.449  -4.049  -2.597  0.00  0.00    +0.159 C 
BRANCH  16  17
ATOM     17  C   UNL     1       5.456  -5.066  -2.111  0.00  0.00    -0.025 A 
ATOM     18  C   UNL     1       5.962  -5.987  -3.042  0.00  0.00    +0.025 A 
ATOM     19  C   UNL     1       6.787  -7.012  -2.604  0.00  0.00    +0.111 A 
ATOM     20  N   UNL     1       7.137  -7.186  -1.315  0.00  0.00    -0.263 NA
ATOM     21  C   UNL     1       6.685  -6.267  -0.437  0.00  0.00    +0.111 A 
ATOM     22  C   UNL     1       5.889  -5.185  -0.787  0.00  0.00    +0.025 A 
ENDBRANCH  16  17
ENDBRANCH   4  16
BRANCH   5  23
ATOM     23  S   UNL     1       4.775  -0.858  -2.712  0.00  0.00    -0.070 S 
BRANCH  23  24
ATOM     24  C   UNL     1       5.895   0.149  -1.749  0.00  0.00    +0.017 A 
ATOM     25  C   UNL     1       6.441   1.281  -2.384  0.00  0.00    +0.035 A 
ATOM     26  C   UNL     1       7.325   2.127  -1.707  0.00  0.00    +0.043 A 
ATOM     27 CL   UNL     1       7.982   3.500  -2.511  0.00  0.00    -0.083 Cl
ATOM     28  C   UNL     1       7.675   1.870  -0.391  0.00  0.00    +0.040 A 
ATOM     29  C   UNL     1       7.167   0.731   0.231  0.00  0.00    +0.043 A 
ATOM     30 CL   UNL     1       7.614   0.388   1.858  0.00  0.00    -0.083 Cl
ATOM     31  C   UNL     1       6.294  -0.132  -0.441  0.00  0.00    +0.035 A 
ENDBRANCH  23  24
ENDBRANCH   5  23
TORSDOF 8
