REMARK  Name = 
REMARK  5 active torsions:
REMARK  status: ('A' for Active; 'I' for Inactive)
REMARK    1  A    between atoms: O_1  and  N_2
REMARK    2  A    between atoms: N_6  and  C_7
REMARK    3  A    between atoms: C_7  and  C_8
REMARK    4  A    between atoms: C_23  and  C_24
REMARK    5  A    between atoms: C_25  and  C_26
REMARK                            x       y       z     vdW  Elec       q    Type
REMARK                         _______ _______ _______ _____ _____    ______ ____
ROOT
ATOM      1  N   UNL     1       2.203   0.108  -0.077  0.00  0.00    -0.082 NA
ATOM      2  C   UNL     1       2.923   0.865   0.690  0.00  0.00    +0.174 C 
ATOM      3  C   UNL     1       4.391   0.899   0.702  0.00  0.00    +0.037 A 
ATOM      4  C   UNL     1       4.751   1.773   1.739  0.00  0.00    +0.047 A 
ATOM      5  C   UNL     1       6.080   2.006   2.041  0.00  0.00    +0.024 A 
ATOM      6  C   UNL     1       7.048   1.347   1.279  0.00  0.00    +0.002 A 
ATOM      7  C   UNL     1       6.681   0.474   0.235  0.00  0.00    +0.009 A 
ATOM      8  N   UNL     1       3.617   2.312   2.373  0.00  0.00    -0.261 N 
ATOM      9  C   UNL     1       5.333   0.236  -0.086  0.00  0.00    -0.014 A 
ATOM     10  C   UNL     1       2.455   1.849   1.778  0.00  0.00    +0.273 C 
ATOM     11  O   UNL     1       1.311   2.159   2.039  0.00  0.00    -0.268 OA
ENDROOT
BRANCH   1  12
ATOM     12  O   UNL     1       0.840   0.252   0.177  0.00  0.00    -0.409 OA
ATOM     13  H   UNL     1       0.438  -0.392  -0.435  0.00  0.00    +0.328 HD
ENDBRANCH   1  12
BRANCH   9  14
ATOM     14  C   UNL     1       4.957  -0.714  -1.144  0.00  0.00    +0.009 C 
ATOM     15  C   UNL     1       5.629  -0.922  -2.288  0.00  0.00    +0.008 C 
BRANCH  15  16
ATOM     16  C   UNL     1       5.099  -1.858  -3.287  0.00  0.00    -0.025 A 
ATOM     17  C   UNL     1       5.375  -3.227  -3.202  0.00  0.00    +0.008 A 
ATOM     18  C   UNL     1       4.805  -4.118  -4.116  0.00  0.00    +0.001 A 
ATOM     19  C   UNL     1       3.959  -3.645  -5.119  0.00  0.00    +0.000 A 
ATOM     20  C   UNL     1       3.690  -2.280  -5.216  0.00  0.00    +0.001 A 
ATOM     21  C   UNL     1       4.260  -1.389  -4.304  0.00  0.00    +0.008 A 
ENDBRANCH  15  16
ENDBRANCH   9  14
BRANCH   8  22
ATOM     22  C   UNL     1       3.630   3.245   3.484  0.00  0.00    +0.153 C 
BRANCH  22  23
ATOM     23  C   UNL     1       3.842   4.682   3.060  0.00  0.00    +0.015 A 
ATOM     24  C   UNL     1       2.934   5.280   2.169  0.00  0.00    +0.047 A 
ATOM     25  C   UNL     1       3.124   6.590   1.744  0.00  0.00    +0.124 A 
ATOM     26  F   UNL     1       2.264   7.135   0.875  0.00  0.00    -0.205 F 
ATOM     27  C   UNL     1       4.193   7.343   2.208  0.00  0.00    +0.047 A 
ATOM     28  C   UNL     1       5.077   6.789   3.139  0.00  0.00    +0.023 A 
ATOM     29  C   UNL     1       6.218   7.597   3.674  0.00  0.00    +0.202 C 
ATOM     30  O   UNL     1       6.651   7.058   4.915  0.00  0.00    -0.339 OA
ATOM     31  C   UNL     1       6.907   5.668   4.767  0.00  0.00    +0.394 C 
ATOM     32  O   UNL     1       5.748   4.885   4.469  0.00  0.00    -0.465 OA
ATOM     33  C   UNL     1       4.906   5.459   3.552  0.00  0.00    +0.134 A 
ENDBRANCH  22  23
ENDBRANCH   8  22
TORSDOF 5
