REMARK  Name = 
REMARK  7 active torsions:
REMARK  status: ('A' for Active; 'I' for Inactive)
REMARK    1  A    between atoms: C_1  and  N_2
REMARK    2  A    between atoms: N_2  and  C_3
REMARK    3  A    between atoms: N_2  and  C_4
REMARK    4  A    between atoms: C_7  and  N_10
REMARK    5  A    between atoms: N_11  and  C_12
REMARK    6  A    between atoms: C_17  and  C_18
REMARK    7  A    between atoms: C_18  and  O_19
REMARK                            x       y       z     vdW  Elec       q    Type
REMARK                         _______ _______ _______ _____ _____    ______ ____
ROOT
ATOM      1  N   UNL     1       5.458  -3.923   2.879  0.00  0.00    -0.149 NA
ATOM      2  N   UNL     1       4.745  -4.728   3.516  0.00  0.00    -0.148 NA
ENDROOT
BRANCH   1   6
ATOM      3  C   UNL     1       3.215  -0.841   0.928  0.00  0.00    +0.029 A 
ATOM      4  C   UNL     1       2.827  -2.190   0.863  0.00  0.00    +0.025 A 
ATOM      5  C   UNL     1       3.544  -3.208   1.508  0.00  0.00    +0.031 A 
ATOM      6  C   UNL     1       4.680  -2.918   2.267  0.00  0.00    +0.086 A 
ATOM      7  C   UNL     1       5.088  -1.587   2.341  0.00  0.00    +0.031 A 
ATOM      8  C   UNL     1       4.372  -0.574   1.680  0.00  0.00    +0.025 A 
BRANCH   3  10
ATOM      9  C   UNL     1       2.957   1.543   0.302  0.00  0.00    +0.129 C 
ATOM     10  N   UNL     1       2.511   0.156   0.256  0.00  0.00    -0.336 N 
ATOM     11  C   UNL     1       1.121  -0.079  -0.128  0.00  0.00    +0.129 C 
ENDBRANCH   3  10
ENDBRANCH   1   6
BRANCH   2  12
ATOM     12  C   UNL     1       5.486  -5.827   4.008  0.00  0.00    +0.100 A 
ATOM     13  C   UNL     1       4.988  -7.136   3.878  0.00  0.00    +0.086 A 
ATOM     14  C   UNL     1       5.705  -8.222   4.414  0.00  0.00    +0.017 A 
ATOM     15  C   UNL     1       6.904  -8.014   5.093  0.00  0.00    +0.001 A 
ATOM     16  C   UNL     1       7.404  -6.723   5.230  0.00  0.00    +0.002 A 
ATOM     17  C   UNL     1       6.699  -5.640   4.695  0.00  0.00    +0.030 A 
BRANCH  13  18
ATOM     18  C   UNL     1       3.724  -7.468   3.163  0.00  0.00    +0.339 C 
ATOM     19  O   UNL     1       3.525  -8.566   2.667  0.00  0.00    -0.245 OA
BRANCH  18  20
ATOM     20  O   UNL     1       2.783  -6.501   3.170  0.00  0.00    -0.477 OA
ATOM     21  H   UNL     1       3.070  -5.660   3.581  0.00  0.00    +0.295 HD
ENDBRANCH  18  20
ENDBRANCH  13  18
ENDBRANCH   2  12
TORSDOF 5
