REMARK  Name = 
REMARK  8 active torsions:
REMARK  status: ('A' for Active; 'I' for Inactive)
REMARK    1  A    between atoms: C_2  and  C_27
REMARK    2  A    between atoms: C_8  and  O_10
REMARK    3  A    between atoms: O_10  and  C_11
REMARK    4  A    between atoms: C_11  and  C_12
REMARK    5  A    between atoms: C_19  and  N_20
REMARK    6  A    between atoms: N_20  and  S_21
REMARK    7  A    between atoms: S_21  and  O_22
REMARK    8  A    between atoms: N_29  and  C_30
REMARK                            x       y       z     vdW  Elec       q    Type
REMARK                         _______ _______ _______ _____ _____    ______ ____
ROOT
ATOM      1  C   UNL     1       2.152  -0.067  -0.030  0.00  0.00    +0.170 C 
ATOM      2  N   UNL     1       2.665  -1.183   0.789  0.00  0.00    -0.251 N 
ATOM      3  C   UNL     1       1.896  -1.980   1.615  0.00  0.00    +0.404 C 
ATOM      4  O   UNL     1       2.368  -2.886   2.291  0.00  0.00    -0.226 OA
ATOM      5  C   UNL     1       4.112  -1.327   0.848  0.00  0.00    +0.147 C 
ATOM      6  C   UNL     1       4.837  -0.005   0.927  0.00  0.00    -0.025 A 
ATOM      7  C   UNL     1       6.220  -0.023   1.153  0.00  0.00    +0.030 A 
ATOM      8  C   UNL     1       6.929   1.165   1.291  0.00  0.00    +0.050 A 
ATOM      9  C   UNL     1       6.277   2.390   1.163  0.00  0.00    +0.025 A 
ATOM     10  C   UNL     1       4.901   2.421   0.909  0.00  0.00    +0.006 A 
ATOM     11  C   UNL     1       4.174   1.227   0.779  0.00  0.00    -0.040 A 
ATOM     12  C   UNL     1       2.678   1.266   0.531  0.00  0.00    +0.067 C 
ENDROOT
BRANCH   1  13
ATOM     13  C   UNL     1       2.499  -0.205  -1.537  0.00  0.00    +0.234 C 
ATOM     14  N   UNL     1       2.605  -1.507  -1.987  0.00  0.00    -0.317 N 
ATOM     15  H   UNL     1       2.443  -2.256  -1.326  0.00  0.00    +0.148 HD
ATOM     16  C   UNL     1       2.927  -1.835  -3.355  0.00  0.00    +0.128 C 
ATOM     17  O   UNL     1       2.550   0.759  -2.298  0.00  0.00    -0.274 OA
ENDBRANCH   1  13
BRANCH   8  18
ATOM     18  N   UNL     1       8.325   1.084   1.554  0.00  0.00    -0.197 N 
ATOM     19  H   UNL     1       8.661   1.691   2.299  0.00  0.00    +0.176 HD
BRANCH  18  20
ATOM     20  S   UNL     1       9.370   1.173   0.242  0.00  0.00    +0.164 S 
ATOM     21  O   UNL     1      10.708   1.079   0.774  0.00  0.00    -0.127 OA
ATOM     22  O   UNL     1       8.970   2.268  -0.609  0.00  0.00    -0.127 OA
BRANCH  20  23
ATOM     23  O   UNL     1       9.062  -0.170  -0.585  0.00  0.00    -0.238 OA
ATOM     24  H   UNL     1       8.506   0.086  -1.349  0.00  0.00    +0.246 HD
ENDBRANCH  20  23
ENDBRANCH  18  20
ENDBRANCH   8  18
BRANCH   3  25
ATOM     25  O   UNL     1       0.575  -1.671   1.587  0.00  0.00    -0.445 OA
BRANCH  25  26
ATOM     26  C   UNL     1      -0.266  -2.469   2.435  0.00  0.00    +0.269 C 
BRANCH  26  27
ATOM     27  C   UNL     1      -1.041  -1.568   3.363  0.00  0.00    -0.010 A 
ATOM     28  C   UNL     1      -0.483  -1.158   4.583  0.00  0.00    +0.007 A 
ATOM     29  C   UNL     1      -1.196  -0.320   5.442  0.00  0.00    +0.000 A 
ATOM     30  C   UNL     1      -2.471   0.120   5.089  0.00  0.00    +0.000 A 
ATOM     31  C   UNL     1      -3.033  -0.279   3.878  0.00  0.00    +0.000 A 
ATOM     32  C   UNL     1      -2.322  -1.117   3.017  0.00  0.00    +0.007 A 
ENDBRANCH  26  27
ENDBRANCH  25  26
ENDBRANCH   3  25
TORSDOF 7
