REMARK  Name = 
REMARK  12 active torsions:
REMARK  status: ('A' for Active; 'I' for Inactive)
REMARK    1  A    between atoms: C_2  and  C_3
REMARK    2  A    between atoms: C_2  and  N_4
REMARK    3  A    between atoms: C_2  and  C_28
REMARK    4  A    between atoms: C_5  and  C_7
REMARK    5  A    between atoms: C_7  and  C_9
REMARK    6  A    between atoms: C_7  and  N_17
REMARK    7  A    between atoms: C_9  and  C_10
REMARK    8  A    between atoms: C_13  and  O_14
REMARK    9  A    between atoms: C_18  and  O_20
REMARK   10  A    between atoms: O_20  and  C_21
REMARK   11  A    between atoms: C_21  and  C_22
REMARK   12  A    between atoms: C_28  and  C_29
REMARK                            x       y       z     vdW  Elec       q    Type
REMARK                         _______ _______ _______ _____ _____    ______ ____
ROOT
ATOM      1  C   UNL     1       2.826  -0.349  -4.084  0.00  0.00    +0.166 C 
ENDROOT
BRANCH   1   4
ATOM      2  N   UNL     1       2.060   1.981  -3.780  0.00  0.00    -0.304 N 
ATOM      3  H   UNL     1       2.231   1.803  -2.797  0.00  0.00    +0.149 HD
ATOM      4  C   UNL     1       2.040   0.871  -4.604  0.00  0.00    +0.234 C 
ATOM      5  O   UNL     1       1.446   0.852  -5.683  0.00  0.00    -0.274 OA
BRANCH   2   6
ATOM      6  C   UNL     1       1.238   3.150  -4.091  0.00  0.00    +0.136 C 
ATOM      7  C   UNL     1       1.650   3.839  -5.390  0.00  0.00    +0.036 C 
BRANCH   6   8
ATOM      8  C   UNL     1      -0.256   2.778  -3.978  0.00  0.00    +0.150 C 
ATOM      9  O   UNL     1      -0.632   1.692  -3.524  0.00  0.00    -0.296 OA
ATOM     10  C   UNL     1      -1.275   3.828  -4.329  0.00  0.00    +0.088 C 
ENDBRANCH   6   8
ENDBRANCH   2   6
ENDBRANCH   1   4
BRANCH   1  11
ATOM     11  N   UNL     1       2.537  -1.493  -4.936  0.00  0.00    -0.269 N 
ATOM     12  H   UNL     1       2.073  -1.338  -5.824  0.00  0.00    +0.153 HD
ATOM     13  C   UNL     1       2.924  -2.755  -4.636  0.00  0.00    +0.401 C 
ATOM     14  O   UNL     1       3.450  -3.085  -3.583  0.00  0.00    -0.226 OA
BRANCH  13  15
ATOM     15  O   UNL     1       2.674  -3.565  -5.685  0.00  0.00    -0.446 OA
BRANCH  15  16
ATOM     16  C   UNL     1       3.132  -4.913  -5.547  0.00  0.00    +0.269 C 
BRANCH  16  17
ATOM     17  C   UNL     1       1.939  -5.832  -5.500  0.00  0.00    -0.010 A 
ATOM     18  C   UNL     1       1.258  -6.038  -4.296  0.00  0.00    +0.007 A 
ATOM     19  C   UNL     1       0.142  -6.876  -4.251  0.00  0.00    +0.000 A 
ATOM     20  C   UNL     1      -0.302  -7.507  -5.410  0.00  0.00    +0.000 A 
ATOM     21  C   UNL     1       0.365  -7.300  -6.617  0.00  0.00    +0.000 A 
ATOM     22  C   UNL     1       1.480  -6.464  -6.664  0.00  0.00    +0.007 A 
ENDBRANCH  16  17
ENDBRANCH  15  16
ENDBRANCH  13  15
ENDBRANCH   1  11
BRANCH   1  23
ATOM     23  C   UNL     1       4.338  -0.051  -3.956  0.00  0.00    +0.067 C 
BRANCH  23  24
ATOM     24  C   UNL     1       5.151   0.230  -5.211  0.00  0.00    -0.045 A 
ATOM     25  C   UNL     1       6.548   0.345  -5.091  0.00  0.00    +0.007 A 
ATOM     26  C   UNL     1       7.342   0.606  -6.212  0.00  0.00    +0.045 A 
ATOM     27  C   UNL     1       6.750   0.758  -7.456  0.00  0.00    +0.117 A 
ATOM     28  C   UNL     1       5.378   0.655  -7.601  0.00  0.00    +0.045 A 
ATOM     29  C   UNL     1       4.589   0.390  -6.482  0.00  0.00    +0.007 A 
BRANCH  27  30
ATOM     30  O   UNL     1       7.551   1.004  -8.532  0.00  0.00    -0.507 OA
ATOM     31  H   UNL     1       6.991   1.034  -9.325  0.00  0.00    +0.292 HD
ENDBRANCH  27  30
ENDBRANCH  23  24
ENDBRANCH   1  23
TORSDOF 10
