REMARK  Name = 
REMARK  11 active torsions:
REMARK  status: ('A' for Active; 'I' for Inactive)
REMARK    1  A    between atoms: C_1  and  C_2
REMARK    2  A    between atoms: C_2  and  N_3
REMARK    3  A    between atoms: N_3  and  C_4
REMARK    4  A    between atoms: N_3  and  S_10
REMARK    5  A    between atoms: S_10  and  C_13
REMARK    6  A    between atoms: C_15  and  C_16
REMARK    7  A    between atoms: C_17  and  N_18
REMARK    8  A    between atoms: C_19  and  C_21
REMARK    9  A    between atoms: C_21  and  C_22
REMARK   10  A    between atoms: C_21  and  O_23
REMARK   11  A    between atoms: C_21  and  C_24
REMARK                            x       y       z     vdW  Elec       q    Type
REMARK                         _______ _______ _______ _____ _____    ______ ____
ROOT
ATOM      1  C   UNL     1       4.879   3.629   0.661  0.00  0.00    +0.109 A 
ATOM      2  C   UNL     1       6.242   3.935   0.770  0.00  0.00    +0.030 A 
ATOM      3  C   UNL     1       6.654   5.273   0.802  0.00  0.00    +0.025 A 
ATOM      4  C   UNL     1       5.708   6.299   0.731  0.00  0.00    +0.037 A 
ATOM      5  C   UNL     1       4.343   5.988   0.616  0.00  0.00    -0.027 A 
ATOM      6  C   UNL     1       3.304   7.032   0.325  0.00  0.00    +0.046 C 
ATOM      7  C   UNL     1       3.931   4.649   0.655  0.00  0.00    +0.034 A 
ENDROOT
BRANCH   4   8
ATOM      8  N   UNL     1       6.109   7.646   0.838  0.00  0.00    -0.283 N 
ATOM      9  H   UNL     1       5.450   8.287   1.275  0.00  0.00    +0.155 HD
ATOM     10  C   UNL     1       6.878   8.255  -0.149  0.00  0.00    +0.258 C 
ATOM     11  O   UNL     1       7.368   7.675  -1.115  0.00  0.00    -0.272 OA
BRANCH  10  12
ATOM     12  C   UNL     1       7.016   9.769   0.070  0.00  0.00    +0.234 C 
ATOM     13  C   UNL     1       7.169  10.505  -1.265  0.00  0.00    +0.061 C 
BRANCH  12  14
ATOM     14  C   UNL     1       8.260   9.969   0.965  0.00  0.00    +0.427 C 
ATOM     15  F   UNL     1       7.925  10.517   2.160  0.00  0.00    -0.167 F 
ATOM     16  F   UNL     1       9.160  10.810   0.396  0.00  0.00    -0.167 F 
ATOM     17  F   UNL     1       8.919   8.821   1.240  0.00  0.00    -0.167 F 
ENDBRANCH  12  14
BRANCH  12  18
ATOM     18  O   UNL     1       5.788  10.247   0.689  0.00  0.00    -0.373 OA
ATOM     19  H   UNL     1       5.134  10.407  -0.015  0.00  0.00    +0.211 HD
ENDBRANCH  12  18
ENDBRANCH  10  12
ENDBRANCH   4   8
BRANCH   1  20
ATOM     20  S   UNL     1       4.337   1.934   0.520  0.00  0.00    +0.075 S 
ATOM     21  O   UNL     1       5.311   1.133   1.243  0.00  0.00    -0.150 OA
ATOM     22  O   UNL     1       2.937   1.892   0.885  0.00  0.00    -0.150 OA
BRANCH  20  23
ATOM     23  N   UNL     1       4.504   1.592  -1.149  0.00  0.00    -0.203 N 
BRANCH  23  24
ATOM     24  C   UNL     1       3.475   2.026  -2.053  0.00  0.00    +0.051 A 
ATOM     25  C   UNL     1       2.546   1.068  -2.476  0.00  0.00    +0.025 A 
ATOM     26  C   UNL     1       1.729   1.319  -3.580  0.00  0.00    +0.002 A 
ATOM     27  C   UNL     1       1.825   2.536  -4.253  0.00  0.00    +0.000 A 
ATOM     28  C   UNL     1       2.699   3.521  -3.788  0.00  0.00    +0.002 A 
ATOM     29  C   UNL     1       3.518   3.273  -2.682  0.00  0.00    +0.025 A 
ENDBRANCH  23  24
BRANCH  23  31
ATOM     30  C   UNL     1       6.001   1.074  -3.121  0.00  0.00    +0.026 C 
ATOM     31  C   UNL     1       5.899   1.519  -1.667  0.00  0.00    +0.128 C 
ENDBRANCH  23  31
ENDBRANCH  20  23
ENDBRANCH   1  20
TORSDOF 8
