REMARK  Name = 
REMARK  8 active torsions:
REMARK  status: ('A' for Active; 'I' for Inactive)
REMARK    1  A    between atoms: C_2  and  N_3
REMARK    2  A    between atoms: C_2  and  C_4
REMARK    3  A    between atoms: C_2  and  C_13
REMARK    4  A    between atoms: C_13  and  C_15
REMARK    5  A    between atoms: C_13  and  C_20
REMARK    6  A    between atoms: N_17  and  C_18
REMARK    7  A    between atoms: N_17  and  C_19
REMARK    8  A    between atoms: C_23  and  C_26
REMARK                            x       y       z     vdW  Elec       q    Type
REMARK                         _______ _______ _______ _____ _____    ______ ____
ROOT
ATOM      1  C   UNL     1       2.634   0.123   1.396  0.00  0.00    +0.131 C 
ENDROOT
BRANCH   1   2
ATOM      2  C   UNL     1       4.180   0.084   1.436  0.00  0.00    -0.034 A 
ATOM      3  C   UNL     1       4.879  -0.468   2.525  0.00  0.00    +0.005 A 
ATOM      4  C   UNL     1       6.277  -0.508   2.556  0.00  0.00    +0.009 A 
ATOM      5  C   UNL     1       7.020   0.006   1.496  0.00  0.00    -0.016 A 
ATOM      6  C   UNL     1       6.357   0.610   0.433  0.00  0.00    +0.009 A 
ATOM      7  C   UNL     1       4.959   0.655   0.413  0.00  0.00    +0.005 A 
BRANCH   5   8
ATOM      8  C   UNL     1       8.469  -0.198   1.454  0.00  0.00    +0.000 A 
ATOM      9  C   UNL     1       9.053  -1.448   0.957  0.00  0.00    +0.013 A 
ATOM     10  C   UNL     1      10.379  -1.662   0.946  0.00  0.00    +0.049 A 
ATOM     11  C   UNL     1      11.254  -0.649   1.419  0.00  0.00    +0.156 A 
ATOM     12  N   UNL     1      10.683   0.544   1.876  0.00  0.00    -0.220 N 
ATOM     13  N   UNL     1      11.674   1.373   2.287  0.00  0.00    -0.154 NA
ATOM     14  C   UNL     1      12.767   0.639   2.063  0.00  0.00    +0.246 A 
ATOM     15  N   UNL     1      12.561  -0.600   1.537  0.00  0.00    -0.215 NA
ATOM     16  C   UNL     1       9.310   0.763   1.889  0.00  0.00    +0.123 A 
ENDBRANCH   5   8
ENDBRANCH   1   2
BRANCH   1  17
ATOM     17  C   UNL     1       1.982  -0.963   2.295  0.00  0.00    +0.224 C 
ATOM     18  N   UNL     1       1.817  -0.733   3.659  0.00  0.00    -0.307 N 
ATOM     19  C   UNL     1       1.233  -1.786   4.482  0.00  0.00    +0.131 C 
ATOM     20  C   UNL     1       2.117   0.509   4.359  0.00  0.00    +0.131 C 
ATOM     21  O   UNL     1       1.656  -2.053   1.805  0.00  0.00    -0.275 OA
ENDBRANCH   1  17
BRANCH   1  22
ATOM     22  C   UNL     1       1.976  -0.025  -0.039  0.00  0.00    +0.154 C 
BRANCH  22  23
ATOM     23  C   UNL     1       2.114   1.292  -0.864  0.00  0.00    +0.234 C 
ATOM     24  N   UNL     1       2.070   1.320  -2.245  0.00  0.00    -0.297 N 
ATOM     25  C   UNL     1       2.260   2.593  -2.936  0.00  0.00    +0.144 C 
ATOM     26  C   UNL     1       2.217   2.286  -4.428  0.00  0.00    +0.185 C 
ATOM     27  F   UNL     1       3.271   2.853  -5.067  0.00  0.00    -0.244 F 
ATOM     28  C   UNL     1       2.331   0.776  -4.518  0.00  0.00    +0.057 C 
ATOM     29  C   UNL     1       1.742   0.283  -3.208  0.00  0.00    +0.111 C 
ATOM     30  O   UNL     1       2.228   2.367  -0.257  0.00  0.00    -0.274 OA
ENDBRANCH  22  23
BRANCH  22  31
ATOM     31  N   UNL     1       2.427  -1.248  -0.750  0.00  0.00    -0.319 NA
ATOM     32  H   UNL     1       2.535  -1.980  -0.033  0.00  0.00    +0.119 HD
ATOM     33  H   UNL     1       1.637  -1.600  -1.289  0.00  0.00    +0.119 HD
ENDBRANCH  22  31
ENDBRANCH   1  22
TORSDOF 6
