REMARK  Name = 
REMARK  6 active torsions:
REMARK  status: ('A' for Active; 'I' for Inactive)
REMARK    1  A    between atoms: O_1  and  C_2
REMARK    2  A    between atoms: C_7  and  C_8
REMARK    3  A    between atoms: C_8  and  C_9
REMARK    4  A    between atoms: C_11  and  O_12
REMARK    5  A    between atoms: O_12  and  C_13
REMARK    6  A    between atoms: C_16  and  C_19
REMARK                            x       y       z     vdW  Elec       q    Type
REMARK                         _______ _______ _______ _____ _____    ______ ____
ROOT
ATOM      1  C   UNL     1       5.732  -1.081   4.868  0.00  0.00    -0.044 A 
ATOM      2  C   UNL     1       6.897  -1.687   5.352  0.00  0.00    +0.004 A 
ATOM      3  C   UNL     1       7.872  -0.925   5.999  0.00  0.00    +0.004 A 
ATOM      4  C   UNL     1       7.701   0.453   6.146  0.00  0.00    +0.046 A 
ATOM      5  C   UNL     1       6.550   1.074   5.659  0.00  0.00    +0.131 A 
ATOM      6  C   UNL     1       5.554   0.298   5.060  0.00  0.00    +0.050 A 
ENDROOT
BRANCH   1   7
ATOM      7  C   UNL     1       4.697  -1.871   4.104  0.00  0.00    +0.039 C 
BRANCH   7  12
ATOM      8  C   UNL     1      -0.187  -2.580   5.168  0.00  0.00    +0.400 C 
ATOM      9  N   UNL     1       1.142  -2.313   4.911  0.00  0.00    -0.268 N 
ATOM     10  C   UNL     1       1.744  -2.907   3.716  0.00  0.00    +0.111 C 
ATOM     11  C   UNL     1       2.979  -3.744   4.046  0.00  0.00    +0.023 C 
ATOM     12  C   UNL     1       3.996  -2.980   4.916  0.00  0.00    -0.004 C 
ATOM     13  C   UNL     1       3.267  -2.450   6.161  0.00  0.00    +0.023 C 
ATOM     14  C   UNL     1       2.054  -1.593   5.802  0.00  0.00    +0.111 C 
ATOM     15  O   UNL     1      -0.850  -3.443   4.612  0.00  0.00    -0.226 OA
BRANCH   8  16
ATOM     16  O   UNL     1      -0.751  -1.756   6.074  0.00  0.00    -0.466 OA
ATOM     17  H   UNL     1      -0.228  -0.947   6.169  0.00  0.00    +0.297 HD
ENDBRANCH   8  16
ENDBRANCH   7  12
ENDBRANCH   1   7
BRANCH   5  18
ATOM     18  O   UNL     1       6.449   2.428   5.886  0.00  0.00    -0.438 OA
BRANCH  18  19
ATOM     19  C   UNL     1       5.751   3.225   4.986  0.00  0.00    +0.220 A 
ATOM     20  C   UNL     1       5.255   4.419   5.486  0.00  0.00    +0.068 A 
ATOM     21  C   UNL     1       4.552   5.258   4.623  0.00  0.00    +0.019 A 
ATOM     22  C   UNL     1       4.374   4.888   3.285  0.00  0.00    +0.073 A 
ATOM     23  C   UNL     1       4.930   3.685   2.876  0.00  0.00    +0.127 A 
ATOM     24  N   UNL     1       5.620   2.855   3.691  0.00  0.00    -0.220 NA
BRANCH  22  25
ATOM     25  C   UNL     1       3.613   5.749   2.324  0.00  0.00    +0.419 C 
ATOM     26  F   UNL     1       4.156   6.990   2.195  0.00  0.00    -0.166 F 
ATOM     27  F   UNL     1       2.323   5.944   2.714  0.00  0.00    -0.166 F 
ATOM     28  F   UNL     1       3.547   5.236   1.065  0.00  0.00    -0.166 F 
ENDBRANCH  22  25
ENDBRANCH  18  19
ENDBRANCH   5  18
TORSDOF 6
