REMARK  Name = 
REMARK  5 active torsions:
REMARK  status: ('A' for Active; 'I' for Inactive)
REMARK    1  A    between atoms: N_1  and  C_2
REMARK    2  A    between atoms: C_2  and  C_3
REMARK    3  A    between atoms: C_3  and  C_4
REMARK    4  A    between atoms: C_4  and  C_5
REMARK    5  A    between atoms: N_14  and  C_17
REMARK                            x       y       z     vdW  Elec       q    Type
REMARK                         _______ _______ _______ _____ _____    ______ ____
ROOT
ATOM      1  C   UNL     1       2.892  -0.147  -1.459  0.00  0.00    -0.010 C 
ATOM      2  C   UNL     1       1.835   0.436  -2.435  0.00  0.00    +0.027 C 
ATOM      3  C   UNL     1       0.477  -0.277  -2.400  0.00  0.00    +0.107 C 
ATOM      4  N   UNL     1       0.626  -1.725  -2.512  0.00  0.00    -0.315 N 
ATOM      5  C   UNL     1       1.604  -2.374  -1.644  0.00  0.00    +0.107 C 
ATOM      6  C   UNL     1       2.964  -1.678  -1.724  0.00  0.00    +0.027 C 
ENDROOT
BRANCH   4   7
ATOM      7  C   UNL     1       0.220  -2.394  -3.661  0.00  0.00    +0.134 A 
ATOM      8  N   UNL     1       1.010  -3.388  -4.163  0.00  0.00    -0.220 NA
ATOM      9  C   UNL     1       0.615  -4.070  -5.256  0.00  0.00    +0.225 A 
ATOM     10  N   UNL     1      -0.512  -3.920  -5.968  0.00  0.00    -0.218 NA
ATOM     11  C   UNL     1      -1.284  -2.962  -5.438  0.00  0.00    +0.143 A 
ATOM     12  N   UNL     1      -2.512  -2.611  -5.933  0.00  0.00    -0.346 N 
ATOM     13  H   UNL     1      -2.933  -3.041  -6.744  0.00  0.00    +0.167 HD
ATOM     14  C   UNL     1      -3.069  -1.637  -5.146  0.00  0.00    +0.085 A 
ATOM     15  C   UNL     1      -2.172  -1.357  -4.137  0.00  0.00    +0.032 A 
ATOM     16  C   UNL     1      -1.014  -2.177  -4.326  0.00  0.00    +0.059 A 
ENDBRANCH   4   7
BRANCH   1  17
ATOM     17  C   UNL     1       2.489   0.081   0.033  0.00  0.00    +0.085 C 
BRANCH  17  18
ATOM     18  N   UNL     1       2.414   1.485   0.433  0.00  0.00    -0.329 NA
ATOM     19  H   UNL     1       1.648   1.952  -0.050  0.00  0.00    +0.118 HD
ATOM     20  H   UNL     1       2.191   1.541   1.428  0.00  0.00    +0.118 HD
ENDBRANCH  17  18
ENDBRANCH   1  17
BRANCH   1  21
ATOM     21  C   UNL     1       4.301   0.519  -1.676  0.00  0.00    +0.043 C 
BRANCH  21  22
ATOM     22  C   UNL     1       4.903   0.382  -3.059  0.00  0.00    -0.047 A 
ATOM     23  C   UNL     1       5.662  -0.747  -3.400  0.00  0.00    +0.005 A 
ATOM     24  C   UNL     1       6.077  -0.950  -4.717  0.00  0.00    +0.020 A 
ATOM     25  C   UNL     1       5.762  -0.008  -5.693  0.00  0.00    +0.041 A 
ATOM     26 CL   UNL     1       6.208  -0.293  -7.330  0.00  0.00    -0.084 Cl
ATOM     27  C   UNL     1       5.073   1.154  -5.356  0.00  0.00    +0.020 A 
ATOM     28  C   UNL     1       4.653   1.353  -4.040  0.00  0.00    +0.005 A 
ENDBRANCH  21  22
ENDBRANCH   1  21
TORSDOF 5
