REMARK  Name = 
REMARK  8 active torsions:
REMARK  status: ('A' for Active; 'I' for Inactive)
REMARK    1  A    between atoms: C_1  and  C_2
REMARK    2  A    between atoms: C_2  and  C_3
REMARK    3  A    between atoms: C_3  and  C_4
REMARK    4  A    between atoms: C_4  and  C_5
REMARK    5  A    between atoms: C_5  and  C_6
REMARK    6  A    between atoms: C_6  and  C_7
REMARK    7  A    between atoms: C_10  and  C_13
REMARK    8  A    between atoms: C_13  and  C_15
REMARK                            x       y       z     vdW  Elec       q    Type
REMARK                         _______ _______ _______ _____ _____    ______ ____
ROOT
ATOM      1  C   UNL     1       6.923   3.339  -2.838  0.00  0.00    -0.047 A 
ATOM      2  C   UNL     1       7.591   3.010  -4.024  0.00  0.00    +0.004 A 
ATOM      3  C   UNL     1       7.824   3.986  -4.999  0.00  0.00    +0.012 A 
ATOM      4  C   UNL     1       7.379   5.298  -4.799  0.00  0.00    +0.022 A 
ATOM      5  C   UNL     1       6.784   5.645  -3.583  0.00  0.00    +0.012 A 
ATOM      6  C   UNL     1       6.563   4.674  -2.607  0.00  0.00    +0.004 A 
ENDROOT
BRANCH   4   7
ATOM      7  C   UNL     1       7.483   6.357  -5.838  0.00  0.00    +0.186 C 
ATOM      8  O   UNL     1       7.554   7.537  -5.510  0.00  0.00    -0.287 OA
BRANCH   7   9
ATOM      9  C   UNL     1       7.410   5.941  -7.267  0.00  0.00    +0.044 C 
ATOM     10  C   UNL     1       7.420   6.868  -8.235  0.00  0.00    +0.012 C 
ENDBRANCH   7   9
ENDBRANCH   4   7
BRANCH   1  11
ATOM     11  C   UNL     1       6.508   2.268  -1.856  0.00  0.00    +0.035 C 
BRANCH  11  12
ATOM     12  C   UNL     1       4.980   2.147  -1.842  0.00  0.00    +0.005 C 
BRANCH  12  13
ATOM     13  C   UNL     1       4.472   1.063  -0.896  0.00  0.00    +0.000 C 
BRANCH  13  14
ATOM     14  C   UNL     1       2.941   1.037  -0.913  0.00  0.00    -0.000 C 
BRANCH  14  16
ATOM     15  C   UNL     1       0.858  -0.039  -0.013  0.00  0.00    +0.004 C 
ATOM     16  C   UNL     1       2.377  -0.029   0.022  0.00  0.00    -0.003 C 
ENDBRANCH  14  16
ENDBRANCH  13  14
ENDBRANCH  12  13
ENDBRANCH  11  12
ENDBRANCH   1  11
TORSDOF 7
