REMARK  Name = 
REMARK  10 active torsions:
REMARK  status: ('A' for Active; 'I' for Inactive)
REMARK    1  A    between atoms: CA_2  and  N_3
REMARK    2  A    between atoms: CA_2  and  C_16
REMARK    3  A    between atoms: CA_2  and  C_19
REMARK    4  A    between atoms: C_4  and  C_6
REMARK    5  A    between atoms: C_6  and  C_10
REMARK    6  A    between atoms: N_7  and  O_8
REMARK    7  A    between atoms: O_8  and  C_9
REMARK    8  A    between atoms: C_16  and  O_17
REMARK    9  A    between atoms: CA_25  and  C_27
REMARK   10  A    between atoms: C_27  and  O_28
REMARK                            x       y       z     vdW  Elec       q    Type
REMARK                         _______ _______ _______ _____ _____    ______ ____
ROOT
ATOM      1  CA  UNL     1       2.563   0.222   2.162  0.00  0.00    +0.217 C 
ENDROOT
BRANCH   1   2
ATOM      2  C   UNL     1       2.832   0.938   0.671  0.00  0.00    +0.194 C 
ATOM      3  N   UNL     1       3.438   2.270   0.746  0.00  0.00    -0.260 NA
ATOM      4  CA  UNL     1       2.990   3.281   0.057  0.00  0.00    +0.147 C 
ATOM      5  C   UNL     1       1.801   3.346  -0.856  0.00  0.00    -0.013 C 
ATOM      6  C   UNL     1       1.079   4.485  -0.897  0.00  0.00    +0.015 C 
ATOM      7  C   UNL     1       1.221   2.085  -1.465  0.00  0.00    +0.108 C 
ATOM      8  S   UNL     1       1.958   0.498  -0.920  0.00  0.00    -0.127 S 
BRANCH   4   9
ATOM      9  C   UNL     1       3.834   4.588   0.342  0.00  0.00    +0.355 C 
ATOM     10  OXT UNL     1       3.632   5.696  -0.111  0.00  0.00    -0.243 OA
BRANCH   9  11
ATOM     11  O   UNL     1       4.843   4.286   1.178  0.00  0.00    -0.476 OA
ATOM     12  H   UNL     1       4.736   3.335   1.419  0.00  0.00    +0.295 HD
ENDBRANCH   9  11
ENDBRANCH   4   9
ENDBRANCH   1   2
BRANCH   1  13
ATOM     13  N   UNL     1       2.023  -1.152   2.114  0.00  0.00    -0.295 N 
ATOM     14  H   UNL     1       2.653  -1.880   2.455  0.00  0.00    +0.150 HD
ATOM     15  C   UNL     1       0.805  -1.704   1.733  0.00  0.00    +0.268 C 
ATOM     16  O   UNL     1       0.748  -2.933   1.823  0.00  0.00    -0.268 OA
BRANCH  15  17
ATOM     17  C   UNL     1      -0.437  -0.934   1.245  0.00  0.00    +0.190 C 
ATOM     18  N   UNL     1      -0.601   0.348   1.131  0.00  0.00    -0.078 NA
BRANCH  17  19
ATOM     19  C   UNL     1      -1.702  -1.625   1.033  0.00  0.00    +0.107 A 
ATOM     20  N   UNL     1      -2.226  -2.434   2.037  0.00  0.00    -0.223 NA
ATOM     21  C   UNL     1      -3.534  -2.562   1.871  0.00  0.00    +0.156 A 
ATOM     22  N   UNL     1      -4.322  -3.152   2.771  0.00  0.00    -0.338 N 
ATOM     23  H   UNL     1      -3.883  -3.724   3.484  0.00  0.00    +0.144 HD
ATOM     24  H   UNL     1      -5.266  -3.402   2.515  0.00  0.00    +0.144 HD
ATOM     25  S   UNL     1      -4.168  -1.879   0.441  0.00  0.00    -0.060 S 
ATOM     26  C   UNL     1      -2.621  -1.274   0.048  0.00  0.00    +0.078 A 
ENDBRANCH  17  19
BRANCH  18  27
ATOM     27  O   UNL     1       0.149   1.053   2.039  0.00  0.00    -0.396 OA
ATOM     28  C   UNL     1       0.285   2.402   1.647  0.00  0.00    +0.313 C 
ENDBRANCH  18  27
ENDBRANCH  15  17
ENDBRANCH   1  13
BRANCH   1  29
ATOM     29  C   UNL     1       2.088   0.919   3.480  0.00  0.00    +0.328 C 
ATOM     30  OXT UNL     1       2.331   2.079   3.832  0.00  0.00    -0.249 OA
BRANCH  29  31
ATOM     31  O   UNL     1       1.318   0.138   4.318  0.00  0.00    -0.479 OA
ATOM     32  H   UNL     1       1.142  -0.749   3.951  0.00  0.00    +0.295 HD
ENDBRANCH  29  31
ENDBRANCH   1  29
TORSDOF 9
