REMARK  Name = 
REMARK  8 active torsions:
REMARK  status: ('A' for Active; 'I' for Inactive)
REMARK    1  A    between atoms: C_7  and  S_30
REMARK    2  A    between atoms: C_13  and  N_15
REMARK    3  A    between atoms: C_16  and  C_18
REMARK    4  A    between atoms: C_18  and  C_19
REMARK    5  A    between atoms: C_18  and  C_20
REMARK    6  A    between atoms: C_18  and  O_21
REMARK    7  A    between atoms: O_21  and  C_22
REMARK    8  A    between atoms: S_30  and  C_31
REMARK                            x       y       z     vdW  Elec       q    Type
REMARK                         _______ _______ _______ _____ _____    ______ ____
ROOT
ATOM      1  N   UNL     1       4.126   0.213   3.264  0.00  0.00    -0.309 N 
ATOM      2  H   UNL     1       3.153   0.138   3.536  0.00  0.00    +0.149 HD
ATOM      3  C   UNL     1       4.891  -0.016   4.379  0.00  0.00    +0.257 C 
ATOM      4  O   UNL     1       4.233  -0.228   5.411  0.00  0.00    -0.271 OA
ENDROOT
BRANCH   1   8
ATOM      5  C   UNL     1       1.725   0.066   0.644  0.00  0.00    -0.008 C 
ATOM      6  C   UNL     1       2.289   1.377   1.214  0.00  0.00    +0.009 C 
ATOM      7  C   UNL     1       3.814   1.385   1.077  0.00  0.00    +0.012 C 
ATOM      8  C   UNL     1       4.379   0.160   1.808  0.00  0.00    +0.079 C 
ATOM      9  C   UNL     1       3.857  -1.151   1.180  0.00  0.00    +0.012 C 
ATOM     10  C   UNL     1       4.243  -1.190  -0.330  0.00  0.00    +0.035 C 
ATOM     11  C   UNL     1       3.625   0.025  -1.064  0.00  0.00    +0.088 C 
ATOM     12  C   UNL     1       4.221   1.299  -0.423  0.00  0.00    +0.035 C 
ATOM     13  C   UNL     1       2.083   0.022  -0.840  0.00  0.00    +0.033 C 
ATOM     14  C   UNL     1       2.329  -1.185   1.307  0.00  0.00    +0.009 C 
BRANCH  11  15
ATOM     15  S   UNL     1       3.844  -0.037  -2.869  0.00  0.00    -0.028 S 
ATOM     16  O   UNL     1       3.369   1.223  -3.422  0.00  0.00    -0.174 OA
ATOM     17  O   UNL     1       3.269  -1.288  -3.332  0.00  0.00    -0.174 OA
ATOM     18  C   UNL     1       5.577  -0.127  -3.259  0.00  0.00    +0.194 C 
ENDBRANCH  11  15
ENDBRANCH   1   8
BRANCH   3  19
ATOM     19  C   UNL     1       6.451   0.122   4.431  0.00  0.00    +0.180 C 
ATOM     20  C   UNL     1       6.692   1.452   5.167  0.00  0.00    +0.065 C 
ATOM     21  C   UNL     1       7.034  -0.029   3.031  0.00  0.00    +0.065 C 
BRANCH  19  22
ATOM     22  O   UNL     1       6.916  -0.944   5.266  0.00  0.00    -0.476 OA
BRANCH  22  23
ATOM     23  C   UNL     1       8.221  -1.347   5.368  0.00  0.00    +0.140 A 
ATOM     24  C   UNL     1       8.271  -2.614   5.971  0.00  0.00    +0.050 A 
ATOM     25  C   UNL     1       9.480  -3.266   6.199  0.00  0.00    +0.042 A 
ATOM     26  C   UNL     1      10.662  -2.667   5.793  0.00  0.00    +0.125 A 
ATOM     27  F   UNL     1      11.825  -3.269   6.007  0.00  0.00    -0.205 F 
ATOM     28  C   UNL     1      10.644  -1.423   5.174  0.00  0.00    +0.062 A 
ATOM     29  C   UNL     1       9.442  -0.734   4.997  0.00  0.00    +0.085 A 
ATOM     30 CL   UNL     1       9.696   0.864   4.366  0.00  0.00    -0.080 Cl
ENDBRANCH  22  23
ENDBRANCH  19  22
ENDBRANCH   3  19
TORSDOF 5
