REMARK  Name = 
REMARK  8 active torsions:
REMARK  status: ('A' for Active; 'I' for Inactive)
REMARK    1  A    between atoms: C_1  and  C_2
REMARK    2  A    between atoms: C_2  and  C_3
REMARK    3  A    between atoms: C_2  and  O_4
REMARK    4  A    between atoms: O_4  and  C_5
REMARK    5  A    between atoms: C_5  and  C_7
REMARK    6  A    between atoms: C_12  and  N_13
REMARK    7  A    between atoms: C_14  and  C_16
REMARK    8  A    between atoms: C_17  and  C_18
REMARK                            x       y       z     vdW  Elec       q    Type
REMARK                         _______ _______ _______ _____ _____    ______ ____
ROOT
ATOM      1  C   UNL     1       4.827  -2.771   0.634  0.00  0.00    +0.079 A 
ATOM      2  C   UNL     1       3.958  -3.851   0.371  0.00  0.00    +0.039 A 
ATOM      3  C   UNL     1       4.376  -5.185   0.553  0.00  0.00    +0.035 A 
ATOM      4  C   UNL     1       5.672  -5.411   1.009  0.00  0.00    +0.025 A 
ATOM      5  C   UNL     1       6.537  -4.344   1.290  0.00  0.00    +0.022 A 
ATOM      6  C   UNL     1       6.123  -3.026   1.107  0.00  0.00    +0.055 A 
ATOM      7 CL   UNL     1       7.255  -1.793   1.526  0.00  0.00    -0.083 Cl
ENDROOT
BRANCH   3   8
ATOM      8  N   UNL     1       3.478  -6.228   0.241  0.00  0.00    -0.281 N 
ATOM      9  H   UNL     1       2.594  -5.967  -0.191  0.00  0.00    +0.155 HD
ATOM     10  C   UNL     1       3.676  -7.594   0.387  0.00  0.00    +0.258 C 
ATOM     11  O   UNL     1       4.667  -8.109   0.896  0.00  0.00    -0.269 OA
BRANCH  10  12
ATOM     12  C   UNL     1       2.525  -8.457  -0.127  0.00  0.00    +0.107 C 
ATOM     13  S   UNL     1       1.666  -7.797  -1.490  0.00  0.00    -0.114 S 
ATOM     14  C   UNL     1       0.194  -8.826  -1.532  0.00  0.00    +0.115 C 
ATOM     15  C   UNL     1       0.418 -10.268  -1.105  0.00  0.00    +0.239 C 
ATOM     16  O   UNL     1       1.198 -10.489   0.057  0.00  0.00    -0.494 OA
ATOM     17  C   UNL     1       2.252  -9.674   0.402  0.00  0.00    +0.113 C 
ATOM     18  C   UNL     1       3.058 -10.335   1.498  0.00  0.00    +0.087 C 
ENDBRANCH  10  12
ENDBRANCH   3   8
BRANCH   1  19
ATOM     19  C   UNL     1       4.401  -1.387   0.311  0.00  0.00    +0.341 C 
ATOM     20  O   UNL     1       5.137  -0.543  -0.170  0.00  0.00    -0.245 OA
BRANCH  19  21
ATOM     21  O   UNL     1       3.078  -1.218   0.578  0.00  0.00    -0.458 OA
BRANCH  21  23
ATOM     22  C   UNL     1       2.260   0.069  -1.310  0.00  0.00    +0.052 C 
ATOM     23  C   UNL     1       2.543   0.066   0.191  0.00  0.00    +0.171 C 
ATOM     24  C   UNL     1       1.255   0.296   0.972  0.00  0.00    +0.052 C 
ENDBRANCH  21  23
ENDBRANCH  19  21
ENDBRANCH   1  19
TORSDOF 5
