REMARK  Name = 
REMARK  8 active torsions:
REMARK  status: ('A' for Active; 'I' for Inactive)
REMARK    1  A    between atoms: C_1  and  O_2
REMARK    2  A    between atoms: O_2  and  C_3
REMARK    3  A    between atoms: C_3  and  C_4
REMARK    4  A    between atoms: C_4  and  C_5
REMARK    5  A    between atoms: C_4  and  N_8
REMARK    6  A    between atoms: C_5  and  O_6
REMARK    7  A    between atoms: O_6  and  C_7
REMARK    8  A    between atoms: C_20  and  N_21
REMARK                            x       y       z     vdW  Elec       q    Type
REMARK                         _______ _______ _______ _____ _____    ______ ____
ROOT
ATOM      1  N   UNL     1       4.809  -1.416   2.441  0.00  0.00    -0.339 N 
ATOM      2  C   UNL     1       4.637  -2.777   2.680  0.00  0.00    +0.050 A 
ATOM      3  C   UNL     1       4.135  -3.805   1.873  0.00  0.00    +0.028 A 
ATOM      4  C   UNL     1       4.112  -5.105   2.391  0.00  0.00    +0.030 A 
ATOM      5  C   UNL     1       4.510  -5.408   3.680  0.00  0.00    +0.079 A 
ATOM      6  C   UNL     1       4.988  -4.383   4.506  0.00  0.00    +0.049 A 
ATOM      7  C   UNL     1       5.343  -4.803   5.799  0.00  0.00    +0.130 A 
ATOM      8  N   UNL     1       5.217  -6.069   6.223  0.00  0.00    -0.199 NA
ATOM      9  C   UNL     1       4.732  -6.948   5.350  0.00  0.00    +0.215 A 
ATOM     10  N   UNL     1       4.594  -8.254   5.775  0.00  0.00    -0.327 N 
ATOM     11  H   UNL     1       5.219  -8.436   6.546  0.00  0.00    +0.145 HD
ATOM     12  H   UNL     1       4.626  -8.879   4.983  0.00  0.00    +0.145 HD
ATOM     13  N   UNL     1       4.404  -6.677   4.088  0.00  0.00    -0.215 NA
ATOM     14  C   UNL     1       5.069  -3.042   3.990  0.00  0.00    +0.012 A 
ATOM     15  C   UNL     1       5.496  -1.799   4.530  0.00  0.00    +0.028 A 
ATOM     16  C   UNL     1       5.364  -0.839   3.561  0.00  0.00    +0.087 A 
ENDROOT
BRANCH   7  17
ATOM     17  N   UNL     1       5.835  -3.928   6.773  0.00  0.00    -0.343 N 
ATOM     18  H   UNL     1       6.663  -3.448   6.440  0.00  0.00    +0.144 HD
ATOM     19  H   UNL     1       6.032  -4.486   7.600  0.00  0.00    +0.144 HD
ENDBRANCH   7  17
BRANCH   1  20
ATOM     20  C   UNL     1       4.356  -0.675   1.249  0.00  0.00    +0.138 C 
BRANCH  20  21
ATOM     21  C   UNL     1       4.493   0.855   1.410  0.00  0.00    +0.186 C 
BRANCH  21  23
ATOM     22  C   UNL     1       4.083   2.968   0.472  0.00  0.00    +0.194 C 
ATOM     23  O   UNL     1       3.921   1.561   0.303  0.00  0.00    -0.381 OA
ENDBRANCH  21  23
ENDBRANCH  20  21
BRANCH  20  24
ATOM     24  C   UNL     1       5.026  -1.134  -0.059  0.00  0.00    +0.186 C 
BRANCH  24  25
ATOM     25  O   UNL     1       6.437  -0.908  -0.043  0.00  0.00    -0.381 OA
ATOM     26  C   UNL     1       7.040  -1.374  -1.245  0.00  0.00    +0.194 C 
ENDBRANCH  24  25
ENDBRANCH  20  24
ENDBRANCH   1  20
TORSDOF 6
