REMARK  Name = 
REMARK  6 active torsions:
REMARK  status: ('A' for Active; 'I' for Inactive)
REMARK    1  A    between atoms: C_2  and  C_3
REMARK    2  A    between atoms: C_2  and  C_5
REMARK    3  A    between atoms: C_2  and  C_14
REMARK    4  A    between atoms: N_17  and  C_18
REMARK    5  A    between atoms: C_18  and  C_19
REMARK    6  A    between atoms: C_19  and  C_20
REMARK                            x       y       z     vdW  Elec       q    Type
REMARK                         _______ _______ _______ _____ _____    ______ ____
ROOT
ATOM      1  C   UNL     1       2.476   1.525   0.398  0.00  0.00    +0.070 A 
ATOM      2  C   UNL     1       1.801   2.610  -0.135  0.00  0.00    +0.045 A 
ATOM      3  C   UNL     1       2.252   3.847   0.239  0.00  0.00    +0.116 A 
ATOM      4  N   UNL     1       3.265   4.031   1.099  0.00  0.00    -0.223 NA
ATOM      5  C   UNL     1       3.872   2.940   1.581  0.00  0.00    +0.215 A 
ATOM      6  N   UNL     1       4.896   3.079   2.514  0.00  0.00    -0.313 N 
ATOM      7  H   UNL     1       5.756   2.893   2.009  0.00  0.00    +0.149 HD
ATOM      8  N   UNL     1       3.536   1.689   1.231  0.00  0.00    -0.218 NA
ENDROOT
BRANCH   1   9
ATOM      9  C   UNL     1       2.052   0.096   0.076  0.00  0.00    +0.195 C 
BRANCH   9  10
ATOM     10  C   UNL     1       2.184  -0.199  -1.400  0.00  0.00    +0.102 A 
ATOM     11  S   UNL     1       3.293  -1.393  -1.953  0.00  0.00    -0.070 S 
ATOM     12  C   UNL     1       2.928  -0.985  -3.586  0.00  0.00    +0.039 A 
ATOM     13  C   UNL     1       3.471  -1.501  -4.774  0.00  0.00    +0.017 A 
ATOM     14  C   UNL     1       3.016  -0.982  -5.991  0.00  0.00    +0.001 A 
ATOM     15  C   UNL     1       2.040   0.009  -6.024  0.00  0.00    +0.002 A 
ATOM     16  C   UNL     1       1.497   0.508  -4.836  0.00  0.00    +0.029 A 
ATOM     17  C   UNL     1       1.951   0.010  -3.598  0.00  0.00    +0.079 A 
ATOM     18  N   UNL     1       1.524   0.433  -2.351  0.00  0.00    -0.242 NA
ENDBRANCH   9  10
BRANCH   9  19
ATOM     19  C   UNL     1       0.668  -0.175   0.515  0.00  0.00    +0.079 C 
ATOM     20  N   UNL     1      -0.417  -0.392   0.877  0.00  0.00    -0.195 NA
ENDBRANCH   9  19
ENDBRANCH   1   9
BRANCH   6  21
ATOM     21  C   UNL     1       4.915   4.362   3.220  0.00  0.00    +0.109 C 
BRANCH  21  22
ATOM     22  C   UNL     1       3.753   4.427   4.225  0.00  0.00    +0.055 C 
BRANCH  22  23
ATOM     23  C   UNL     1       3.730   5.683   5.047  0.00  0.00    -0.028 A 
ATOM     24  C   UNL     1       3.026   6.806   4.623  0.00  0.00    +0.114 A 
ATOM     25  N   UNL     1       2.924   7.950   5.338  0.00  0.00    -0.263 NA
ATOM     26  C   UNL     1       3.551   7.975   6.533  0.00  0.00    +0.111 A 
ATOM     27  C   UNL     1       4.290   6.918   7.038  0.00  0.00    +0.020 A 
ATOM     28  C   UNL     1       4.384   5.757   6.278  0.00  0.00    +0.006 A 
ENDBRANCH  22  23
ENDBRANCH  21  22
ENDBRANCH   6  21
TORSDOF 6
