REMARK  Name = 
REMARK  6 active torsions:
REMARK  status: ('A' for Active; 'I' for Inactive)
REMARK    1  A    between atoms: C_1  and  O_2
REMARK    2  A    between atoms: O_2  and  C_3
REMARK    3  A    between atoms: C_3  and  C_5
REMARK    4  A    between atoms: C_7  and  O_8
REMARK    5  A    between atoms: O_8  and  C_9
REMARK    6  A    between atoms: C_10  and  O_11
REMARK                            x       y       z     vdW  Elec       q    Type
REMARK                         _______ _______ _______ _____ _____    ______ ____
ROOT
ATOM      1  C   UNL     1       4.668   1.118   0.338  0.00  0.00    +0.063 A 
ATOM      2  C   UNL     1       5.398   1.833   1.301  0.00  0.00    +0.019 A 
ATOM      3  C   UNL     1       6.786   1.716   1.357  0.00  0.00    +0.050 A 
ATOM      4  C   UNL     1       7.433   0.884   0.452  0.00  0.00    +0.158 A 
ATOM      5  C   UNL     1       6.729   0.169  -0.524  0.00  0.00    +0.162 A 
ATOM      6  C   UNL     1       5.340   0.294  -0.582  0.00  0.00    +0.064 A 
ENDROOT
BRANCH   1   7
ATOM      7  C   UNL     1       3.184   1.250   0.345  0.00  0.00    +0.339 C 
ATOM      8  O   UNL     1       2.574   2.002   1.087  0.00  0.00    -0.245 OA
BRANCH   7  10
ATOM      9  C   UNL     1       1.202   0.413  -0.567  0.00  0.00    +0.280 C 
ATOM     10  O   UNL     1       2.629   0.401  -0.557  0.00  0.00    -0.464 OA
ENDBRANCH   7  10
ENDBRANCH   1   7
BRANCH   4  11
ATOM     11  O   UNL     1       8.794   0.771   0.539  0.00  0.00    -0.503 OA
ATOM     12  H   UNL     1       9.043   0.138  -0.162  0.00  0.00    +0.292 HD
ENDBRANCH   4  11
BRANCH   5  13
ATOM     13  O   UNL     1       7.504  -0.611  -1.344  0.00  0.00    -0.491 OA
ATOM     14  C   UNL     1       6.824  -1.352  -2.351  0.00  0.00    +0.277 C 
ENDBRANCH   5  13
TORSDOF 4
