REMARK  Name = 
REMARK  10 active torsions:
REMARK  status: ('A' for Active; 'I' for Inactive)
REMARK    1  A    between atoms: C_2  and  O_3
REMARK    2  A    between atoms: C_2  and  C_4
REMARK    3  A    between atoms: C_2  and  C_6
REMARK    4  A    between atoms: C_4  and  O_5
REMARK    5  A    between atoms: C_6  and  O_7
REMARK    6  A    between atoms: O_7  and  C_8
REMARK    7  A    between atoms: C_10  and  C_14
REMARK    8  A    between atoms: C_14  and  C_16
REMARK    9  A    between atoms: C_17  and  N_18
REMARK   10  A    between atoms: N_19  and  C_22
REMARK                            x       y       z     vdW  Elec       q    Type
REMARK                         _______ _______ _______ _____ _____    ______ ____
ROOT
ATOM      1  C   UNL     1       6.790  -2.445  -4.718  0.00  0.00    +0.198 C 
ATOM      2  O   UNL     1       7.604  -1.532  -4.626  0.00  0.00    -0.286 OA
ENDROOT
BRANCH   1   7
ATOM      3  C   UNL     1       4.807  -2.392  -1.483  0.00  0.00    +0.121 A 
ATOM      4  C   UNL     1       4.486  -3.749  -1.353  0.00  0.00    +0.046 A 
ATOM      5  C   UNL     1       4.975  -4.686  -2.258  0.00  0.00    +0.004 A 
ATOM      6  C   UNL     1       5.771  -4.269  -3.316  0.00  0.00    +0.012 A 
ATOM      7  C   UNL     1       6.057  -2.906  -3.496  0.00  0.00    +0.026 A 
ATOM      8  C   UNL     1       5.622  -1.976  -2.543  0.00  0.00    +0.057 A 
BRANCH   3   9
ATOM      9  O   UNL     1       4.354  -1.403  -0.644  0.00  0.00    -0.489 OA
BRANCH   9  10
ATOM     10  C   UNL     1       3.318  -1.807   0.256  0.00  0.00    +0.262 C 
BRANCH  10  11
ATOM     11  C   UNL     1       2.751  -0.623   1.035  0.00  0.00    +0.177 C 
BRANCH  11  12
ATOM     12  O   UNL     1       1.704  -1.110   1.889  0.00  0.00    -0.386 OA
ATOM     13  H   UNL     1       2.066  -1.190   2.790  0.00  0.00    +0.210 HD
ENDBRANCH  11  12
BRANCH  11  14
ATOM     14  C   UNL     1       3.831   0.095   1.853  0.00  0.00    +0.190 C 
BRANCH  14  15
ATOM     15  O   UNL     1       3.250   1.132   2.643  0.00  0.00    -0.392 OA
ATOM     16  H   UNL     1       2.732   1.701   2.046  0.00  0.00    +0.210 HD
ENDBRANCH  14  15
ENDBRANCH  11  14
ENDBRANCH  10  11
ENDBRANCH   9  10
ENDBRANCH   3   9
ENDBRANCH   1   7
BRANCH   1  17
ATOM     17  C   UNL     1       6.526  -3.158  -5.963  0.00  0.00    +0.081 A 
ATOM     18  C   UNL     1       5.366  -3.865  -6.340  0.00  0.00    +0.148 A 
ATOM     19  N   UNL     1       5.537  -4.603  -7.429  0.00  0.00    -0.172 NA
ATOM     20  N   UNL     1       6.772  -4.271  -7.884  0.00  0.00    -0.218 N 
ATOM     21  C   UNL     1       7.396  -3.350  -7.024  0.00  0.00    +0.131 A 
BRANCH  20  22
ATOM     22  C   UNL     1       7.255  -4.887  -9.074  0.00  0.00    +0.068 A 
ATOM     23  C   UNL     1       8.218  -4.271  -9.884  0.00  0.00    +0.030 A 
ATOM     24  C   UNL     1       8.666  -4.913 -11.042  0.00  0.00    +0.040 A 
ATOM     25  C   UNL     1       8.164  -6.166 -11.380  0.00  0.00    +0.124 A 
ATOM     26  F   UNL     1       8.606  -6.777 -12.486  0.00  0.00    -0.205 F 
ATOM     27  C   UNL     1       7.204  -6.787 -10.592  0.00  0.00    +0.040 A 
ATOM     28  C   UNL     1       6.735  -6.142  -9.447  0.00  0.00    +0.030 A 
ENDBRANCH  20  22
BRANCH  21  29
ATOM     29  N   UNL     1       8.653  -2.854  -7.183  0.00  0.00    -0.342 N 
ATOM     30  H   UNL     1       9.388  -3.444  -7.566  0.00  0.00    +0.144 HD
ATOM     31  H   UNL     1       9.011  -2.230  -6.453  0.00  0.00    +0.144 HD
ENDBRANCH  21  29
ENDBRANCH   1  17
TORSDOF 10
