REMARK  Name = 
REMARK  6 active torsions:
REMARK  status: ('A' for Active; 'I' for Inactive)
REMARK    1  A    between atoms: C_2  and  O_3
REMARK    2  A    between atoms: C_2  and  C_7
REMARK    3  A    between atoms: C_2  and  C_23
REMARK    4  A    between atoms: O_3  and  C_4
REMARK    5  A    between atoms: C_4  and  C_5
REMARK    6  A    between atoms: N_9  and  C_10
REMARK                            x       y       z     vdW  Elec       q    Type
REMARK                         _______ _______ _______ _____ _____    ______ ____
ROOT
ATOM      1  C   UNL     1       2.957  -1.295  -0.198  0.00  0.00    +0.263 C 
ATOM      2  N   UNL     1       2.433  -2.360   0.527  0.00  0.00    -0.282 N 
ATOM      3  H   UNL     1       1.551  -2.186   1.014  0.00  0.00    +0.155 HD
ATOM      4  O   UNL     1       3.940  -1.360  -0.937  0.00  0.00    -0.271 OA
ENDROOT
BRANCH   2   5
ATOM      5  C   UNL     1       2.837  -3.715   0.441  0.00  0.00    +0.045 A 
ATOM      6  C   UNL     1       1.969  -4.751   0.854  0.00  0.00    +0.060 A 
ATOM      7  C   UNL     1       0.615  -4.469   1.372  0.00  0.00    +0.250 C 
ATOM      8  C   UNL     1      -0.341  -5.645   1.542  0.00  0.00    +0.291 C 
ATOM      9  N   UNL     1       0.262  -6.859   1.714  0.00  0.00    -0.246 N 
ATOM     10  H   UNL     1      -0.373  -7.639   1.829  0.00  0.00    +0.158 HD
ATOM     11  C   UNL     1       1.465  -7.196   1.158  0.00  0.00    +0.251 C 
ATOM     12  O   UNL     1       1.773  -8.371   0.982  0.00  0.00    -0.270 OA
ATOM     13  O   UNL     1      -1.550  -5.495   1.471  0.00  0.00    -0.266 OA
ATOM     14  O   UNL     1       0.261  -3.336   1.669  0.00  0.00    -0.282 OA
ATOM     15  C   UNL     1       2.355  -6.091   0.731  0.00  0.00    +0.050 A 
ATOM     16  C   UNL     1       3.603  -6.416   0.190  0.00  0.00    +0.014 A 
ATOM     17  C   UNL     1       4.472  -5.405  -0.202  0.00  0.00    +0.003 A 
ATOM     18  C   UNL     1       4.094  -4.068  -0.068  0.00  0.00    +0.024 A 
ENDBRANCH   2   5
BRANCH   1  19
ATOM     19  C   UNL     1       2.179   0.043  -0.037  0.00  0.00    +0.292 C 
BRANCH  19  20
ATOM     20  C   UNL     1       2.947   1.054   0.822  0.00  0.00    +0.002 A 
ATOM     21  C   UNL     1       4.263   1.422   0.475  0.00  0.00    +0.008 A 
ATOM     22  C   UNL     1       4.954   2.405   1.190  0.00  0.00    +0.000 A 
ATOM     23  C   UNL     1       4.339   3.051   2.258  0.00  0.00    +0.000 A 
ATOM     24  C   UNL     1       3.042   2.698   2.622  0.00  0.00    +0.000 A 
ATOM     25  C   UNL     1       2.353   1.707   1.914  0.00  0.00    +0.008 A 
ENDBRANCH  19  20
BRANCH  19  26
ATOM     26  O   UNL     1       0.838  -0.141   0.456  0.00  0.00    -0.447 OA
BRANCH  26  27
ATOM     27  C   UNL     1      -0.016  -0.749  -0.415  0.00  0.00    +0.305 C 
ATOM     28  O   UNL     1       0.301  -1.195  -1.508  0.00  0.00    -0.251 OA
ATOM     29  C   UNL     1      -1.385  -0.880   0.178  0.00  0.00    +0.136 C 
ENDBRANCH  26  27
ENDBRANCH  19  26
ENDBRANCH   1  19
TORSDOF 5
