REMARK  Name = 
REMARK  2 active torsions:
REMARK  status: ('A' for Active; 'I' for Inactive)
REMARK    1  A    between atoms: O_1  and  C_2
REMARK    2  A    between atoms: C_4  and  O_5
REMARK                            x       y       z     vdW  Elec       q    Type
REMARK                         _______ _______ _______ _____ _____    ______ ____
ROOT
ATOM      1  C   UNL     1       2.961  -1.521   0.696  0.00  0.00    +0.139 A 
ATOM      2  C   UNL     1       2.686  -2.800   0.240  0.00  0.00    +0.087 A 
ATOM      3 CL   UNL     1       1.149  -3.162  -0.478  0.00  0.00    -0.079 Cl
ATOM      4  C   UNL     1       3.737  -3.726   0.120  0.00  0.00    -0.001 A 
ATOM      5  C   UNL     1       4.299  -3.666  -1.357  0.00  0.00    +0.112 C 
ATOM      6  C   UNL     1       3.733  -4.721  -2.250  0.00  0.00    +0.138 C 
ATOM      7  C   UNL     1       4.182  -6.122  -1.908  0.00  0.00    +0.074 C 
ATOM      8  C   UNL     1       3.007  -7.063  -1.668  0.00  0.00    +0.008 C 
ATOM      9  C   UNL     1       2.528  -6.977  -0.218  0.00  0.00    +0.004 C 
ATOM     10  C   UNL     1       1.652  -8.114   0.327  0.00  0.00    +0.027 C 
ATOM     11  C   UNL     1       2.586  -8.929   1.209  0.00  0.00    -0.031 C 
ATOM     12  C   UNL     1       3.567  -9.566   0.554  0.00  0.00    -0.028 C 
ATOM     13  C   UNL     1       5.032  -9.152   0.641  0.00  0.00    +0.068 C 
ATOM     14  C   UNL     1       5.759  -7.644   0.795  0.00  0.00    +0.236 C 
ATOM     15  O   UNL     1       5.094  -6.321   1.225  0.00  0.00    -0.461 OA
ATOM     16  C   UNL     1       5.747  -5.062   1.059  0.00  0.00    +0.343 C 
ATOM     17  O   UNL     1       6.922  -4.985   0.801  0.00  0.00    -0.245 OA
ATOM     18  O   UNL     1       3.003  -4.463  -3.188  0.00  0.00    -0.297 OA
ATOM     19  C   UNL     1       4.809  -3.741   1.033  0.00  0.00    +0.105 A 
ATOM     20  C   UNL     1       5.157  -2.386   1.338  0.00  0.00    +0.135 A 
ATOM     21  C   UNL     1       4.246  -1.282   1.178  0.00  0.00    +0.093 A 
ENDROOT
BRANCH   1  22
ATOM     22  O   UNL     1       2.052  -0.507   0.491  0.00  0.00    -0.505 OA
ATOM     23  H   UNL     1       2.382   0.375   0.771  0.00  0.00    +0.292 HD
ENDBRANCH   1  22
BRANCH  20  24
ATOM     24  O   UNL     1       6.435  -2.005   1.607  0.00  0.00    -0.506 OA
ATOM     25  H   UNL     1       6.601  -1.124   1.226  0.00  0.00    +0.292 HD
ENDBRANCH  20  24
TORSDOF 2
