REMARK  Name = 
REMARK  4 active torsions:
REMARK  status: ('A' for Active; 'I' for Inactive)
REMARK    1  A    between atoms: C_1  and  C_2
REMARK    2  A    between atoms: N_4  and  C_5
REMARK    3  A    between atoms: C_9  and  C_10
REMARK    4  A    between atoms: N_12  and  C_13
REMARK                            x       y       z     vdW  Elec       q    Type
REMARK                         _______ _______ _______ _____ _____    ______ ____
ROOT
ATOM      1  C   UNL     1       4.670   0.741   1.097  0.00  0.00    +0.084 A 
ATOM      2  C   UNL     1       5.509   1.546   0.269  0.00  0.00    +0.168 A 
ATOM      3  N   UNL     1       6.814   1.374   0.570  0.00  0.00    -0.167 NA
ATOM      4  N   UNL     1       6.798   0.400   1.498  0.00  0.00    -0.282 N 
ATOM      5  H   UNL     1       7.683   0.043   1.844  0.00  0.00    +0.188 HD
ATOM      6  C   UNL     1       5.548   0.009   1.858  0.00  0.00    +0.129 A 
ENDROOT
BRANCH   1   9
ATOM      7  C   UNL     1       1.078  -0.009   1.828  0.00  0.00    +0.109 C 
ATOM      8  C   UNL     1       2.558   0.046   2.108  0.00  0.00    +0.214 C 
ATOM      9  N   UNL     1       3.283   0.688   1.127  0.00  0.00    -0.283 N 
ATOM     10  H   UNL     1       2.803   1.234   0.416  0.00  0.00    +0.155 HD
ATOM     11  O   UNL     1       3.010  -0.466   3.127  0.00  0.00    -0.276 OA
ENDBRANCH   1   9
BRANCH   2  12
ATOM     12  C   UNL     1       5.082   2.495  -0.769  0.00  0.00    +0.270 C 
ATOM     13  N   UNL     1       6.076   3.396  -1.120  0.00  0.00    -0.280 N 
ATOM     14  H   UNL     1       6.859   3.432  -0.471  0.00  0.00    +0.155 HD
ATOM     15  O   UNL     1       3.929   2.505  -1.186  0.00  0.00    -0.268 OA
BRANCH  13  16
ATOM     16  C   UNL     1       5.878   4.454  -2.021  0.00  0.00    +0.034 A 
ATOM     17  C   UNL     1       5.153   4.271  -3.204  0.00  0.00    +0.026 A 
ATOM     18  C   UNL     1       4.893   5.354  -4.042  0.00  0.00    +0.040 A 
ATOM     19  C   UNL     1       5.342   6.618  -3.681  0.00  0.00    +0.124 A 
ATOM     20  F   UNL     1       5.036   7.670  -4.450  0.00  0.00    -0.205 F 
ATOM     21  C   UNL     1       6.098   6.806  -2.528  0.00  0.00    +0.040 A 
ATOM     22  C   UNL     1       6.399   5.714  -1.710  0.00  0.00    +0.026 A 
ENDBRANCH  13  16
ENDBRANCH   2  12
TORSDOF 3
