REMARK  Name = 
REMARK  5 active torsions:
REMARK  status: ('A' for Active; 'I' for Inactive)
REMARK    1  A    between atoms: C_2  and  C_3
REMARK    2  A    between atoms: N_13  and  C_14
REMARK    3  A    between atoms: C_14  and  C_15
REMARK    4  A    between atoms: C_16  and  C_17
REMARK    5  A    between atoms: C_16  and  C_18
REMARK                            x       y       z     vdW  Elec       q    Type
REMARK                         _______ _______ _______ _____ _____    ______ ____
ROOT
ATOM      1  C   UNL     1       2.161  -0.010  -0.063  0.00  0.00    +0.074 C 
ATOM      2  C   UNL     1       0.628  -0.025  -0.025  0.00  0.00    +0.026 C 
ATOM      3  N   UNL     1       2.611   1.355   0.313  0.00  0.00    -0.290 NA
ATOM      4  C   UNL     1       2.822   2.257  -0.844  0.00  0.00    +0.123 C 
ATOM      5  C   UNL     1       4.142   2.108  -1.555  0.00  0.00    +0.010 A 
ATOM      6  C   UNL     1       4.978   3.190  -1.883  0.00  0.00    +0.047 A 
ATOM      7  C   UNL     1       6.305   2.989  -2.336  0.00  0.00    +0.022 A 
ATOM      8  C   UNL     1       6.839   1.704  -2.473  0.00  0.00    +0.029 A 
ATOM      9  C   UNL     1       5.986   0.657  -2.212  0.00  0.00    +0.065 A 
ATOM     10  N   UNL     1       6.242  -0.710  -2.222  0.00  0.00    -0.334 N 
ATOM     11  H   UNL     1       7.127  -1.155  -2.409  0.00  0.00    +0.168 HD
ATOM     12  C   UNL     1       5.066  -1.393  -1.863  0.00  0.00    +0.159 A 
ATOM     13  S   UNL     1       4.968  -3.039  -1.722  0.00  0.00    -0.013 S 
ATOM     14  N   UNL     1       4.078  -0.417  -1.645  0.00  0.00    -0.318 N 
ATOM     15 CL   UNL     1       4.451   4.831  -1.729  0.00  0.00    -0.083 Cl
ATOM     16  C   UNL     1       4.663   0.852  -1.820  0.00  0.00    +0.073 A 
ATOM     17  C   UNL     1       2.654  -0.579  -1.414  0.00  0.00    +0.143 C 
ENDROOT
BRANCH   3  18
ATOM     18  C   UNL     1       3.741   1.275   1.258  0.00  0.00    +0.112 C 
BRANCH  18  19
ATOM     19  C   UNL     1       4.176   2.586   1.851  0.00  0.00    -0.013 C 
ATOM     20  C   UNL     1       5.439   3.000   2.085  0.00  0.00    -0.078 C 
ATOM     21  C   UNL     1       5.703   4.305   2.789  0.00  0.00    +0.038 C 
ATOM     22  C   UNL     1       6.690   2.236   1.739  0.00  0.00    +0.038 C 
ENDBRANCH  18  19
ENDBRANCH   3  18
TORSDOF 2
