REMARK  Name = 
REMARK  3 active torsions:
REMARK  status: ('A' for Active; 'I' for Inactive)
REMARK    1  A    between atoms: C_1  and  C_2
REMARK    2  A    between atoms: C_3  and  C_8
REMARK    3  A    between atoms: C_15  and  C_17
REMARK                            x       y       z     vdW  Elec       q    Type
REMARK                         _______ _______ _______ _____ _____    ______ ____
ROOT
ATOM      1  C   UNL     1       2.336   2.502  -0.385  0.00  0.00    +0.048 A 
ATOM      2  N   UNL     1       2.613   3.742   0.152  0.00  0.00    -0.354 N 
ATOM      3  H   UNL     1       3.304   3.913   0.866  0.00  0.00    +0.166 HD
ATOM      4  C   UNL     1       1.886   4.730  -0.473  0.00  0.00    +0.047 A 
ATOM      5  C   UNL     1       1.949   6.121  -0.346  0.00  0.00    +0.027 A 
ATOM      6  C   UNL     1       1.073   6.880  -1.130  0.00  0.00    +0.018 A 
ATOM      7  C   UNL     1       0.145   6.269  -1.981  0.00  0.00    +0.065 A 
ATOM      8  C   UNL     1       0.089   4.869  -2.074  0.00  0.00    +0.026 A 
ATOM      9  C   UNL     1       0.994   4.091  -1.328  0.00  0.00    +0.001 A 
ATOM     10  C   UNL     1       1.262   2.698  -1.241  0.00  0.00    +0.036 A 
ENDROOT
BRANCH   1  17
ATOM     11  C   UNL     1       5.377   2.359   0.170  0.00  0.00    +0.044 C 
ATOM     12  C   UNL     1       4.426   1.196   0.263  0.00  0.00    -0.041 A 
ATOM     13  C   UNL     1       4.988  -0.036   0.659  0.00  0.00    +0.004 A 
ATOM     14  C   UNL     1       4.219  -1.195   0.729  0.00  0.00    +0.000 A 
ATOM     15  C   UNL     1       2.870  -1.143   0.407  0.00  0.00    +0.001 A 
ATOM     16  C   UNL     1       2.289   0.075   0.048  0.00  0.00    +0.010 A 
ATOM     17  C   UNL     1       3.041   1.265  -0.011  0.00  0.00    +0.001 A 
ENDBRANCH   1  17
BRANCH   7  18
ATOM     18  C   UNL     1      -0.770   7.082  -2.834  0.00  0.00    +0.308 C 
ATOM     19  N   UNL     1      -1.161   8.277  -2.521  0.00  0.00    -0.099 NA
ATOM     20  H   UNL     1      -0.810   8.557  -1.602  0.00  0.00    +0.363 HD
ATOM     21  N   UNL     1      -1.222   6.588  -4.021  0.00  0.00    -0.247 N 
ATOM     22  H   UNL     1      -1.641   7.325  -4.581  0.00  0.00    +0.288 HD
ATOM     23  H   UNL     1      -0.564   6.025  -4.547  0.00  0.00    +0.288 HD
ENDBRANCH   7  18
TORSDOF 2
