REMARK  Name = 
REMARK  6 active torsions:
REMARK  status: ('A' for Active; 'I' for Inactive)
REMARK    1  A    between atoms: C_1  and  O_2
REMARK    2  A    between atoms: O_2  and  C_3
REMARK    3  A    between atoms: C_3  and  O_4
REMARK    4  A    between atoms: N_5  and  C_6
REMARK    5  A    between atoms: C_12  and  C_15
REMARK    6  A    between atoms: C_15  and  C_17
REMARK                            x       y       z     vdW  Elec       q    Type
REMARK                         _______ _______ _______ _____ _____    ______ ____
ROOT
ATOM      1  C   UNL     1       5.151  -1.990   1.713  0.00  0.00    +0.235 A 
ATOM      2  N   UNL     1       6.042  -1.703   2.724  0.00  0.00    -0.322 N 
ATOM      3  H   UNL     1       6.308  -0.767   2.995  0.00  0.00    +0.169 HD
ATOM      4  C   UNL     1       6.470  -2.880   3.288  0.00  0.00    +0.068 A 
ATOM      5  C   UNL     1       7.322  -3.180   4.357  0.00  0.00    +0.039 A 
ATOM      6  C   UNL     1       7.507  -4.545   4.655  0.00  0.00    +0.024 A 
ATOM      7  C   UNL     1       6.913  -5.543   3.869  0.00  0.00    +0.014 A 
ATOM      8  C   UNL     1       6.062  -5.207   2.810  0.00  0.00    +0.030 A 
ATOM      9  C   UNL     1       5.841  -3.855   2.526  0.00  0.00    +0.091 A 
ATOM     10  N   UNL     1       5.062  -3.294   1.555  0.00  0.00    -0.211 NA
ENDROOT
BRANCH   1  12
ATOM     11  C   UNL     1       3.386  -1.191   0.580  0.00  0.00    +0.391 C 
ATOM     12  N   UNL     1       4.583  -0.979   1.018  0.00  0.00    -0.142 NA
BRANCH  11  14
ATOM     13  C   UNL     1       3.368   0.834  -0.636  0.00  0.00    +0.282 C 
ATOM     14  O   UNL     1       2.683  -0.344  -0.204  0.00  0.00    -0.453 OA
ENDBRANCH  11  14
BRANCH  11  15
ATOM     15  O   UNL     1       2.612  -2.258   0.831  0.00  0.00    -0.465 OA
ATOM     16  H   UNL     1       1.793  -2.156   0.325  0.00  0.00    +0.297 HD
ENDBRANCH  11  15
ENDBRANCH   1  12
BRANCH   6  17
ATOM     17  C   UNL     1       8.373  -4.902   5.812  0.00  0.00    +0.193 C 
ATOM     18  O   UNL     1       9.334  -4.184   6.079  0.00  0.00    -0.287 OA
BRANCH  17  19
ATOM     19  C   UNL     1       8.096  -6.090   6.674  0.00  0.00    +0.022 A 
ATOM     20  C   UNL     1       9.168  -6.682   7.360  0.00  0.00    +0.014 A 
ATOM     21  C   UNL     1       8.943  -7.756   8.226  0.00  0.00    +0.039 A 
ATOM     22  C   UNL     1       7.650  -8.237   8.401  0.00  0.00    +0.123 A 
ATOM     23  F   UNL     1       7.433  -9.255   9.245  0.00  0.00    -0.205 F 
ATOM     24  C   UNL     1       6.578  -7.664   7.729  0.00  0.00    +0.039 A 
ATOM     25  C   UNL     1       6.797  -6.581   6.872  0.00  0.00    +0.014 A 
ENDBRANCH  17  19
ENDBRANCH   6  17
TORSDOF 5
