REMARK  Name = 
REMARK  9 active torsions:
REMARK  status: ('A' for Active; 'I' for Inactive)
REMARK    1  A    between atoms: C_1  and  C_2
REMARK    2  A    between atoms: C_2  and  O_3
REMARK    3  A    between atoms: O_3  and  C_4
REMARK    4  A    between atoms: C_4  and  C_5
REMARK    5  A    between atoms: C_5  and  C_6
REMARK    6  A    between atoms: C_6  and  O_7
REMARK    7  A    between atoms: O_7  and  C_8
REMARK    8  A    between atoms: C_11  and  O_12
REMARK    9  A    between atoms: O_12  and  C_13
REMARK                            x       y       z     vdW  Elec       q    Type
REMARK                         _______ _______ _______ _____ _____    ______ ____
ROOT
ATOM      1  C   UNL     1       6.471   2.856   0.460  0.00  0.00    +0.263 C 
ATOM      2  C   UNL     1       6.575   4.385   0.323  0.00  0.00    +0.274 C 
ATOM      3  O   UNL     1       6.653   5.158   1.278  0.00  0.00    -0.270 OA
ATOM      4  N   UNL     1       6.570   4.887  -0.954  0.00  0.00    -0.236 N 
ATOM      5  H   UNL     1       6.658   5.891  -1.032  0.00  0.00    +0.159 HD
ATOM      6  C   UNL     1       6.794   4.180  -2.095  0.00  0.00    +0.312 C 
ATOM      7  O   UNL     1       7.043   4.746  -3.155  0.00  0.00    -0.252 OA
ATOM      8  N   UNL     1       6.817   2.827  -1.988  0.00  0.00    -0.236 N 
ATOM      9  H   UNL     1       7.125   2.340  -2.821  0.00  0.00    +0.159 HD
ATOM     10  C   UNL     1       6.974   2.144  -0.811  0.00  0.00    +0.274 C 
ATOM     11  O   UNL     1       7.443   1.007  -0.827  0.00  0.00    -0.270 OA
ENDROOT
BRANCH   1  12
ATOM     12  C   UNL     1       4.936   2.619   0.510  0.00  0.00    +0.095 C 
BRANCH  12  13
ATOM     13  C   UNL     1       4.511   1.159   0.635  0.00  0.00    +0.164 C 
BRANCH  13  14
ATOM     14  O   UNL     1       3.081   1.142   0.643  0.00  0.00    -0.380 OA
BRANCH  14  16
ATOM     15  C   UNL     1       1.052  -0.111   0.785  0.00  0.00    +0.034 C 
ATOM     16  C   UNL     1       2.567  -0.182   0.765  0.00  0.00    +0.156 C 
ENDBRANCH  14  16
ENDBRANCH  13  14
ENDBRANCH  12  13
ENDBRANCH   1  12
BRANCH   1  17
ATOM     17  O   UNL     1       7.008   2.320   1.668  0.00  0.00    -0.467 OA
BRANCH  17  18
ATOM     18  C   UNL     1       8.356   2.364   1.909  0.00  0.00    +0.123 A 
ATOM     19  C   UNL     1       8.829   1.433   2.844  0.00  0.00    +0.049 A 
ATOM     20  C   UNL     1      10.196   1.350   3.163  0.00  0.00    +0.050 A 
ATOM     21  C   UNL     1      11.095   2.230   2.571  0.00  0.00    +0.129 A 
ATOM     22  C   UNL     1      10.621   3.179   1.665  0.00  0.00    +0.050 A 
ATOM     23  C   UNL     1       9.265   3.246   1.333  0.00  0.00    +0.049 A 
BRANCH  21  24
ATOM     24  O   UNL     1      12.462   2.189   2.666  0.00  0.00    -0.456 OA
BRANCH  24  25
ATOM     25  C   UNL     1      13.124   1.753   3.784  0.00  0.00    +0.129 A 
ATOM     26  C   UNL     1      12.715   1.970   5.100  0.00  0.00    +0.049 A 
ATOM     27  C   UNL     1      13.558   1.600   6.154  0.00  0.00    +0.042 A 
ATOM     28  C   UNL     1      14.804   1.040   5.884  0.00  0.00    +0.124 A 
ATOM     29  F   UNL     1      15.621   0.721   6.896  0.00  0.00    -0.205 F 
ATOM     30  C   UNL     1      15.224   0.829   4.577  0.00  0.00    +0.042 A 
ATOM     31  C   UNL     1      14.381   1.189   3.528  0.00  0.00    +0.049 A 
ENDBRANCH  24  25
ENDBRANCH  21  24
ENDBRANCH  17  18
ENDBRANCH   1  17
TORSDOF 8
