REMARK  Name = 
REMARK  9 active torsions:
REMARK  status: ('A' for Active; 'I' for Inactive)
REMARK    1  A    between atoms: C_2  and  C_3
REMARK    2  A    between atoms: C_2  and  C_4
REMARK    3  A    between atoms: C_2  and  C_11
REMARK    4  A    between atoms: C_4  and  C_6
REMARK    5  A    between atoms: C_6  and  P_7
REMARK    6  A    between atoms: P_7  and  O_9
REMARK    7  A    between atoms: C_11  and  O_13
REMARK    8  A    between atoms: C_11  and  C_14
REMARK    9  A    between atoms: C_14  and  C_15
REMARK                            x       y       z     vdW  Elec       q    Type
REMARK                         _______ _______ _______ _____ _____    ______ ____
ROOT
ATOM      1  C   UNL     1       2.897   1.499  -4.106  0.00  0.00    +0.148 C 
ATOM      2  O   UNL     1       3.847   1.331  -4.877  0.00  0.00    -0.296 OA
ENDROOT
BRANCH   1   3
ATOM      3  C   UNL     1       1.447   1.476  -4.602  0.00  0.00    +0.081 C 
ATOM      4  C   UNL     1       1.378   0.671  -5.905  0.00  0.00    +0.018 C 
BRANCH   3   5
ATOM      5  C   UNL     1       0.883   2.907  -4.727  0.00  0.00    +0.124 C 
BRANCH   5   6
ATOM      6  C   UNL     1      -0.609   2.917  -5.109  0.00  0.00    +0.028 C 
ATOM      7  C   UNL     1      -1.186   4.327  -5.203  0.00  0.00    +0.006 C 
ENDBRANCH   5   6
BRANCH   5   8
ATOM      8  O   UNL     1       1.587   3.647  -5.721  0.00  0.00    -0.391 OA
ATOM      9  H   UNL     1       2.472   3.866  -5.383  0.00  0.00    +0.210 HD
ENDBRANCH   5   8
ENDBRANCH   3   5
ENDBRANCH   1   3
BRANCH   1  10
ATOM     10  C   UNL     1       3.181   1.770  -2.657  0.00  0.00    +0.168 C 
BRANCH  10  11
ATOM     11  P   UNL     1       2.777   0.412  -1.565  0.00  0.00    +0.198 P 
ATOM     12  H   UNL     1       3.019  -0.868  -2.107  0.00  0.00    +0.128 HD
ATOM     13  O   UNL     1       3.215   0.726  -0.160  0.00  0.00    -0.294 OA
BRANCH  11  14
ATOM     14  O   UNL     1       1.157   0.486  -1.555  0.00  0.00    -0.345 OA
ATOM     15  H   UNL     1       0.779   0.074  -0.747  0.00  0.00    +0.217 HD
ENDBRANCH  11  14
ENDBRANCH  10  11
ENDBRANCH   1  10
TORSDOF 7
