REMARK  Name = 
REMARK  3 active torsions:
REMARK  status: ('A' for Active; 'I' for Inactive)
REMARK    1  A    between atoms: N_1  and  N_2
REMARK    2  A    between atoms: C_3  and  C_5
REMARK    3  A    between atoms: C_8  and  C_10
REMARK                            x       y       z     vdW  Elec       q    Type
REMARK                         _______ _______ _______ _____ _____    ______ ____
ROOT
ATOM      1  C   UNL     1       4.698   0.997   0.763  0.00  0.00    +0.191 A 
ATOM      2  O   UNL     1       5.504   0.239   1.577  0.00  0.00    -0.450 OA
ATOM      3  C   UNL     1       6.807   0.554   1.286  0.00  0.00    +0.137 A 
ATOM      4  C   UNL     1       6.829   1.497   0.277  0.00  0.00    +0.051 A 
ATOM      5  C   UNL     1       5.484   1.796  -0.042  0.00  0.00    +0.055 A 
ENDROOT
BRANCH   3   6
ATOM      6  C   UNL     1       7.822  -0.151   2.071  0.00  0.00    +0.036 A 
ATOM      7  C   UNL     1       9.038   0.433   2.473  0.00  0.00    +0.052 A 
ATOM      8 CL   UNL     1       9.475   2.068   2.105  0.00  0.00    -0.083 Cl
ATOM      9  C   UNL     1       9.961  -0.294   3.240  0.00  0.00    +0.021 A 
ATOM     10  C   UNL     1       9.691  -1.607   3.618  0.00  0.00    +0.001 A 
ATOM     11  C   UNL     1       8.500  -2.205   3.222  0.00  0.00    +0.001 A 
ATOM     12  C   UNL     1       7.577  -1.484   2.456  0.00  0.00    +0.013 A 
ENDBRANCH   3   6
BRANCH   1  15
ATOM     13  N   UNL     1       2.834  -0.046   1.818  0.00  0.00    -0.247 N 
ATOM     14  H   UNL     1       3.532  -0.397   2.471  0.00  0.00    +0.169 HD
ATOM     15  C   UNL     1       3.260   0.847   0.835  0.00  0.00    +0.293 C 
ATOM     16  O   UNL     1       2.473   1.430   0.087  0.00  0.00    -0.266 OA
BRANCH  13  17
ATOM     17  N   UNL     1       1.458  -0.244   2.068  0.00  0.00    -0.254 NA
ATOM     18  H   UNL     1       0.958  -0.044   1.191  0.00  0.00    +0.140 HD
ATOM     19  H   UNL     1       1.292  -1.233   2.260  0.00  0.00    +0.140 HD
ENDBRANCH  13  17
ENDBRANCH   1  15
TORSDOF 3
