REMARK  Name = 
REMARK  2 active torsions:
REMARK  status: ('A' for Active; 'I' for Inactive)
REMARK    1  A    between atoms: C_5  and  C_8
REMARK    2  A    between atoms: C_11  and  C_13
REMARK                            x       y       z     vdW  Elec       q    Type
REMARK                         _______ _______ _______ _____ _____    ______ ____
ROOT
ATOM      1  C   UNL     1       6.600   0.227  -0.526  0.00  0.00    +0.162 A 
ATOM      2  N   UNL     1       7.420  -0.853  -0.735  0.00  0.00    -0.321 N 
ATOM      3  H   UNL     1       7.141  -1.818  -0.741  0.00  0.00    +0.169 HD
ATOM      4  C   UNL     1       8.681  -0.376  -0.986  0.00  0.00    +0.162 A 
ATOM      5  N   UNL     1       8.636   0.939  -0.887  0.00  0.00    -0.129 NA
ATOM      6  N   UNL     1       7.345   1.313  -0.601  0.00  0.00    -0.129 NA
ENDROOT
BRANCH   1  11
ATOM      7  F   UNL     1       1.053   0.133   0.283  0.00  0.00    -0.205 F 
ATOM      8  C   UNL     1       2.380   0.147   0.104  0.00  0.00    +0.123 A 
ATOM      9  C   UNL     1       3.066  -1.054  -0.016  0.00  0.00    +0.039 A 
ATOM     10  C   UNL     1       4.451  -1.046  -0.212  0.00  0.00    +0.014 A 
ATOM     11  C   UNL     1       5.155   0.167  -0.292  0.00  0.00    +0.019 A 
ATOM     12  C   UNL     1       4.435   1.368  -0.158  0.00  0.00    +0.014 A 
ATOM     13  C   UNL     1       3.051   1.359   0.038  0.00  0.00    +0.039 A 
ENDBRANCH   1  11
BRANCH   4  14
ATOM     14  C   UNL     1       9.847  -1.194  -1.328  0.00  0.00    +0.019 A 
ATOM     15  C   UNL     1       9.796  -2.595  -1.385  0.00  0.00    +0.011 A 
ATOM     16  C   UNL     1      10.928  -3.338  -1.740  0.00  0.00    +0.001 A 
ATOM     17  C   UNL     1      12.124  -2.691  -2.041  0.00  0.00    +0.000 A 
ATOM     18  C   UNL     1      12.193  -1.302  -1.984  0.00  0.00    +0.001 A 
ATOM     19  C   UNL     1      11.063  -0.561  -1.629  0.00  0.00    +0.011 A 
ENDBRANCH   4  14
TORSDOF 2
