REMARK  Name = 
REMARK  13 active torsions:
REMARK  status: ('A' for Active; 'I' for Inactive)
REMARK    1  A    between atoms: C_2  and  N_3
REMARK    2  A    between atoms: C_2  and  C_4
REMARK    3  A    between atoms: C_2  and  C_24
REMARK    4  A    between atoms: C_4  and  S_5
REMARK    5  A    between atoms: S_5  and  S_6
REMARK    6  A    between atoms: S_6  and  C_7
REMARK    7  A    between atoms: C_7  and  C_8
REMARK    8  A    between atoms: C_9  and  C_10
REMARK    9  A    between atoms: C_16  and  C_17
REMARK   10  A    between atoms: C_16  and  C_18
REMARK   11  A    between atoms: C_21  and  C_22
REMARK   12  A    between atoms: C_21  and  C_23
REMARK   13  A    between atoms: C_24  and  O_25
REMARK                            x       y       z     vdW  Elec       q    Type
REMARK                         _______ _______ _______ _____ _____    ______ ____
ROOT
ATOM      1  C   UNK     1       2.648   3.917  -5.944  0.00  0.00    +0.025 C 
ATOM      2  C   UNK     1       2.597   5.325  -5.385  0.00  0.00    +0.230 C 
ATOM      3  C   UNK     1       1.228   5.733  -4.845  0.00  0.00    +0.099 C 
ATOM      4  C   UNK     1       3.728   5.668  -4.417  0.00  0.00    +0.099 C 
ATOM      5  N   UNK     1       2.862   6.097  -6.636  0.00  0.00    +0.020 N 
ATOM      6  O   UNK     1       2.682   7.303  -6.713  0.00  0.00    +0.022 OA
ATOM      7  C   UNK     1       3.360   5.275  -7.779  0.00  0.00    +0.233 C 
ATOM      8  C   UNK     1       4.854   5.565  -7.904  0.00  0.00    +0.099 C 
ATOM      9  C   UNK     1       2.586   5.677  -9.031  0.00  0.00    +0.099 C 
ATOM     10  C   UNK     1       3.047   3.900  -7.234  0.00  0.00    +0.040 C 
ENDROOT
BRANCH  10  11
ATOM     11  C   UNK     1       3.126   2.697  -8.067  0.00  0.00    -0.015 A 
ATOM     12  C   UNK     1       4.287   1.916  -8.075  0.00  0.00    +0.008 A 
ATOM     13  C   UNK     1       4.340   0.734  -8.820  0.00  0.00    +0.001 A 
ATOM     14  C   UNK     1       3.233   0.326  -9.562  0.00  0.00    +0.000 A 
ATOM     15  C   UNK     1       2.072   1.097  -9.559  0.00  0.00    +0.001 A 
ATOM     16  C   UNK     1       2.017   2.276  -8.812  0.00  0.00    +0.008 A 
ENDBRANCH  10  11
BRANCH   1  17
ATOM     17  C   UNK     1       2.136   2.760  -5.146  0.00  0.00    +0.119 C 
BRANCH  17  18
ATOM     18  S   UNK     1       3.486   1.874  -4.321  0.00  0.00    -0.088 S 
BRANCH  18  19
ATOM     19  S   UNK     1       2.428   0.450  -3.273  0.00  0.00    -0.091 S 
BRANCH  19  20
ATOM     20  C   UNK     1       1.717  -0.621  -4.586  0.00  0.00    +0.111 C 
BRANCH  20  21
ATOM     21  C   UNK     1       2.720  -1.159  -5.609  0.00  0.00    +0.171 C 
BRANCH  21  22
ATOM     22  N   UNK     1       1.994  -1.841  -6.713  0.00  0.00    -0.318 NA
ATOM     23  H   UNK     1       2.684  -2.169  -7.393  0.00  0.00    +0.119 HD
ATOM     24  H   UNK     1       1.595  -2.708  -6.338  0.00  0.00    +0.119 HD
ENDBRANCH  21  22
BRANCH  21  25
ATOM     25  C   UNK     1       3.677  -2.148  -4.935  0.00  0.00    +0.323 C 
ATOM     26  O   UNK     1       3.497  -3.360  -4.918  0.00  0.00    -0.249 OA
BRANCH  25  27
ATOM     27  O   UNK     1       4.766  -1.573  -4.379  0.00  0.00    -0.480 OA
ATOM     28  H   UNK     1       4.753  -0.593  -4.401  0.00  0.00    +0.295 HD
ENDBRANCH  25  27
ENDBRANCH  21  25
ENDBRANCH  20  21
ENDBRANCH  19  20
ENDBRANCH  18  19
ENDBRANCH  17  18
ENDBRANCH   1  17
TORSDOF 9
