REMARK  Name = 
REMARK  12 active torsions:
REMARK  status: ('A' for Active; 'I' for Inactive)
REMARK    1  A    between atoms: O_1  and  C_2
REMARK    2  A    between atoms: C_2  and  C_4
REMARK    3  A    between atoms: C_4  and  N_5
REMARK    4  A    between atoms: C_6  and  C_8
REMARK    5  A    between atoms: C_8  and  C_9
REMARK    6  A    between atoms: C_9  and  C_10
REMARK    7  A    between atoms: C_10  and  P_11
REMARK    8  A    between atoms: P_11  and  O_12
REMARK    9  A    between atoms: P_11  and  O_14
REMARK   10  A    between atoms: O_14  and  C_15
REMARK   11  A    between atoms: C_15  and  C_16
REMARK   12  A    between atoms: C_19  and  N_22
REMARK                            x       y       z     vdW  Elec       q    Type
REMARK                         _______ _______ _______ _____ _____    ______ ____
ROOT
ATOM      1  P   UNL     1      10.325  -3.667   2.725  0.00  0.00    +0.331 P 
ATOM      2  O   UNL     1      11.364  -2.602   3.086  0.00  0.00    -0.259 OA
ENDROOT
BRANCH   1   3
ATOM      3  O   UNL     1      10.885  -4.339   1.341  0.00  0.00    -0.324 OA
ATOM      4  H   UNL     1      11.825  -4.093   1.236  0.00  0.00    +0.220 HD
ENDBRANCH   1   3
BRANCH   1   5
ATOM      5  C   UNL     1       9.410  -2.397   1.779  0.00  0.00    +0.128 C 
BRANCH   5   6
ATOM      6  C   UNL     1       8.306  -3.040   0.933  0.00  0.00    +0.021 C 
BRANCH   6   7
ATOM      7  C   UNL     1       7.512  -2.038   0.101  0.00  0.00    +0.096 C 
BRANCH   7  10
ATOM      8  N   UNL     1       5.662  -1.912  -1.472  0.00  0.00    -0.305 N 
ATOM      9  H   UNL     1       5.849  -0.916  -1.488  0.00  0.00    +0.149 HD
ATOM     10  C   UNL     1       6.514  -2.744  -0.795  0.00  0.00    +0.213 C 
ATOM     11  O   UNL     1       6.489  -3.958  -0.991  0.00  0.00    -0.276 OA
BRANCH   8  12
ATOM     12  C   UNL     1       4.635  -2.429  -2.369  0.00  0.00    +0.224 C 
BRANCH  12  13
ATOM     13  C   UNL     1       5.184  -2.838  -3.732  0.00  0.00    +0.322 C 
ATOM     14  O   UNL     1       4.708  -2.454  -4.793  0.00  0.00    -0.249 OA
BRANCH  13  15
ATOM     15  O   UNL     1       6.196  -3.733  -3.674  0.00  0.00    -0.480 OA
ATOM     16  H   UNL     1       6.388  -4.032  -2.752  0.00  0.00    +0.295 HD
ENDBRANCH  13  15
ENDBRANCH  12  13
ENDBRANCH   8  12
ENDBRANCH   7  10
ENDBRANCH   6   7
ENDBRANCH   5   6
ENDBRANCH   1   5
BRANCH   1  17
ATOM     17  O   UNL     1      11.190  -4.869   3.621  0.00  0.00    -0.303 OA
BRANCH  17  18
ATOM     18  C   UNL     1      10.340  -5.824   4.229  0.00  0.00    +0.205 C 
BRANCH  18  19
ATOM     19  C   UNL     1      11.187  -6.821   4.975  0.00  0.00    -0.021 A 
ATOM     20  C   UNL     1      11.164  -8.180   4.628  0.00  0.00    +0.012 A 
ATOM     21  C   UNL     1      11.977  -9.099   5.298  0.00  0.00    +0.084 A 
ATOM     22  C   UNL     1      12.821  -8.656   6.325  0.00  0.00    +0.273 A 
ATOM     23  C   UNL     1      12.842  -7.307   6.696  0.00  0.00    +0.084 A 
ATOM     24  C   UNL     1      12.025  -6.397   6.020  0.00  0.00    +0.012 A 
BRANCH  22  25
ATOM     25  N   UNL     1      13.700  -9.614   7.006  0.00  0.00    +0.080 N 
ATOM     26  O   UNL     1      13.652 -10.799   6.646  0.00  0.00    +0.041 OA
ATOM     27  O   UNL     1      14.440  -9.183   7.902  0.00  0.00    -0.576 OA
ENDBRANCH  22  25
ENDBRANCH  18  19
ENDBRANCH  17  18
ENDBRANCH   1  17
TORSDOF 12
