REMARK  Name = 
REMARK  8 active torsions:
REMARK  status: ('A' for Active; 'I' for Inactive)
REMARK    1  A    between atoms: C_2  and  O_3
REMARK    2  A    between atoms: C_5  and  N_16
REMARK    3  A    between atoms: C_8  and  C_10
REMARK    4  A    between atoms: C_10  and  O_11
REMARK    5  A    between atoms: O_11  and  P_12
REMARK    6  A    between atoms: P_12  and  O_13
REMARK    7  A    between atoms: P_12  and  O_14
REMARK    8  A    between atoms: C_21  and  N_25
REMARK                            x       y       z     vdW  Elec       q    Type
REMARK                         _______ _______ _______ _____ _____    ______ ____
ROOT
ATOM      1  C   UNL     1       2.086  -0.002   0.074  0.00  0.00    +0.150 C 
ATOM      2  C   UNL     1       2.694  -1.258   0.694  0.00  0.00    +0.175 C 
ATOM      3  O   UNL     1       3.928  -0.849   1.318  0.00  0.00    -0.348 OA
ATOM      4  C   UNL     1       4.101   0.572   1.151  0.00  0.00    +0.222 C 
ATOM      5  C   UNL     1       2.683   1.091   0.930  0.00  0.00    +0.088 C 
ENDROOT
BRANCH   4   6
ATOM      6  N   UNL     1       5.053   0.825   0.059  0.00  0.00    -0.320 N 
ATOM      7  C   UNL     1       6.140   0.036  -0.301  0.00  0.00    +0.052 A 
ATOM      8  C   UNL     1       6.709   0.623  -1.441  0.00  0.00    +0.006 A 
ATOM      9  C   UNL     1       7.805   0.000  -2.071  0.00  0.00    +0.094 A 
ATOM     10  C   UNL     1       8.315  -1.188  -1.531  0.00  0.00    +0.274 A 
ATOM     11  C   UNL     1       7.767  -1.749  -0.377  0.00  0.00    +0.086 A 
ATOM     12  C   UNL     1       6.001   1.819  -1.702  0.00  0.00    +0.028 A 
ATOM     13  C   UNL     1       6.675  -1.142   0.254  0.00  0.00    +0.033 A 
ATOM     14  C   UNL     1       5.030   1.947  -0.740  0.00  0.00    +0.089 A 
BRANCH  10  15
ATOM     15  N   UNL     1       9.442  -1.847  -2.200  0.00  0.00    +0.080 N 
ATOM     16  O   UNL     1       9.901  -2.880  -1.685  0.00  0.00    +0.041 OA
ATOM     17  O   UNL     1       9.868  -1.337  -3.245  0.00  0.00    -0.576 OA
ENDBRANCH  10  15
ENDBRANCH   4   6
BRANCH   1  18
ATOM     18  O   UNL     1       0.670   0.000   0.090  0.00  0.00    -0.389 OA
ATOM     19  H   UNL     1       0.360  -0.002   1.013  0.00  0.00    +0.210 HD
ENDBRANCH   1  18
BRANCH   2  20
ATOM     20  C   UNL     1       2.951  -2.341  -0.354  0.00  0.00    +0.206 C 
BRANCH  20  21
ATOM     21  O   UNL     1       3.498  -3.502   0.267  0.00  0.00    -0.284 OA
BRANCH  21  22
ATOM     22  P   UNL     1       3.908  -4.748  -0.860  0.00  0.00    +0.472 P 
ATOM     23  O   UNL     1       4.275  -5.864  -1.870  0.00  0.00    -0.228 OA
BRANCH  22  24
ATOM     24  O   UNL     1       4.262  -5.652   0.456  0.00  0.00    -0.303 OA
ATOM     25  H   UNL     1       3.464  -5.980   0.901  0.00  0.00    +0.222 HD
ENDBRANCH  22  24
BRANCH  22  26
ATOM     26  O   UNL     1       5.355  -3.995  -0.974  0.00  0.00    -0.303 OA
ATOM     27  H   UNL     1       5.621  -3.909  -1.904  0.00  0.00    +0.222 HD
ENDBRANCH  22  26
ENDBRANCH  21  22
ENDBRANCH  20  21
ENDBRANCH   2  20
TORSDOF 8
