REMARK  Name = 
REMARK  12 active torsions:
REMARK  status: ('A' for Active; 'I' for Inactive)
REMARK    1  A    between atoms: C_1  and  C_2
REMARK    2  A    between atoms: C_2  and  N_3
REMARK    3  A    between atoms: N_3  and  C_4
REMARK    4  A    between atoms: C_4  and  C_5
REMARK    5  A    between atoms: C_8  and  C_9
REMARK    6  A    between atoms: C_15  and  C_16
REMARK    7  A    between atoms: C_15  and  S_19
REMARK    8  A    between atoms: C_16  and  C_17
REMARK    9  A    between atoms: C_17  and  O_18
REMARK   10  A    between atoms: S_19  and  S_20
REMARK   11  A    between atoms: S_20  and  C_21
REMARK   12  A    between atoms: C_21  and  C_22
REMARK                            x       y       z     vdW  Elec       q    Type
REMARK                         _______ _______ _______ _____ _____    ______ ____
ROOT
ATOM      1  C   UNL     1       1.047  -0.086   0.192  0.00  0.00    +0.062 C 
ATOM      2  C   UNL     1       2.527   0.074  -0.086  0.00  0.00    +0.021 C 
ATOM      3  C   UNL     1       3.156  -0.444  -1.178  0.00  0.00    +0.015 C 
ENDROOT
BRANCH   2   4
ATOM      4  N   UNL     1       3.187   0.860   0.859  0.00  0.00    -0.273 N 
ATOM      5  C   UNL     1       3.325   2.230   0.681  0.00  0.00    +0.332 C 
ATOM      6  O   UNL     1       3.981   2.983   1.392  0.00  0.00    -0.279 OA
BRANCH   4   7
ATOM      7  C   UNL     1       3.951   0.193   1.927  0.00  0.00    +0.153 C 
BRANCH   7   8
ATOM      8  C   UNL     1       3.347   0.302   3.304  0.00  0.00    +0.030 A 
ATOM      9  C   UNL     1       4.210  -0.148   4.444  0.00  0.00    +0.131 A 
ATOM     10  N   UNL     1       5.275  -0.855   4.216  0.00  0.00    -0.283 NA
ATOM     11  H   UNL     1       5.736  -1.091   5.097  0.00  0.00    +0.188 HD
ATOM     12  N   UNL     1       3.808   0.193   5.703  0.00  0.00    -0.329 N 
ATOM     13  H   UNL     1       4.409  -0.021   6.482  0.00  0.00    +0.168 HD
ATOM     14  C   UNL     1       2.625   0.837   5.941  0.00  0.00    +0.105 A 
ATOM     15  C   UNL     1       2.304   1.280   7.348  0.00  0.00    +0.086 C 
ATOM     16  N   UNL     1       1.762   1.089   4.991  0.00  0.00    -0.242 NA
ATOM     17  C   UNL     1       2.167   0.818   3.696  0.00  0.00    +0.121 A 
ENDBRANCH   7   8
ENDBRANCH   4   7
ENDBRANCH   2   4
BRANCH   3  18
ATOM     18  S   UNL     1       2.331  -1.723  -2.074  0.00  0.00    -0.060 S 
BRANCH  18  19
ATOM     19  S   UNL     1       3.659  -3.293  -1.995  0.00  0.00    -0.086 S 
BRANCH  19  20
ATOM     20  C   UNL     1       3.859  -3.810  -0.240  0.00  0.00    +0.113 C 
BRANCH  20  21
ATOM     21  C   UNL     1       2.679  -4.386   0.559  0.00  0.00    +0.129 C 
ATOM     22  O   UNL     1       1.676  -3.407   0.854  0.00  0.00    -0.376 OA
ATOM     23  C   UNL     1       1.139  -3.667   2.160  0.00  0.00    +0.160 C 
ATOM     24  C   UNL     1       1.909  -4.818   2.767  0.00  0.00    +0.031 C 
ATOM     25  C   UNL     1       3.160  -4.864   1.930  0.00  0.00    +0.034 C 
ENDBRANCH  20  21
ENDBRANCH  19  20
ENDBRANCH  18  19
ENDBRANCH   3  18
BRANCH   3  26
ATOM     26  C   UNL     1       4.526   0.026  -1.668  0.00  0.00    +0.072 C 
BRANCH  26  27
ATOM     27  C   UNL     1       4.467   1.069  -2.802  0.00  0.00    +0.161 C 
BRANCH  27  28
ATOM     28  O   UNL     1       3.719   2.219  -2.422  0.00  0.00    -0.395 OA
ATOM     29  H   UNL     1       3.380   2.627  -3.239  0.00  0.00    +0.209 HD
ENDBRANCH  27  28
ENDBRANCH  26  27
ENDBRANCH   3  26
TORSDOF 10
