REMARK  Name = 
REMARK  6 active torsions:
REMARK  status: ('A' for Active; 'I' for Inactive)
REMARK    1  A    between atoms: C_1  and  C_2
REMARK    2  A    between atoms: C_2  and  C_3
REMARK    3  A    between atoms: C_2  and  N_4
REMARK    4  A    between atoms: N_6  and  C_7
REMARK    5  A    between atoms: C_18  and  O_19
REMARK    6  A    between atoms: O_19  and  C_20
REMARK                            x       y       z     vdW  Elec       q    Type
REMARK                         _______ _______ _______ _____ _____    ______ ____
ROOT
ATOM      1  N   UNL     1       3.016  -0.163   1.388  0.00  0.00    -0.294 N 
ATOM      2  C   UNL     1       3.460   0.729   2.348  0.00  0.00    +0.169 A 
ATOM      3  C   UNL     1       3.674  -0.042   3.477  0.00  0.00    +0.128 A 
ATOM      4  C   UNL     1       4.106   0.611   4.623  0.00  0.00    +0.147 A 
ATOM      5  N   UNL     1       4.345   1.941   4.583  0.00  0.00    -0.201 NA
ATOM      6  C   UNL     1       4.092   2.593   3.422  0.00  0.00    +0.326 A 
ATOM      7  N   UNL     1       3.415  -1.349   3.238  0.00  0.00    -0.211 NA
ATOM      8  N   UNL     1       3.653   2.057   2.260  0.00  0.00    -0.175 NA
ATOM      9  C   UNL     1       3.058  -1.433   1.971  0.00  0.00    +0.202 A 
ATOM     10  N   UNL     1       2.718  -2.564   1.305  0.00  0.00    -0.283 N 
ATOM     11  H   UNL     1       2.464  -2.545   0.322  0.00  0.00    +0.155 HD
ENDROOT
BRANCH  10  12
ATOM     12  C   UNL     1       2.272  -3.760   1.925  0.00  0.00    +0.069 A 
ATOM     13  C   UNL     1       1.353  -4.577   1.247  0.00  0.00    +0.144 A 
ATOM     14  F   UNL     1       0.988  -4.250  -0.004  0.00  0.00    -0.204 F 
ATOM     15  C   UNL     1       0.777  -5.696   1.845  0.00  0.00    +0.040 A 
ATOM     16  C   UNL     1       1.117  -6.029   3.154  0.00  0.00    +0.003 A 
ATOM     17  C   UNL     1       2.045  -5.255   3.842  0.00  0.00    +0.002 A 
ATOM     18  C   UNL     1       2.623  -4.135   3.229  0.00  0.00    +0.026 A 
ENDBRANCH  10  12
BRANCH   1  20
ATOM     19  C   UNL     1       1.059  -0.211  -0.148  0.00  0.00    +0.031 C 
ATOM     20  C   UNL     1       2.547   0.134   0.032  0.00  0.00    +0.086 C 
ATOM     21  C   UNL     1       2.755   1.575  -0.453  0.00  0.00    +0.031 C 
ENDBRANCH   1  20
BRANCH   6  22
ATOM     22  O   UNL     1       4.411   3.940   3.342  0.00  0.00    -0.418 OA
BRANCH  22  23
ATOM     23  C   UNL     1       4.385   4.695   4.489  0.00  0.00    +0.202 A 
ATOM     24  C   UNL     1       3.350   4.668   5.426  0.00  0.00    +0.168 A 
ATOM     25  F   UNL     1       2.329   3.808   5.302  0.00  0.00    -0.202 F 
ATOM     26  C   UNL     1       3.322   5.572   6.491  0.00  0.00    +0.042 A 
ATOM     27  C   UNL     1       4.323   6.535   6.621  0.00  0.00    +0.006 A 
ATOM     28  C   UNL     1       5.364   6.570   5.693  0.00  0.00    +0.042 A 
ATOM     29  C   UNL     1       5.386   5.653   4.642  0.00  0.00    +0.168 A 
ATOM     30  F   UNL     1       6.389   5.725   3.752  0.00  0.00    -0.202 F 
ENDBRANCH  22  23
ENDBRANCH   6  22
TORSDOF 4
