REMARK  Name = 
REMARK  7 active torsions:
REMARK  status: ('A' for Active; 'I' for Inactive)
REMARK    1  A    between atoms: C_2  and  C_3
REMARK    2  A    between atoms: C_5  and  O_7
REMARK    3  A    between atoms: O_7  and  C_8
REMARK    4  A    between atoms: C_13  and  N_14
REMARK    5  A    between atoms: C_17  and  O_19
REMARK    6  A    between atoms: C_20  and  O_22
REMARK    7  A    between atoms: C_23  and  O_25
REMARK                            x       y       z     vdW  Elec       q    Type
REMARK                         _______ _______ _______ _____ _____    ______ ____
ROOT
ATOM      1  C   UNL     1       2.067   0.081   0.022  0.00  0.00    +0.150 C 
ATOM      2  C   UNL     1       0.589   0.149   0.411  0.00  0.00    +0.041 C 
ATOM      3  C   UNL     1       2.534   1.176  -0.954  0.00  0.00    +0.174 C 
ATOM      4  C   UNL     1       2.204   0.851  -2.418  0.00  0.00    +0.180 C 
ATOM      5  C   UNL     1       2.636  -0.578  -2.769  0.00  0.00    +0.214 C 
ATOM      6  C   UNL     1       2.089  -1.592  -1.737  0.00  0.00    +0.339 C 
ATOM      7  O   UNL     1       2.450  -1.235  -0.400  0.00  0.00    -0.334 OA
ENDROOT
BRANCH   3   8
ATOM      8  O   UNL     1       1.990   2.452  -0.603  0.00  0.00    -0.387 OA
ATOM      9  H   UNL     1       1.202   2.564  -1.173  0.00  0.00    +0.210 HD
ENDBRANCH   3   8
BRANCH   4  10
ATOM     10  O   UNL     1       0.818   1.122  -2.672  0.00  0.00    -0.386 OA
ATOM     11  H   UNL     1       0.293   0.296  -2.629  0.00  0.00    +0.210 HD
ENDBRANCH   4  10
BRANCH   5  12
ATOM     12  O   UNL     1       4.073  -0.613  -2.812  0.00  0.00    -0.383 OA
ATOM     13  H   UNL     1       4.358  -1.536  -2.927  0.00  0.00    +0.210 HD
ENDBRANCH   5  12
BRANCH   6  14
ATOM     14  O   UNL     1       0.681  -1.744  -1.922  0.00  0.00    -0.454 OA
BRANCH  14  15
ATOM     15  C   UNL     1       0.030  -2.800  -1.341  0.00  0.00    +0.201 A 
ATOM     16  C   UNL     1      -1.348  -2.965  -1.584  0.00  0.00    +0.314 A 
ATOM     17  C   UNL     1      -2.041  -4.074  -1.060  0.00  0.00    +0.088 A 
ATOM     18  C   UNL     1      -1.373  -5.007  -0.267  0.00  0.00    +0.007 A 
ATOM     19  C   UNL     1      -0.027  -4.823   0.021  0.00  0.00    +0.004 A 
ATOM     20  C   UNL     1       0.668  -3.731  -0.507  0.00  0.00    +0.053 A 
BRANCH  16  21
ATOM     21  N   UNL     1      -2.123  -1.979  -2.364  0.00  0.00    +0.083 N 
ATOM     22  O   UNL     1      -3.310  -2.250  -2.600  0.00  0.00    +0.042 OA
ATOM     23  O   UNL     1      -1.571  -0.931  -2.729  0.00  0.00    -0.576 OA
ENDBRANCH  16  21
ENDBRANCH  14  15
ENDBRANCH   6  14
TORSDOF 6
