REMARK  Name = 
REMARK  7 active torsions:
REMARK  status: ('A' for Active; 'I' for Inactive)
REMARK    1  A    between atoms: C_1  and  O_2
REMARK    2  A    between atoms: O_2  and  C_3
REMARK    3  A    between atoms: C_6  and  C_9
REMARK    4  A    between atoms: C_10  and  C_11
REMARK    5  A    between atoms: C_14  and  C_15
REMARK    6  A    between atoms: C_16  and  O_17
REMARK    7  A    between atoms: C_19  and  O_20
REMARK                            x       y       z     vdW  Elec       q    Type
REMARK                         _______ _______ _______ _____ _____    ______ ____
ROOT
ATOM      1  C   UNL     1       5.225  -2.549   3.984  0.00  0.00    +0.030 A 
ATOM      2  C   UNL     1       5.141  -4.012   4.115  0.00  0.00    +0.104 A 
ATOM      3  N   UNL     1       5.991  -4.434   5.075  0.00  0.00    -0.173 NA
ATOM      4  N   UNL     1       6.571  -3.326   5.539  0.00  0.00    -0.281 N 
ATOM      5  H   UNL     1       7.261  -3.420   6.278  0.00  0.00    +0.189 HD
ATOM      6  C   UNL     1       6.193  -2.174   4.914  0.00  0.00    +0.041 A 
ATOM      7  C   UNL     1       6.835  -0.896   5.300  0.00  0.00    +0.065 C 
ENDROOT
BRANCH   1  11
ATOM      8  C   UNL     1       3.115  -0.190   1.098  0.00  0.00    +0.120 A 
ATOM      9  C   UNL     1       2.466  -1.122   1.890  0.00  0.00    +0.046 A 
ATOM     10  C   UNL     1       3.153  -1.737   2.939  0.00  0.00    +0.012 A 
ATOM     11  C   UNL     1       4.528  -1.618   3.092  0.00  0.00    -0.014 A 
ATOM     12  C   UNL     1       5.159  -0.606   2.357  0.00  0.00    +0.012 A 
ATOM     13  C   UNL     1       4.438   0.138   1.402  0.00  0.00    +0.046 A 
BRANCH   8  15
ATOM     14  C   UNL     1       1.590  -0.262  -0.698  0.00  0.00    +0.277 C 
ATOM     15  O   UNL     1       2.515   0.500   0.081  0.00  0.00    -0.495 OA
ENDBRANCH   8  15
ENDBRANCH   1  11
BRANCH   2  16
ATOM     16  C   UNL     1       4.433  -5.071   3.327  0.00  0.00    +0.044 A 
ATOM     17  C   UNL     1       3.163  -4.906   2.769  0.00  0.00    +0.017 A 
ATOM     18  C   UNL     1       2.591  -5.842   1.901  0.00  0.00    +0.046 A 
ATOM     19  C   UNL     1       3.257  -7.021   1.630  0.00  0.00    +0.120 A 
ATOM     20  C   UNL     1       4.460  -7.296   2.260  0.00  0.00    +0.091 A 
ATOM     21  C   UNL     1       5.029  -6.334   3.106  0.00  0.00    +0.130 A 
BRANCH  19  22
ATOM     22  O   UNL     1       2.672  -7.889   0.761  0.00  0.00    -0.507 OA
ATOM     23  H   UNL     1       3.285  -8.626   0.604  0.00  0.00    +0.292 HD
ENDBRANCH  19  22
BRANCH  21  24
ATOM     24  O   UNL     1       6.194  -6.715   3.729  0.00  0.00    -0.506 OA
ATOM     25  H   UNL     1       6.346  -6.038   4.428  0.00  0.00    +0.292 HD
ENDBRANCH  21  24
ENDBRANCH   2  16
TORSDOF 5
