REMARK  Name = 
REMARK  7 active torsions:
REMARK  status: ('A' for Active; 'I' for Inactive)
REMARK    1  A    between atoms: C_1  and  N_2
REMARK    2  A    between atoms: N_2  and  C_3
REMARK    3  A    between atoms: C_4  and  C_16
REMARK    4  A    between atoms: C_6  and  S_7
REMARK    5  A    between atoms: S_7  and  C_8
REMARK    6  A    between atoms: N_12  and  C_13
REMARK    7  A    between atoms: C_21  and  C_22
REMARK                            x       y       z     vdW  Elec       q    Type
REMARK                         _______ _______ _______ _____ _____    ______ ____
ROOT
ATOM      1  C   UNL     1       3.076   1.147  -0.578  0.00  0.00    +0.039 A 
ATOM      2  C   UNL     1       4.073   1.130  -1.566  0.00  0.00    +0.025 A 
ATOM      3  C   UNL     1       4.653   2.306  -2.046  0.00  0.00    +0.017 A 
ATOM      4  C   UNL     1       4.278   3.547  -1.532  0.00  0.00    +0.016 A 
ATOM      5  C   UNL     1       3.351   3.578  -0.487  0.00  0.00    +0.030 A 
ATOM      6  C   UNL     1       2.717   2.404  -0.026  0.00  0.00    +0.059 A 
ENDROOT
BRANCH   6   7
ATOM      7  C   UNL     1       1.673   2.499   1.060  0.00  0.00    +0.252 C 
ATOM      8  N   UNL     1       1.034   3.719   1.181  0.00  0.00    -0.261 N 
ATOM      9  H   UNL     1       1.206   4.487   0.552  0.00  0.00    +0.157 HD
ATOM     10  C   UNL     1       0.126   3.966   2.177  0.00  0.00    +0.165 A 
ATOM     11  S   UNL     1      -0.379   5.595   2.267  0.00  0.00    -0.060 S 
ATOM     12  C   UNL     1      -1.335   5.202   3.638  0.00  0.00    +0.071 A 
ATOM     13  C   UNL     1      -1.252   3.845   3.894  0.00  0.00    +0.047 A 
ATOM     14  C   UNL     1      -1.982   3.095   4.947  0.00  0.00    +0.066 C 
ATOM     15  N   UNL     1      -0.389   3.154   3.063  0.00  0.00    -0.230 NA
ATOM     16  O   UNL     1       1.447   1.506   1.746  0.00  0.00    -0.270 OA
ENDBRANCH   6   7
BRANCH   1  18
ATOM     17  C   UNL     1       2.362  -1.179  -1.012  0.00  0.00    +0.125 C 
ATOM     18  N   UNL     1       2.546  -0.061  -0.107  0.00  0.00    -0.346 N 
ATOM     19  H   UNL     1       1.788   0.080   0.573  0.00  0.00    +0.146 HD
ENDBRANCH   1  18
BRANCH   4  20
ATOM     20  S   UNL     1       5.115   4.984  -2.175  0.00  0.00    -0.050 S 
BRANCH  20  21
ATOM     21  C   UNL     1       3.884   6.197  -2.243  0.00  0.00    +0.196 A 
ATOM     22  N   UNL     1       4.088   7.411  -2.842  0.00  0.00    -0.311 N 
ATOM     23  C   UNL     1       5.226   7.853  -3.598  0.00  0.00    +0.152 C 
ATOM     24  C   UNL     1       2.966   8.144  -2.586  0.00  0.00    +0.225 A 
ATOM     25  N   UNL     1       2.100   7.408  -1.926  0.00  0.00    -0.137 NA
ATOM     26  N   UNL     1       2.679   6.174  -1.720  0.00  0.00    -0.122 NA
ENDBRANCH  20  21
ENDBRANCH   4  20
TORSDOF 4
