REMARK  Name = 
REMARK  10 active torsions:
REMARK  status: ('A' for Active; 'I' for Inactive)
REMARK    1  A    between atoms: C_2  and  C_3
REMARK    2  A    between atoms: C_2  and  N_4
REMARK    3  A    between atoms: C_2  and  C_30
REMARK    4  A    between atoms: N_11  and  C_22
REMARK    5  A    between atoms: N_14  and  C_15
REMARK    6  A    between atoms: C_25  and  O_26
REMARK    7  A    between atoms: O_26  and  C_27
REMARK    8  A    between atoms: C_30  and  C_31
REMARK    9  A    between atoms: C_30  and  C_32
REMARK   10  A    between atoms: C_30  and  O_33
REMARK                            x       y       z     vdW  Elec       q    Type
REMARK                         _______ _______ _______ _____ _____    ______ ____
ROOT
ATOM      1  N   UNL     1       4.481  -2.486   0.588  0.00  0.00    -0.308 N 
ATOM      2  H   UNL     1       4.111  -2.763  -0.315  0.00  0.00    +0.149 HD
ATOM      3  C   UNL     1       3.424  -2.679   1.459  0.00  0.00    +0.217 A 
ATOM      4  N   UNL     1       3.390  -2.122   2.668  0.00  0.00    -0.199 NA
ATOM      5  C   UNL     1       2.421  -2.528   3.520  0.00  0.00    +0.138 A 
ATOM      6  N   UNL     1       2.369  -1.933   4.812  0.00  0.00    -0.208 N 
ATOM      7  C   UNL     1       2.304  -2.692   5.995  0.00  0.00    +0.316 C 
ATOM      8  N   UNL     1       2.994  -3.894   5.946  0.00  0.00    -0.267 N 
ATOM      9  H   UNL     1       3.302  -4.234   5.044  0.00  0.00    +0.156 HD
ATOM     10  O   UNL     1       1.722  -2.300   7.007  0.00  0.00    -0.252 OA
ATOM     11  C   UNL     1       1.462  -3.452   3.162  0.00  0.00    +0.064 A 
ATOM     12  C   UNL     1       1.519  -3.884   1.862  0.00  0.00    +0.118 A 
ATOM     13  N   UNL     1       2.486  -3.517   1.004  0.00  0.00    -0.223 NA
ENDROOT
BRANCH   8  14
ATOM     14  C   UNL     1       3.297  -4.744   7.042  0.00  0.00    +0.053 A 
ATOM     15  C   UNL     1       3.767  -6.043   6.780  0.00  0.00    +0.062 A 
ATOM     16 CL   UNL     1       3.979  -6.600   5.154  0.00  0.00    -0.082 Cl
ATOM     17  C   UNL     1       4.056  -6.928   7.825  0.00  0.00    +0.022 A 
ATOM     18  C   UNL     1       3.906  -6.519   9.147  0.00  0.00    +0.002 A 
ATOM     19  C   UNL     1       3.484  -5.221   9.422  0.00  0.00    +0.002 A 
ATOM     20  C   UNL     1       3.184  -4.340   8.379  0.00  0.00    +0.025 A 
ENDBRANCH   8  14
BRANCH   6  21
ATOM     21  C   UNL     1       2.230  -0.499   4.855  0.00  0.00    +0.044 A 
ATOM     22  C   UNL     1       1.714   0.240   3.776  0.00  0.00    +0.027 A 
ATOM     23  C   UNL     1       1.543   1.630   3.859  0.00  0.00    +0.047 A 
ATOM     24  C   UNL     1       1.895   2.312   5.019  0.00  0.00    +0.120 A 
ATOM     25  C   UNL     1       2.408   1.600   6.096  0.00  0.00    +0.047 A 
ATOM     26  C   UNL     1       2.584   0.214   6.012  0.00  0.00    +0.027 A 
BRANCH  24  27
ATOM     27  O   UNL     1       1.721   3.650   5.238  0.00  0.00    -0.495 OA
ATOM     28  C   UNL     1       1.818   4.483   4.090  0.00  0.00    +0.277 C 
ENDBRANCH  24  27
ENDBRANCH   6  21
BRANCH   1  29
ATOM     29  C   UNL     1       5.249  -1.233   0.639  0.00  0.00    +0.101 C 
ATOM     30  C   UNL     1       6.279  -1.339   1.778  0.00  0.00    +0.031 C 
BRANCH  29  31
ATOM     31  C   UNL     1       5.960  -1.029  -0.757  0.00  0.00    +0.078 C 
ATOM     32  C   UNL     1       6.871   0.206  -0.783  0.00  0.00    +0.043 C 
ATOM     33  C   UNL     1       4.951  -0.899  -1.908  0.00  0.00    +0.043 C 
BRANCH  31  34
ATOM     34  O   UNL     1       6.783  -2.169  -1.051  0.00  0.00    -0.387 OA
ATOM     35  H   UNL     1       6.349  -2.938  -0.633  0.00  0.00    +0.210 HD
ENDBRANCH  31  34
ENDBRANCH  29  31
ENDBRANCH   1  29
TORSDOF 6
