REMARK  Name = 
REMARK  12 active torsions:
REMARK  status: ('A' for Active; 'I' for Inactive)
REMARK    1  A    between atoms: C_2  and  C_3
REMARK    2  A    between atoms: C_2  and  C_4
REMARK    3  A    between atoms: C_2  and  C_8
REMARK    4  A    between atoms: C_4  and  C_5
REMARK    5  A    between atoms: C_5  and  O_6
REMARK    6  A    between atoms: C_9  and  C_10
REMARK    7  A    between atoms: C_11  and  C_12
REMARK    8  A    between atoms: C_11  and  C_13
REMARK    9  A    between atoms: C_14  and  C_15
REMARK   10  A    between atoms: C_16  and  C_17
REMARK   11  A    between atoms: C_19  and  O_20
REMARK   12  A    between atoms: C_22  and  C_23
REMARK                            x       y       z     vdW  Elec       q    Type
REMARK                         _______ _______ _______ _____ _____    ______ ____
ROOT
ATOM      1  C   UNL     1       4.512   1.852   2.239  0.00  0.00    +0.003 C 
ATOM      2  C   UNL     1       5.836   2.035   2.426  0.00  0.00    -0.050 C 
ATOM      3  C   UNL     1       6.921   1.353   1.624  0.00  0.00    +0.044 C 
ENDROOT
BRANCH   1   5
ATOM      4  C   UNL     1       2.568   0.817   1.146  0.00  0.00    -0.023 C 
ATOM      5  C   UNL     1       3.894   1.002   1.247  0.00  0.00    -0.004 C 
BRANCH   4   6
ATOM      6  C   UNL     1       1.960  -0.069   0.079  0.00  0.00    +0.019 C 
ATOM      7  C   UNL     1       1.827  -1.492   0.634  0.00  0.00    +0.012 C 
BRANCH   6   8
ATOM      8  C   UNL     1       0.595   0.436  -0.406  0.00  0.00    +0.127 C 
BRANCH   8   9
ATOM      9  C   UNL     1       0.511   1.767  -1.124  0.00  0.00    +0.305 C 
ATOM     10  O   UNL     1      -0.559   2.202  -1.535  0.00  0.00    -0.251 OA
BRANCH   9  11
ATOM     11  O   UNL     1       1.650   2.454  -1.310  0.00  0.00    -0.481 OA
ATOM     12  H   UNL     1       2.459   2.082  -0.915  0.00  0.00    +0.295 HD
ENDBRANCH   9  11
ENDBRANCH   8   9
ENDBRANCH   6   8
ENDBRANCH   4   6
ENDBRANCH   1   5
BRANCH   2  13
ATOM     13  C   UNL     1       6.274   2.971   3.467  0.00  0.00    +0.004 C 
ATOM     14  C   UNL     1       7.550   3.238   3.790  0.00  0.00    +0.009 C 
BRANCH  14  15
ATOM     15  C   UNL     1       7.920   4.231   4.808  0.00  0.00    -0.019 A 
ATOM     16  C   UNL     1       8.127   5.576   4.417  0.00  0.00    -0.040 A 
ATOM     17  C   UNL     1       7.895   6.036   3.001  0.00  0.00    +0.044 C 
ATOM     18  C   UNL     1       8.556   6.511   5.369  0.00  0.00    +0.049 A 
ATOM     19  C   UNL     1       8.774   6.123   6.683  0.00  0.00    +0.117 A 
ATOM     20  C   UNL     1       8.550   4.811   7.084  0.00  0.00    +0.049 A 
ATOM     21  C   UNL     1       8.111   3.851   6.156  0.00  0.00    -0.040 A 
ATOM     22  C   UNL     1       7.892   2.449   6.661  0.00  0.00    +0.044 C 
BRANCH  19  23
ATOM     23  O   UNL     1       9.213   7.070   7.560  0.00  0.00    -0.507 OA
ATOM     24  H   UNL     1       9.350   6.651   8.426  0.00  0.00    +0.292 HD
ENDBRANCH  19  23
ENDBRANCH  14  15
ENDBRANCH   2  13
TORSDOF 8
