REMARK  Name = 
REMARK  9 active torsions:
REMARK  status: ('A' for Active; 'I' for Inactive)
REMARK    1  A    between atoms: C_2  and  O_3
REMARK    2  A    between atoms: C_5  and  N_16
REMARK    3  A    between atoms: C_8  and  C_10
REMARK    4  A    between atoms: C_10  and  O_11
REMARK    5  A    between atoms: O_11  and  P_12
REMARK    6  A    between atoms: P_12  and  O_13
REMARK    7  A    between atoms: P_12  and  O_14
REMARK    8  A    between atoms: N_23  and  C_24
REMARK    9  A    between atoms: C_24  and  C_25
REMARK                            x       y       z     vdW  Elec       q    Type
REMARK                         _______ _______ _______ _____ _____    ______ ____
ROOT
ATOM      1  N   UNL     1       5.069   0.994   0.082  0.00  0.00    -0.288 N 
ATOM      2  C   UNL     1       5.494   2.185  -0.463  0.00  0.00    +0.171 A 
ATOM      3  N   UNL     1       5.194   3.443  -0.054  0.00  0.00    -0.196 NA
ATOM      4  C   UNL     1       5.618   4.384  -0.864  0.00  0.00    +0.198 A 
ATOM      5  N   UNL     1       6.337   4.122  -2.015  0.00  0.00    -0.293 N 
ATOM      6  H   UNL     1       6.734   4.885  -2.534  0.00  0.00    +0.172 HD
ATOM      7  C   UNL     1       6.756   2.865  -2.415  0.00  0.00    +0.280 A 
ATOM      8  O   UNL     1       7.474   2.699  -3.396  0.00  0.00    -0.265 OA
ATOM      9  N   UNL     1       5.377   5.685  -0.548  0.00  0.00    -0.311 N 
ATOM     10  H   UNL     1       5.082   5.868   0.407  0.00  0.00    +0.149 HD
ATOM     11  C   UNL     1       6.252   1.819  -1.555  0.00  0.00    +0.172 A 
ATOM     12  N   UNL     1       6.391   0.461  -1.649  0.00  0.00    -0.229 NA
ATOM     13  C   UNL     1       5.670  -0.006  -0.654  0.00  0.00    +0.203 A 
ENDROOT
BRANCH   1  17
ATOM     14  C   UNL     1       5.221   0.165   3.032  0.00  0.00    +0.150 C 
ATOM     15  C   UNL     1       4.709   1.597   3.193  0.00  0.00    +0.175 C 
ATOM     16  O   UNL     1       3.991   1.910   1.984  0.00  0.00    -0.348 OA
ATOM     17  C   UNL     1       4.045   0.779   1.095  0.00  0.00    +0.225 C 
ATOM     18  C   UNL     1       4.260  -0.412   2.019  0.00  0.00    +0.088 C 
BRANCH  14  19
ATOM     19  O   UNL     1       5.235  -0.566   4.244  0.00  0.00    -0.389 OA
ATOM     20  H   UNL     1       4.326  -0.633   4.588  0.00  0.00    +0.210 HD
ENDBRANCH  14  19
BRANCH  15  21
ATOM     21  C   UNL     1       5.856   2.586   3.407  0.00  0.00    +0.206 C 
BRANCH  21  22
ATOM     22  O   UNL     1       5.355   3.922   3.514  0.00  0.00    -0.284 OA
BRANCH  22  23
ATOM     23  P   UNL     1       6.608   5.094   3.736  0.00  0.00    +0.472 P 
ATOM     24  O   UNL     1       7.729   6.144   3.934  0.00  0.00    -0.228 OA
BRANCH  23  25
ATOM     25  O   UNL     1       5.394   6.153   4.020  0.00  0.00    -0.303 OA
ATOM     26  H   UNL     1       5.659   6.746   4.745  0.00  0.00    +0.222 HD
ENDBRANCH  23  25
BRANCH  23  27
ATOM     27  O   UNL     1       6.580   5.221   2.108  0.00  0.00    -0.303 OA
ATOM     28  H   UNL     1       5.881   4.626   1.762  0.00  0.00    +0.222 HD
ENDBRANCH  23  27
ENDBRANCH  22  23
ENDBRANCH  21  22
ENDBRANCH  15  21
ENDBRANCH   1  17
BRANCH   9  29
ATOM     29  C   UNL     1       5.205   6.798  -1.446  0.00  0.00    +0.140 C 
BRANCH  29  30
ATOM     30  C   UNL     1       6.513   7.518  -1.677  0.00  0.00    -0.023 A 
ATOM     31  C   UNL     1       7.094   7.698  -2.967  0.00  0.00    -0.013 A 
ATOM     32  C   UNL     1       6.568   7.162  -4.172  0.00  0.00    +0.009 A 
ATOM     33  C   UNL     1       7.192   7.363  -5.406  0.00  0.00    +0.001 A 
ATOM     34  C   UNL     1       8.353   8.120  -5.480  0.00  0.00    +0.001 A 
ATOM     35  C   UNL     1       8.893   8.666  -4.317  0.00  0.00    +0.008 A 
ATOM     36  C   UNL     1       8.291   8.457  -3.065  0.00  0.00    -0.018 A 
ATOM     37  C   UNL     1       8.884   8.998  -1.918  0.00  0.00    +0.008 A 
ATOM     38  C   UNL     1       8.327   8.794  -0.663  0.00  0.00    +0.001 A 
ATOM     39  C   UNL     1       7.153   8.064  -0.542  0.00  0.00    +0.006 A 
ENDBRANCH  29  30
ENDBRANCH   9  29
TORSDOF 9
