REMARK  Name = 
REMARK  13 active torsions:
REMARK  status: ('A' for Active; 'I' for Inactive)
REMARK    1  A    between atoms: C_2  and  C_3
REMARK    2  A    between atoms: C_2  and  N_8
REMARK    3  A    between atoms: C_2  and  C_33
REMARK    4  A    between atoms: C_3  and  C_4
REMARK    5  A    between atoms: C_4  and  C_5
REMARK    6  A    between atoms: C_5  and  O_6
REMARK    7  A    between atoms: N_8  and  S_9
REMARK    8  A    between atoms: S_9  and  C_12
REMARK    9  A    between atoms: C_19  and  O_20
REMARK   10  A    between atoms: O_20  and  C_21
REMARK   11  A    between atoms: C_21  and  C_22
REMARK   12  A    between atoms: C_26  and  C_29
REMARK   13  A    between atoms: C_33  and  O_34
REMARK                            x       y       z     vdW  Elec       q    Type
REMARK                         _______ _______ _______ _____ _____    ______ ____
ROOT
ATOM      1  C   UNL     1       2.605   3.338   2.444  0.00  0.00    +0.106 A 
ATOM      2  C   UNL     1       2.341   4.704   2.502  0.00  0.00    +0.029 A 
ATOM      3  C   UNL     1       2.701   5.415   3.640  0.00  0.00    +0.010 A 
ATOM      4  C   UNL     1       3.334   4.772   4.713  0.00  0.00    -0.014 A 
ATOM      5  C   UNL     1       3.682   5.500   5.850  0.00  0.00    +0.054 A 
ATOM      6  C   UNL     1       4.290   4.879   6.943  0.00  0.00    +0.122 A 
ATOM      7  C   UNL     1       4.603   3.523   6.878  0.00  0.00    +0.046 A 
ATOM      8  C   UNL     1       4.251   2.775   5.750  0.00  0.00    +0.012 A 
ATOM      9  C   UNL     1       3.608   3.388   4.659  0.00  0.00    -0.016 A 
ATOM     10  C   UNL     1       3.219   2.673   3.517  0.00  0.00    +0.037 A 
ENDROOT
BRANCH   1  11
ATOM     11  S   UNL     1       2.034   2.399   1.055  0.00  0.00    +0.059 S 
ATOM     12  O   UNL     1       1.809   1.053   1.514  0.00  0.00    -0.153 OA
ATOM     13  O   UNL     1       1.021   3.176   0.376  0.00  0.00    -0.153 OA
BRANCH  11  14
ATOM     14  N   UNL     1       3.387   2.406   0.040  0.00  0.00    -0.176 NA
ATOM     15  H   UNL     1       3.073   2.587  -0.921  0.00  0.00    +0.149 HD
BRANCH  14  16
ATOM     16  C   UNL     1       4.327   1.265   0.168  0.00  0.00    +0.185 C 
BRANCH  16  17
ATOM     17  C   UNL     1       3.650  -0.022  -0.315  0.00  0.00    +0.324 C 
ATOM     18  O   UNL     1       3.171  -0.144  -1.436  0.00  0.00    -0.249 OA
BRANCH  17  19
ATOM     19  O   UNL     1       3.622  -1.020   0.595  0.00  0.00    -0.479 OA
ATOM     20  H   UNL     1       3.790  -0.738   1.514  0.00  0.00    +0.295 HD
ENDBRANCH  17  19
ENDBRANCH  16  17
BRANCH  16  21
ATOM     21  C   UNL     1       5.565   1.519  -0.706  0.00  0.00    +0.043 C 
BRANCH  21  22
ATOM     22  C   UNL     1       6.353   2.759  -0.279  0.00  0.00    +0.122 C 
BRANCH  22  23
ATOM     23  C   UNL     1       7.599   2.941  -1.115  0.00  0.00    +0.305 C 
ATOM     24  O   UNL     1       8.215   2.033  -1.648  0.00  0.00    -0.251 OA
BRANCH  23  25
ATOM     25  O   UNL     1       8.010   4.227  -1.176  0.00  0.00    -0.481 OA
ATOM     26  H   UNL     1       7.444   4.861  -0.698  0.00  0.00    +0.295 HD
ENDBRANCH  23  25
ENDBRANCH  22  23
ENDBRANCH  21  22
ENDBRANCH  16  21
ENDBRANCH  14  16
ENDBRANCH  11  14
ENDBRANCH   1  11
BRANCH   6  27
ATOM     27  O   UNL     1       4.607   5.523   8.110  0.00  0.00    -0.487 OA
BRANCH  27  28
ATOM     28  C   UNL     1       3.833   6.702   8.349  0.00  0.00    +0.267 C 
BRANCH  28  29
ATOM     29  C   UNL     1       3.940   7.093   9.793  0.00  0.00    +0.025 A 
ATOM     30  C   UNL     1       5.170   7.472  10.345  0.00  0.00    +0.011 A 
ATOM     31  C   UNL     1       5.242   7.868  11.680  0.00  0.00    +0.019 A 
ATOM     32  C   UNL     1       4.087   7.886  12.471  0.00  0.00    +0.055 A 
ATOM     33  C   UNL     1       2.860   7.507  11.927  0.00  0.00    +0.057 A 
ATOM     34  C   UNL     1       2.798   7.116  10.597  0.00  0.00    +0.131 A 
ATOM     35  F   UNL     1       1.608   6.772  10.085  0.00  0.00    -0.205 F 
BRANCH  32  36
ATOM     36  C   UNL     1       4.164   8.297  13.840  0.00  0.00    +0.099 C 
ATOM     37  N   UNL     1       4.229   8.631  14.948  0.00  0.00    -0.191 NA
ENDBRANCH  32  36
ENDBRANCH  28  29
ENDBRANCH  27  28
ENDBRANCH   6  27
TORSDOF 13
