REMARK  Name = 
REMARK  7 active torsions:
REMARK  status: ('A' for Active; 'I' for Inactive)
REMARK    1  A    between atoms: CA_2  and  N_3
REMARK    2  A    between atoms: CA_2  and  C_4
REMARK    3  A    between atoms: CA_2  and  C_16
REMARK    4  A    between atoms: C_4  and  C_5
REMARK    5  A    between atoms: C_8  and  C_9
REMARK    6  A    between atoms: C_9  and  C_10
REMARK    7  A    between atoms: C_16  and  O_17
REMARK                            x       y       z     vdW  Elec       q    Type
REMARK                         _______ _______ _______ _____ _____    ______ ____
ROOT
ATOM      1  C   UNL     1       2.113  -0.830  -2.324  0.00  0.00    -0.045 A 
ATOM      2  C   UNL     1       1.712  -0.494  -3.625  0.00  0.00    +0.004 A 
ATOM      3  C   UNL     1       1.512  -1.486  -4.588  0.00  0.00    +0.004 A 
ATOM      4  C   UNL     1       1.707  -2.834  -4.265  0.00  0.00    -0.039 A 
ATOM      5  C   UNL     1       2.005  -3.177  -2.944  0.00  0.00    +0.004 A 
ATOM      6  C   UNL     1       2.187  -2.185  -1.979  0.00  0.00    +0.004 A 
ENDROOT
BRANCH   1   7
ATOM      7  C   UNL     1       2.464   0.271  -1.345  0.00  0.00    +0.065 C 
BRANCH   7   8
ATOM      8  CA  UNL     1       3.633  -0.019  -0.378  0.00  0.00    +0.165 C 
BRANCH   8   9
ATOM      9  N   UNL     1       3.768   1.109   0.578  0.00  0.00    -0.318 NA
ATOM     10  H1  UNL     1       4.442   0.932   1.319  0.00  0.00    +0.119 HD
ATOM     11  H2  UNL     1       3.847   2.023   0.142  0.00  0.00    +0.119 HD
ENDBRANCH   8   9
BRANCH   8  12
ATOM     12  C   UNL     1       4.958  -0.294  -1.132  0.00  0.00    +0.322 C 
ATOM     13  OXT UNL     1       5.168  -1.246  -1.866  0.00  0.00    -0.249 OA
BRANCH  12  14
ATOM     14  O   UNL     1       5.928   0.622  -0.881  0.00  0.00    -0.480 OA
ATOM     15  H   UNL     1       5.607   1.284  -0.242  0.00  0.00    +0.295 HD
ENDBRANCH  12  14
ENDBRANCH   8  12
ENDBRANCH   7   8
ENDBRANCH   1   7
BRANCH   4  16
ATOM     16  C   UNL     1       1.638  -3.898  -5.331  0.00  0.00    +0.148 C 
BRANCH  16  17
ATOM     17  C   UNL     1       0.305  -4.614  -5.465  0.00  0.00    +0.394 C 
ATOM     18  F   UNL     1       0.435  -5.927  -5.156  0.00  0.00    -0.170 F 
ATOM     19  F   UNL     1      -0.138  -4.550  -6.744  0.00  0.00    -0.170 F 
ATOM     20  F   UNL     1      -0.667  -4.108  -4.679  0.00  0.00    -0.170 F 
ENDBRANCH  16  17
ENDBRANCH   4  16
TORSDOF 7
