REMARK  Name = 
REMARK  6 active torsions:
REMARK  status: ('A' for Active; 'I' for Inactive)
REMARK    1  A    between atoms: O_1  and  C_2
REMARK    2  A    between atoms: C_2  and  C_4
REMARK    3  A    between atoms: C_4  and  C_6
REMARK    4  A    between atoms: C_6  and  C_7
REMARK    5  A    between atoms: C_7  and  C_8
REMARK    6  A    between atoms: C_8  and  C_9
REMARK                            x       y       z     vdW  Elec       q    Type
REMARK                         _______ _______ _______ _____ _____    ______ ____
ROOT
ATOM      1  C   UNL     1       5.197   2.590   0.961  0.00  0.00    +0.013 C 
ENDROOT
BRANCH   1   2
ATOM      2  C   UNL     1       4.691   1.211   0.541  0.00  0.00    +0.087 C 
BRANCH   2   3
ATOM      3  C   UNL     1       3.183   1.172   0.527  0.00  0.00    +0.239 C 
ATOM      4  O   UNL     1       2.427   2.099   0.809  0.00  0.00    -0.285 OA
BRANCH   3   5
ATOM      5  C   UNL     1       2.527  -0.145   0.122  0.00  0.00    +0.373 C 
ATOM      6  O   UNL     1       3.155  -1.140  -0.178  0.00  0.00    -0.242 OA
BRANCH   5   7
ATOM      7  O   UNL     1       1.186  -0.028   0.150  0.00  0.00    -0.475 OA
ATOM      8  H   UNL     1       0.952   0.890   0.430  0.00  0.00    +0.295 HD
ENDBRANCH   5   7
ENDBRANCH   3   5
ENDBRANCH   2   3
ENDBRANCH   1   2
BRANCH   1   9
ATOM      9  C   UNL     1       6.724   2.663   0.996  0.00  0.00    +0.035 C 
BRANCH   9  10
ATOM     10  C   UNL     1       7.194   4.039   1.401  0.00  0.00    -0.047 A 
ATOM     11  C   UNL     1       7.361   5.044   0.438  0.00  0.00    +0.003 A 
ATOM     12  C   UNL     1       7.763   6.327   0.815  0.00  0.00    +0.000 A 
ATOM     13  C   UNL     1       7.998   6.620   2.157  0.00  0.00    +0.000 A 
ATOM     14  C   UNL     1       7.831   5.630   3.123  0.00  0.00    +0.000 A 
ATOM     15  C   UNL     1       7.429   4.346   2.748  0.00  0.00    +0.003 A 
ENDBRANCH   9  10
ENDBRANCH   1   9
TORSDOF 6
