REMARK  Name = 
REMARK  12 active torsions:
REMARK  status: ('A' for Active; 'I' for Inactive)
REMARK    1  A    between atoms: C_2  and  C_3
REMARK    2  A    between atoms: C_2  and  N_7
REMARK    3  A    between atoms: C_2  and  C_11
REMARK    4  A    between atoms: C_3  and  C_4
REMARK    5  A    between atoms: C_4  and  C_5
REMARK    6  A    between atoms: C_4  and  C_6
REMARK    7  A    between atoms: C_8  and  C_9
REMARK    8  A    between atoms: N_13  and  C_14
REMARK    9  A    between atoms: C_14  and  C_16
REMARK   10  A    between atoms: C_14  and  C_23
REMARK   11  A    between atoms: C_16  and  C_17
REMARK   12  A    between atoms: C_23  and  C_25
REMARK                            x       y       z     vdW  Elec       q    Type
REMARK                         _______ _______ _______ _____ _____    ______ ____
ROOT
ATOM      1  C   UNL     1       2.798  -0.845   1.215  0.00  0.00    +0.234 C 
ATOM      2  N   UNL     1       3.969  -1.483   0.881  0.00  0.00    -0.304 N 
ATOM      3  H   UNL     1       4.521  -1.076   0.132  0.00  0.00    +0.149 HD
ATOM      4  O   UNL     1       2.191  -1.115   2.247  0.00  0.00    -0.274 OA
ENDROOT
BRANCH   1   5
ATOM      5  C   UNL     1       2.333   0.229   0.179  0.00  0.00    +0.159 C 
BRANCH   5   6
ATOM      6  N   UNL     1       3.236   0.217  -0.998  0.00  0.00    -0.304 N 
ATOM      7  H   UNL     1       3.135  -0.543  -1.656  0.00  0.00    +0.149 HD
ATOM      8  C   UNL     1       4.383   0.977  -1.051  0.00  0.00    +0.211 C 
ATOM      9  O   UNL     1       4.696   1.786  -0.189  0.00  0.00    -0.276 OA
ATOM     10  C   UNL     1       5.281   0.646  -2.218  0.00  0.00    +0.109 C 
ENDBRANCH   5   6
BRANCH   5  11
ATOM     11  C   UNL     1       0.899  -0.015  -0.333  0.00  0.00    +0.034 C 
BRANCH  11  12
ATOM     12  C   UNL     1      -0.257   0.024   0.688  0.00  0.00    -0.015 C 
ATOM     13  C   UNL     1      -1.584  -0.276  -0.023  0.00  0.00    +0.007 C 
ATOM     14  C   UNL     1      -0.375   1.360   1.421  0.00  0.00    +0.007 C 
ENDBRANCH  11  12
ENDBRANCH   5  11
ENDBRANCH   1   5
BRANCH   2  15
ATOM     15  C   UNL     1       4.631  -2.544   1.646  0.00  0.00    +0.153 C 
BRANCH  15  16
ATOM     16  C   UNL     1       6.096  -2.535   1.194  0.00  0.00    +0.256 C 
ATOM     17  O   UNL     1       6.465  -1.798   0.266  0.00  0.00    -0.286 OA
BRANCH  16  18
ATOM     18  C   UNL     1       7.050  -3.440   1.948  0.00  0.00    +0.453 C 
ATOM     19  F   UNL     1       8.080  -2.751   2.511  0.00  0.00    -0.163 F 
ATOM     20  F   UNL     1       7.610  -4.382   1.141  0.00  0.00    -0.163 F 
ATOM     21  F   UNL     1       6.455  -4.119   2.966  0.00  0.00    -0.163 F 
ENDBRANCH  16  18
ENDBRANCH  15  16
BRANCH  15  22
ATOM     22  C   UNL     1       3.951  -3.914   1.457  0.00  0.00    +0.065 C 
BRANCH  22  23
ATOM     23  C   UNL     1       4.026  -4.508   0.064  0.00  0.00    -0.045 A 
ATOM     24  C   UNL     1       3.372  -3.897  -1.015  0.00  0.00    +0.004 A 
ATOM     25  C   UNL     1       3.412  -4.460  -2.291  0.00  0.00    +0.000 A 
ATOM     26  C   UNL     1       4.088  -5.658  -2.500  0.00  0.00    +0.000 A 
ATOM     27  C   UNL     1       4.731  -6.286  -1.436  0.00  0.00    +0.000 A 
ATOM     28  C   UNL     1       4.706  -5.714  -0.162  0.00  0.00    +0.004 A 
ENDBRANCH  22  23
ENDBRANCH  15  22
ENDBRANCH   2  15
TORSDOF 9
