REMARK  Name = 
REMARK  4 active torsions:
REMARK  status: ('A' for Active; 'I' for Inactive)
REMARK    1  A    between atoms: O_1  and  C_2
REMARK    2  A    between atoms: C_12  and  O_13
REMARK    3  A    between atoms: C_14  and  O_15
REMARK    4  A    between atoms: C_21  and  O_22
REMARK                            x       y       z     vdW  Elec       q    Type
REMARK                         _______ _______ _______ _____ _____    ______ ____
ROOT
ATOM      1  C   UNL     1       2.408  -0.080   0.066  0.00  0.00    +0.163 A 
ATOM      2  C   UNL     1       3.155   1.098   0.067  0.00  0.00    +0.202 A 
ATOM      3  C   UNL     1       4.545   1.022   0.069  0.00  0.00    +0.185 A 
ATOM      4  O   UNL     1       5.291   2.223   0.070  0.00  0.00    -0.418 OA
ATOM      5  C   UNL     1       6.687   2.249   0.072  0.00  0.00    +0.345 A 
ATOM      6  C   UNL     1       7.383   0.936   0.074  0.00  0.00    +0.074 A 
ATOM      7  C   UNL     1       6.633  -0.242   0.074  0.00  0.00    +0.047 A 
ATOM      8  C   UNL     1       7.284  -1.471   0.077  0.00  0.00    +0.185 A 
ATOM      9  O   UNL     1       6.532  -2.667   0.078  0.00  0.00    -0.418 OA
ATOM     10  C   UNL     1       5.138  -2.694   0.074  0.00  0.00    +0.345 A 
ATOM     11  O   UNL     1       4.503  -3.740   0.074  0.00  0.00    -0.244 OA
ATOM     12  C   UNL     1       4.448  -1.379   0.072  0.00  0.00    +0.074 A 
ATOM     13  C   UNL     1       8.671  -1.535   0.079  0.00  0.00    +0.202 A 
ATOM     14  C   UNL     1       9.417  -0.357   0.079  0.00  0.00    +0.163 A 
ATOM     15  C   UNL     1       8.785   0.885   0.076  0.00  0.00    +0.065 A 
ATOM     16  O   UNL     1       7.314   3.300   0.072  0.00  0.00    -0.244 OA
ATOM     17  C   UNL     1       5.199  -0.204   0.072  0.00  0.00    +0.047 A 
ATOM     18  C   UNL     1       3.047  -1.322   0.069  0.00  0.00    +0.065 A 
ENDROOT
BRANCH   1  19
ATOM     19  O   UNL     1       1.044  -0.008   0.063  0.00  0.00    -0.503 OA
ATOM     20  H   UNL     1       0.666  -0.902   0.063  0.00  0.00    +0.292 HD
ENDBRANCH   1  19
BRANCH   2  21
ATOM     21  O   UNL     1       2.524   2.309   0.064  0.00  0.00    -0.501 OA
ATOM     22  H   UNL     1       3.205   3.004   0.065  0.00  0.00    +0.292 HD
ENDBRANCH   2  21
BRANCH  13  23
ATOM     23  O   UNL     1       9.313  -2.740   0.082  0.00  0.00    -0.501 OA
ATOM     24  H   UNL     1      10.268  -2.527   0.085  0.00  0.00    +0.292 HD
ENDBRANCH  13  23
BRANCH  14  25
ATOM     25  O   UNL     1      10.779  -0.471   0.080  0.00  0.00    -0.503 OA
ATOM     26  H   UNL     1      11.173   0.420   0.075  0.00  0.00    +0.292 HD
ENDBRANCH  14  25
TORSDOF 4
