REMARK  Name = 
REMARK  19 active torsions:
REMARK  status: ('A' for Active; 'I' for Inactive)
REMARK    1  A    between atoms: CA_2  and  CB_3
REMARK    2  A    between atoms: CA_2  and  N_7
REMARK    3  A    between atoms: CA_2  and  C_26
REMARK    4  A    between atoms: CB_3  and  CG_4
REMARK    5  A    between atoms: CG_4  and  CD1_5
REMARK    6  A    between atoms: CG_4  and  CD2_6
REMARK    7  A    between atoms: C_8  and  C_10
REMARK    8  A    between atoms: C_10  and  C_11
REMARK    9  A    between atoms: C_11  and  C_12
REMARK   10  A    between atoms: C_12  and  C_13
REMARK   11  A    between atoms: C_13  and  C_14
REMARK   12  A    between atoms: C_14  and  C_15
REMARK   13  A    between atoms: C_15  and  C_16
REMARK   14  A    between atoms: C_16  and  C_17
REMARK   15  A    between atoms: C_17  and  C_18
REMARK   16  A    between atoms: C_18  and  C_19
REMARK   17  A    between atoms: C_19  and  C_20
REMARK   18  A    between atoms: C_20  and  N_21
REMARK   19  A    between atoms: C_26  and  O_27
REMARK                            x       y       z     vdW  Elec       q    Type
REMARK                         _______ _______ _______ _____ _____    ______ ____
ROOT
ATOM      1  C   UNK A   0       2.141   3.490   3.630  0.00  0.00    +0.009 C 
ENDROOT
BRANCH   1   2
ATOM      2  C   UNK A   0       2.608   2.095   3.224  0.00  0.00    +0.096 C 
BRANCH   2   5
ATOM      3  N   LEU A   1       2.460   0.484   1.425  0.00  0.00    -0.302 N 
ATOM      4  H   LEU A   1       2.915  -0.156   2.071  0.00  0.00    +0.150 HD
ATOM      5  C   UNK A   0       2.089   1.737   1.845  0.00  0.00    +0.214 C 
ATOM      6  O   UNK A   0       1.410   2.489   1.155  0.00  0.00    -0.276 OA
BRANCH   3   7
ATOM      7  CA  LEU A   1       2.003  -0.053   0.151  0.00  0.00    +0.182 C 
BRANCH   7   8
ATOM      8  C   LEU A   1       1.681  -1.544   0.296  0.00  0.00    +0.325 C 
ATOM      9  OXT LEU A   1       1.853  -2.176   1.332  0.00  0.00    -0.249 OA
BRANCH   8  10
ATOM     10  O   LEU A   1       1.168  -2.121  -0.814  0.00  0.00    -0.479 OA
ATOM     11  H   LEU A   1       1.039  -1.513  -1.566  0.00  0.00    +0.295 HD
ENDBRANCH   8  10
ENDBRANCH   7   8
BRANCH   7  12
ATOM     12  CB  LEU A   1       2.984   0.288  -0.981  0.00  0.00    +0.036 C 
BRANCH  12  13
ATOM     13  CG  LEU A   1       4.441  -0.200  -0.819  0.00  0.00    -0.015 C 
ATOM     14  CD2 LEU A   1       5.287   0.345  -1.976  0.00  0.00    +0.007 C 
ATOM     15  CD1 LEU A   1       4.577  -1.722  -0.785  0.00  0.00    +0.007 C 
ENDBRANCH  12  13
ENDBRANCH   7  12
ENDBRANCH   3   7
ENDBRANCH   2   5
ENDBRANCH   1   2
BRANCH   1  16
ATOM     16  C   UNK A   0       2.665   3.896   5.004  0.00  0.00    +0.000 C 
BRANCH  16  17
ATOM     17  C   UNK A   0       2.170   5.297   5.361  0.00  0.00    +0.000 C 
BRANCH  17  18
ATOM     18  C   UNK A   0       2.678   5.738   6.729  0.00  0.00    +0.000 C 
BRANCH  18  19
ATOM     19  C   UNK A   0       2.176   7.140   7.068  0.00  0.00    +0.000 C 
BRANCH  19  20
ATOM     20  C   UNK A   0       2.684   7.585   8.437  0.00  0.00    +0.000 C 
BRANCH  20  21
ATOM     21  C   UNK A   0       2.184   8.985   8.783  0.00  0.00    +0.000 C 
BRANCH  21  22
ATOM     22  C   UNK A   0       2.697   9.421  10.154  0.00  0.00    +0.002 C 
BRANCH  22  23
ATOM     23  C   UNK A   0       2.200  10.820  10.509  0.00  0.00    +0.022 C 
BRANCH  23  24
ATOM     24  C   UNK A   0       2.714  11.252  11.879  0.00  0.00    +0.123 C 
BRANCH  24  25
ATOM     25  N   UNK A   0       2.251  12.576  12.236  0.00  0.00    -0.337 N 
ATOM     26  C   UNK A   0       1.102  12.866  12.914  0.00  0.00    +0.199 A 
ATOM     27  N   UNK A   0       0.962  14.162  13.082  0.00  0.00    -0.244 NA
ATOM     28  C   UNK A   0       2.065  14.724  12.491  0.00  0.00    +0.130 A 
ATOM     29  C   UNK A   0       2.884  13.754  11.961  0.00  0.00    +0.106 A 
ENDBRANCH  24  25
ENDBRANCH  23  24
ENDBRANCH  22  23
ENDBRANCH  21  22
ENDBRANCH  20  21
ENDBRANCH  19  20
ENDBRANCH  18  19
ENDBRANCH  17  18
ENDBRANCH  16  17
ENDBRANCH   1  16
TORSDOF 17
