REMARK  Name = 
REMARK  11 active torsions:
REMARK  status: ('A' for Active; 'I' for Inactive)
REMARK    1  A    between atoms: C_2  and  C_3
REMARK    2  A    between atoms: C_2  and  C_5
REMARK    3  A    between atoms: C_2  and  C_7
REMARK    4  A    between atoms: C_3  and  C_4
REMARK    5  A    between atoms: C_7  and  C_9
REMARK    6  A    between atoms: C_7  and  C_21
REMARK    7  A    between atoms: C_9  and  N_10
REMARK    8  A    between atoms: N_10  and  S_11
REMARK    9  A    between atoms: S_11  and  C_14
REMARK   10  A    between atoms: C_17  and  C_18
REMARK   11  A    between atoms: C_21  and  O_22
REMARK                            x       y       z     vdW  Elec       q    Type
REMARK                         _______ _______ _______ _____ _____    ______ ____
ROOT
ATOM      1  N   UNL     1       0.738  -0.880   2.489  0.00  0.00    -0.189 NA
ATOM      2  H   UNL     1       0.356  -1.217   1.592  0.00  0.00    +0.148 HD
ENDROOT
BRANCH   1   3
ATOM      3  S   UNL     1       0.072  -1.835   3.735  0.00  0.00    +0.058 S 
ATOM      4  O   UNL     1       0.950  -2.966   3.942  0.00  0.00    -0.153 OA
ATOM      5  O   UNL     1      -1.325  -2.006   3.408  0.00  0.00    -0.153 OA
BRANCH   3   6
ATOM      6  C   UNL     1       0.190  -0.757   5.136  0.00  0.00    +0.105 A 
ATOM      7  C   UNL     1       1.360  -0.759   5.901  0.00  0.00    +0.029 A 
ATOM      8  C   UNL     1       1.488   0.132   6.964  0.00  0.00    +0.005 A 
ATOM      9  C   UNL     1       0.444   1.006   7.289  0.00  0.00    -0.050 A 
ATOM     10  C   UNL     1       0.613   1.981   8.415  0.00  0.00    +0.044 C 
ATOM     11  C   UNL     1      -0.746   0.956   6.550  0.00  0.00    +0.005 A 
ATOM     12  C   UNL     1      -0.878   0.073   5.475  0.00  0.00    +0.029 A 
ENDBRANCH   3   6
ENDBRANCH   1   3
BRANCH   1  13
ATOM     13  C   UNL     1       2.210  -0.717   2.499  0.00  0.00    +0.121 C 
BRANCH  13  14
ATOM     14  C   UNL     1       2.724   0.141   1.322  0.00  0.00    +0.123 C 
BRANCH  14  15
ATOM     15  C   UNL     1       2.539  -0.659   0.051  0.00  0.00    +0.310 C 
ATOM     16  O   UNL     1       1.521  -1.280  -0.220  0.00  0.00    -0.251 OA
BRANCH  15  17
ATOM     17  O   UNL     1       3.591  -0.606  -0.792  0.00  0.00    -0.480 OA
ATOM     18  H   UNL     1       4.353  -0.078  -0.487  0.00  0.00    +0.295 HD
ENDBRANCH  15  17
ENDBRANCH  14  15
BRANCH  14  19
ATOM     19  C   UNL     1       2.055   1.528   1.204  0.00  0.00    +0.067 C 
BRANCH  19  20
ATOM     20  C   UNL     1       2.202   2.300   2.499  0.00  0.00    +0.227 C 
ATOM     21  O   UNL     1       3.194   2.215   3.217  0.00  0.00    -0.301 OA
ENDBRANCH  19  20
BRANCH  19  22
ATOM     22  C   UNL     1       2.573   2.409   0.046  0.00  0.00    +0.008 C 
ATOM     23  C   UNL     1       4.038   2.827   0.136  0.00  0.00    +0.004 C 
ENDBRANCH  19  22
ENDBRANCH  14  19
ENDBRANCH  13  14
ENDBRANCH   1  13
TORSDOF 9
