REMARK  Name = 
REMARK  10 active torsions:
REMARK  status: ('A' for Active; 'I' for Inactive)
REMARK    1  A    between atoms: CA_2  and  C_3
REMARK    2  A    between atoms: CA_2  and  N_6
REMARK    3  A    between atoms: CA_2  and  C_14
REMARK    4  A    between atoms: C_3  and  C_4
REMARK    5  A    between atoms: C_4  and  C_5
REMARK    6  A    between atoms: C_7  and  C_9
REMARK    7  A    between atoms: C_9  and  C_10
REMARK    8  A    between atoms: C_10  and  C_11
REMARK    9  A    between atoms: C_11  and  O_12
REMARK   10  A    between atoms: C_14  and  O_15
REMARK                            x       y       z     vdW  Elec       q    Type
REMARK                         _______ _______ _______ _____ _____    ______ ____
ROOT
ATOM      1  N   UNL     1       2.603  -0.106   1.491  0.00  0.00    -0.302 N 
ATOM      2  H   UNL     1       3.594   0.023   1.681  0.00  0.00    +0.150 HD
ATOM      3  C   UNL     1       1.714  -0.129   2.530  0.00  0.00    +0.214 C 
ATOM      4  O   UNL     1       0.493  -0.129   2.397  0.00  0.00    -0.276 OA
ENDROOT
BRANCH   1   5
ATOM      5  CA  UNL     1       2.184  -0.058   0.076  0.00  0.00    +0.182 C 
BRANCH   5   6
ATOM      6  C   UNL     1       2.667  -1.335  -0.637  0.00  0.00    +0.325 C 
ATOM      7  OXT UNL     1       2.785  -1.461  -1.846  0.00  0.00    -0.249 OA
BRANCH   6   8
ATOM      8  O   UNL     1       2.896  -2.364   0.218  0.00  0.00    -0.479 OA
ATOM      9  H   UNL     1       2.644  -2.105   1.126  0.00  0.00    +0.295 HD
ENDBRANCH   6   8
ENDBRANCH   5   6
BRANCH   5  10
ATOM     10  C   UNL     1       2.724   1.188  -0.637  0.00  0.00    +0.033 C 
BRANCH  10  11
ATOM     11  C   UNL     1       2.207   2.498  -0.038  0.00  0.00    -0.001 C 
ATOM     12  C   UNL     1       2.736   3.702  -0.805  0.00  0.00    +0.004 C 
ENDBRANCH  10  11
ENDBRANCH   5  10
ENDBRANCH   1   5
BRANCH   3  13
ATOM     13  C   UNL     1       2.315  -0.099   3.910  0.00  0.00    +0.107 C 
BRANCH  13  14
ATOM     14  C   UNL     1       2.553   1.329   4.358  0.00  0.00    +0.129 C 
BRANCH  14  15
ATOM     15  C   UNL     1       1.349   2.211   4.614  0.00  0.00    +0.305 C 
ATOM     16  O   UNL     1       1.487   3.329   5.097  0.00  0.00    -0.251 OA
BRANCH  15  17
ATOM     17  O   UNL     1       0.132   1.749   4.289  0.00  0.00    -0.481 OA
ATOM     18  H   UNL     1       0.043   0.920   3.770  0.00  0.00    +0.295 HD
ENDBRANCH  15  17
ENDBRANCH  14  15
ENDBRANCH  13  14
ENDBRANCH   3  13
TORSDOF 9
