REMARK  Name = 
REMARK  10 active torsions:
REMARK  status: ('A' for Active; 'I' for Inactive)
REMARK    1  A    between atoms: O_1  and  C_2
REMARK    2  A    between atoms: C_2  and  C_3
REMARK    3  A    between atoms: C_3  and  O_4
REMARK    4  A    between atoms: C_3  and  C_5
REMARK    5  A    between atoms: C_5  and  O_6
REMARK    6  A    between atoms: O_6  and  C_7
REMARK    7  A    between atoms: C_7  and  C_9
REMARK    8  A    between atoms: C_14  and  N_15
REMARK    9  A    between atoms: N_15  and  C_16
REMARK   10  A    between atoms: C_21  and  C_26
REMARK                            x       y       z     vdW  Elec       q    Type
REMARK                         _______ _______ _______ _____ _____    ______ ____
ROOT
ATOM      1  C   UNL     1       7.096  -4.007   0.810  0.00  0.00    +0.080 A 
ATOM      2  C   UNL     1       6.176  -5.110   0.655  0.00  0.00    +0.045 A 
ATOM      3  C   UNL     1       6.562  -6.380   1.169  0.00  0.00    +0.024 A 
ATOM      4  C   UNL     1       7.772  -6.578   1.840  0.00  0.00    +0.002 A 
ATOM      5  C   UNL     1       8.635  -5.521   2.020  0.00  0.00    +0.001 A 
ATOM      6  C   UNL     1       8.309  -4.259   1.507  0.00  0.00    +0.017 A 
ENDROOT
BRANCH   1   7
ATOM      7  C   UNL     1       6.885  -2.531   0.430  0.00  0.00    +0.341 C 
ATOM      8  O   UNL     1       5.770  -2.046   0.241  0.00  0.00    -0.245 OA
BRANCH   7   9
ATOM      9  O   UNL     1       8.064  -1.816   0.345  0.00  0.00    -0.458 OA
BRANCH   9  10
ATOM     10  C   UNL     1       8.151  -0.368   0.626  0.00  0.00    +0.266 C 
BRANCH  10  11
ATOM     11  C   UNL     1       8.501   0.573  -0.563  0.00  0.00    +0.177 C 
BRANCH  11  12
ATOM     12  O   UNL     1       9.122   1.787  -0.068  0.00  0.00    -0.386 OA
ATOM     13  H   UNL     1       8.465   2.507  -0.185  0.00  0.00    +0.210 HD
ENDBRANCH  11  12
BRANCH  11  14
ATOM     14  C   UNL     1       7.296   0.999  -1.410  0.00  0.00    +0.190 C 
BRANCH  14  15
ATOM     15  O   UNL     1       6.488   1.913  -0.661  0.00  0.00    -0.392 OA
ATOM     16  H   UNL     1       5.661   2.034  -1.163  0.00  0.00    +0.210 HD
ENDBRANCH  14  15
ENDBRANCH  11  14
ENDBRANCH  10  11
ENDBRANCH   9  10
ENDBRANCH   7   9
ENDBRANCH   1   7
BRANCH   2  17
ATOM     17  N   UNL     1       4.881  -5.048   0.052  0.00  0.00    -0.313 N 
ATOM     18  H   UNL     1       4.372  -4.216   0.340  0.00  0.00    +0.152 HD
BRANCH  17  19
ATOM     19  C   UNL     1       4.046  -6.061  -0.552  0.00  0.00    +0.042 A 
ATOM     20  C   UNL     1       4.591  -7.004  -1.425  0.00  0.00    +0.043 A 
ATOM     21  C   UNL     1       3.730  -7.805  -2.164  0.00  0.00    +0.113 A 
ATOM     22  N   UNL     1       2.381  -7.744  -2.102  0.00  0.00    -0.254 NA
ATOM     23  C   UNL     1       1.817  -6.924  -1.202  0.00  0.00    +0.084 A 
ATOM     24  C   UNL     1       0.419  -6.866  -1.096  0.00  0.00    +0.081 A 
ATOM     25  C   UNL     1      -0.182  -6.063  -0.108  0.00  0.00    +0.014 A 
ATOM     26  C   UNL     1       0.600  -5.398   0.825  0.00  0.00    +0.001 A 
ATOM     27  C   UNL     1       1.987  -5.432   0.712  0.00  0.00    +0.012 A 
ATOM     28  C   UNL     1       2.628  -6.119  -0.341  0.00  0.00    +0.022 A 
BRANCH  24  29
ATOM     29  C   UNL     1      -0.481  -7.628  -2.039  0.00  0.00    +0.419 C 
ATOM     30  F   UNL     1      -0.176  -8.946  -2.189  0.00  0.00    -0.166 F 
ATOM     31  F   UNL     1      -0.531  -7.092  -3.292  0.00  0.00    -0.166 F 
ATOM     32  F   UNL     1      -1.788  -7.630  -1.616  0.00  0.00    -0.166 F 
ENDBRANCH  24  29
ENDBRANCH  17  19
ENDBRANCH   2  17
TORSDOF 10
