REMARK  Name = 
REMARK  6 active torsions:
REMARK  status: ('A' for Active; 'I' for Inactive)
REMARK    1  A    between atoms: C_2  and  N_3
REMARK    2  A    between atoms: C_2  and  C_18
REMARK    3  A    between atoms: C_2  and  C_23
REMARK    4  A    between atoms: C_10  and  C_11
REMARK    5  A    between atoms: C_14  and  C_15
REMARK    6  A    between atoms: C_15  and  C_16
REMARK                            x       y       z     vdW  Elec       q    Type
REMARK                         _______ _______ _______ _____ _____    ______ ____
ROOT
ATOM      1  N   UNL     1       2.538  -0.936   0.858  0.00  0.00    -0.312 N 
ATOM      2  H   UNL     1       2.923  -1.781   0.448  0.00  0.00    +0.149 HD
ATOM      3  C   UNL     1       2.137  -1.049   2.147  0.00  0.00    +0.152 C 
ATOM      4  S   UNL     1       2.381  -2.621   2.847  0.00  0.00    -0.052 S 
ATOM      5  C   UNL     1       1.383  -2.159   4.167  0.00  0.00    +0.082 C 
ATOM      6  C   UNL     1       0.668  -2.915   5.011  0.00  0.00    +0.066 C 
ATOM      7  C   UNL     1       1.235  -0.674   4.139  0.00  0.00    +0.276 C 
ATOM      8  O   UNL     1       0.808  -0.017   5.079  0.00  0.00    -0.267 OA
ATOM      9  N   UNL     1       1.560  -0.170   2.893  0.00  0.00    -0.154 NA
ENDROOT
BRANCH   6  10
ATOM     10  C   UNL     1       0.507  -4.323   4.863  0.00  0.00    +0.129 A 
ATOM     11  O   UNL     1       0.983  -5.041   3.792  0.00  0.00    -0.460 OA
ATOM     12  C   UNL     1       0.576  -6.328   3.893  0.00  0.00    +0.105 A 
ATOM     13  C   UNL     1      -0.165  -6.489   5.037  0.00  0.00    +0.045 A 
ATOM     14  C   UNL     1      -0.203  -5.214   5.660  0.00  0.00    +0.049 A 
BRANCH  12  15
ATOM     15  C   UNL     1       1.003  -7.225   2.790  0.00  0.00    +0.071 C 
ATOM     16  C   UNL     1       0.022  -7.203   1.629  0.00  0.00    +0.012 C 
ENDBRANCH  12  15
ENDBRANCH   6  10
BRANCH   1  17
ATOM     17  C   UNL     1       1.862  -0.086  -0.104  0.00  0.00    +0.172 C 
BRANCH  17  18
ATOM     18  C   UNL     1       2.853   0.965  -0.580  0.00  0.00    -0.020 A 
ATOM     19  C   UNL     1       2.573   2.331  -0.397  0.00  0.00    +0.009 A 
ATOM     20  C   UNL     1       3.483   3.298  -0.822  0.00  0.00    +0.038 A 
ATOM     21  C   UNL     1       4.674   2.907  -1.424  0.00  0.00    +0.123 A 
ATOM     22  F   UNL     1       5.544   3.841  -1.826  0.00  0.00    -0.205 F 
ATOM     23  C   UNL     1       4.972   1.567  -1.618  0.00  0.00    +0.038 A 
ATOM     24  C   UNL     1       4.065   0.595  -1.199  0.00  0.00    +0.009 A 
ENDBRANCH  17  18
BRANCH  17  25
ATOM     25  C   UNL     1       1.285  -0.851  -1.257  0.00  0.00    +0.173 A 
ATOM     26  N   UNL     1      -0.018  -0.756  -1.654  0.00  0.00    -0.241 N 
ATOM     27  H   UNL     1      -0.788  -0.220  -1.272  0.00  0.00    +0.192 HD
ATOM     28  N   UNL     1      -0.228  -1.537  -2.721  0.00  0.00    -0.047 NA
ATOM     29  N   UNL     1       0.938  -2.118  -2.962  0.00  0.00    -0.023 NA
ATOM     30  N   UNL     1       1.884  -1.720  -2.049  0.00  0.00    -0.111 NA
ENDBRANCH  17  25
ENDBRANCH   1  17
TORSDOF 5
