REMARK  Name = 
REMARK  9 active torsions:
REMARK  status: ('A' for Active; 'I' for Inactive)
REMARK    1  A    between atoms: C_2  and  C_26
REMARK    2  A    between atoms: N_3  and  S_15
REMARK    3  A    between atoms: C_8  and  O_9
REMARK    4  A    between atoms: C_10  and  O_11
REMARK    5  A    between atoms: O_11  and  C_12
REMARK    6  A    between atoms: S_15  and  C_18
REMARK    7  A    between atoms: C_21  and  O_22
REMARK    8  A    between atoms: O_22  and  C_23
REMARK    9  A    between atoms: N_28  and  O_29
REMARK                            x       y       z     vdW  Elec       q    Type
REMARK                         _______ _______ _______ _____ _____    ______ ____
ROOT
ATOM      1  C   UNL     1       1.839   0.076   0.013  0.00  0.00    +0.198 C 
ATOM      2  C   UNL     1       2.467   0.809   1.202  0.00  0.00    -0.013 A 
ATOM      3  C   UNL     1       2.940   0.109   2.323  0.00  0.00    -0.037 A 
ATOM      4  C   UNL     1       3.436   0.825   3.423  0.00  0.00    +0.053 A 
ATOM      5  C   UNL     1       3.452   2.225   3.418  0.00  0.00    +0.159 A 
ATOM      6  C   UNL     1       3.000   2.933   2.301  0.00  0.00    +0.162 A 
ATOM      7  C   UNL     1       2.998  -1.398   2.322  0.00  0.00    +0.052 C 
ATOM      8  C   UNL     1       2.059  -2.028   1.295  0.00  0.00    +0.115 C 
ATOM      9  C   UNL     1       2.520   2.213   1.200  0.00  0.00    +0.055 A 
ATOM     10  N   UNL     1       2.244  -1.367  -0.026  0.00  0.00    -0.160 NA
ENDROOT
BRANCH   1  11
ATOM     11  C   UNL     1       0.321   0.338  -0.077  0.00  0.00    +0.259 C 
ATOM     12  N   UNL     1      -0.379   0.357   1.113  0.00  0.00    -0.196 N 
ATOM     13  H   UNL     1       0.054   0.718   1.960  0.00  0.00    +0.182 HD
ATOM     14  O   UNL     1      -0.269   0.502  -1.148  0.00  0.00    -0.272 OA
BRANCH  12  15
ATOM     15  O   UNL     1      -1.758   0.664   0.970  0.00  0.00    -0.295 OA
ATOM     16  H   UNL     1      -1.883   0.622  -0.005  0.00  0.00    +0.241 HD
ENDBRANCH  12  15
ENDBRANCH   1  11
BRANCH  10  17
ATOM     17  S   UNL     1       1.670  -2.314  -1.324  0.00  0.00    +0.062 S 
ATOM     18  O   UNL     1       0.235  -2.428  -1.169  0.00  0.00    -0.153 OA
ATOM     19  O   UNL     1       2.494  -3.503  -1.381  0.00  0.00    -0.153 OA
BRANCH  17  20
ATOM     20  C   UNL     1       2.036  -1.347  -2.762  0.00  0.00    +0.106 A 
ATOM     21  C   UNL     1       0.994  -0.803  -3.515  0.00  0.00    +0.032 A 
ATOM     22  C   UNL     1       1.278   0.080  -4.558  0.00  0.00    +0.047 A 
ATOM     23  C   UNL     1       2.602   0.393  -4.869  0.00  0.00    +0.120 A 
ATOM     24  C   UNL     1       3.640  -0.197  -4.139  0.00  0.00    +0.047 A 
ATOM     25  C   UNL     1       3.365  -1.076  -3.089  0.00  0.00    +0.032 A 
BRANCH  23  26
ATOM     26  O   UNL     1       3.000   1.300  -5.812  0.00  0.00    -0.495 OA
ATOM     27  C   UNL     1       2.087   1.547  -6.876  0.00  0.00    +0.277 C 
ENDBRANCH  23  26
ENDBRANCH  17  20
ENDBRANCH  10  17
BRANCH   6  28
ATOM     28  O   UNL     1       2.945   4.285   2.108  0.00  0.00    -0.491 OA
ATOM     29  C   UNL     1       3.307   5.134   3.187  0.00  0.00    +0.277 C 
ENDBRANCH   6  28
BRANCH   5  30
ATOM     30  O   UNL     1       3.924   2.869   4.527  0.00  0.00    -0.503 OA
ATOM     31  H   UNL     1       4.182   2.215   5.197  0.00  0.00    +0.292 HD
ENDBRANCH   5  30
TORSDOF 7
