REMARK  Name = 
REMARK  3 active torsions:
REMARK  status: ('A' for Active; 'I' for Inactive)
REMARK    1  A    between atoms: O_1  and  C_2
REMARK    2  A    between atoms: C_6  and  N_7
REMARK    3  A    between atoms: C_8  and  C_10
REMARK                            x       y       z     vdW  Elec       q    Type
REMARK                         _______ _______ _______ _____ _____    ______ ____
ROOT
ATOM      1  C   UNL     1       2.312  -0.253   0.037  0.00  0.00    +0.145 A 
ATOM      2  C   UNL     1       3.005   0.875  -0.407  0.00  0.00    +0.062 A 
ATOM      3 BR   UNL     1       2.082   2.397  -1.068  0.00  0.00    -0.046 Br
ATOM      4  C   UNL     1       4.407   0.904  -0.390  0.00  0.00    +0.042 A 
ATOM      5  C   UNL     1       5.132  -0.211   0.055  0.00  0.00    +0.036 A 
ATOM      6  C   UNL     1       4.427  -1.327   0.521  0.00  0.00    +0.042 A 
ATOM      7  C   UNL     1       3.031  -1.350   0.507  0.00  0.00    +0.062 A 
ATOM      8 BR   UNL     1       2.139  -2.902   1.135  0.00  0.00    -0.046 Br
ENDROOT
BRANCH   5   9
ATOM      9  N   UNL     1       6.550  -0.163   0.008  0.00  0.00    -0.281 N 
ATOM     10  H   UNL     1       6.969   0.719  -0.262  0.00  0.00    +0.155 HD
ATOM     11  C   UNL     1       7.385  -1.268   0.099  0.00  0.00    +0.248 C 
ATOM     12  O   UNL     1       7.017  -2.435   0.192  0.00  0.00    -0.270 OA
BRANCH  11  13
ATOM     13  C   UNL     1       8.849  -1.027   0.006  0.00  0.00    +0.037 A 
ATOM     14  C   UNL     1       9.632  -2.046  -0.561  0.00  0.00    +0.013 A 
ATOM     15  C   UNL     1      11.018  -1.922  -0.630  0.00  0.00    +0.001 A 
ATOM     16  C   UNL     1      11.634  -0.781  -0.125  0.00  0.00    +0.000 A 
ATOM     17  C   UNL     1      10.864   0.234   0.450  0.00  0.00    +0.001 A 
ATOM     18  C   UNL     1       9.471   0.116   0.519  0.00  0.00    +0.013 A 
ENDBRANCH  11  13
ENDBRANCH   5   9
BRANCH   1  19
ATOM     19  O   UNL     1       0.943  -0.273   0.010  0.00  0.00    -0.505 OA
ATOM     20  H   UNL     1       0.651  -1.143   0.343  0.00  0.00    +0.292 HD
ENDBRANCH   1  19
TORSDOF 3
