REMARK  Name = 
REMARK  10 active torsions:
REMARK  status: ('A' for Active; 'I' for Inactive)
REMARK    1  A    between atoms: C_2  and  N_3
REMARK    2  A    between atoms: C_2  and  C_4
REMARK    3  A    between atoms: C_2  and  C_27
REMARK    4  A    between atoms: C_4  and  C_5
REMARK    5  A    between atoms: C_11  and  C_13
REMARK    6  A    between atoms: C_13  and  N_14
REMARK    7  A    between atoms: C_15  and  C_17
REMARK    8  A    between atoms: C_21  and  S_23
REMARK    9  A    between atoms: S_23  and  C_24
REMARK   10  A    between atoms: C_27  and  C_28
REMARK                            x       y       z     vdW  Elec       q    Type
REMARK                         _______ _______ _______ _____ _____    ______ ____
ROOT
ATOM      1  C   UNL     1       1.829   2.365   1.484  0.00  0.00    +0.217 C 
ATOM      2  N   UNL     1       2.245   3.226   2.492  0.00  0.00    -0.297 N 
ATOM      3  C   UNL     1       3.559   3.270   3.158  0.00  0.00    +0.093 C 
ATOM      4  C   UNL     1       3.666   4.707   3.711  0.00  0.00    +0.025 C 
ATOM      5  C   UNL     1       2.522   5.476   3.062  0.00  0.00    +0.021 C 
ATOM      6  C   UNL     1       1.471   4.412   2.812  0.00  0.00    +0.108 C 
ATOM      7  O   UNL     1       0.769   2.540   0.883  0.00  0.00    -0.276 OA
ENDROOT
BRANCH   1   8
ATOM      8  C   UNL     1       2.734   1.183   1.167  0.00  0.00    +0.114 C 
BRANCH   8   9
ATOM      9  C   UNL     1       2.254   0.283   0.003  0.00  0.00    +0.064 C 
BRANCH   9  10
ATOM     10  N   UNL     1       3.108  -0.927   0.017  0.00  0.00    -0.327 NA
ATOM     11  H   UNL     1       2.857  -1.528  -0.769  0.00  0.00    +0.118 HD
ATOM     12  H   UNL     1       4.079  -0.658  -0.149  0.00  0.00    +0.118 HD
ENDBRANCH   9  10
BRANCH   9  13
ATOM     13  C   UNL     1       2.330   1.000  -1.372  0.00  0.00    +0.054 C 
BRANCH  13  14
ATOM     14  C   UNL     1       1.950   0.218  -2.622  0.00  0.00    -0.045 A 
ATOM     15  C   UNL     1       0.940  -0.756  -2.646  0.00  0.00    +0.004 A 
ATOM     16  C   UNL     1       0.585  -1.393  -3.844  0.00  0.00    +0.002 A 
ATOM     17  C   UNL     1       1.220  -1.054  -5.037  0.00  0.00    +0.020 A 
ATOM     18  C   UNL     1       2.209  -0.076  -5.029  0.00  0.00    +0.041 A 
ATOM     19 CL   UNL     1       2.975   0.375  -6.504  0.00  0.00    -0.084 Cl
ATOM     20  C   UNL     1       2.571   0.556  -3.838  0.00  0.00    +0.023 A 
ENDBRANCH  13  14
ENDBRANCH   9  13
ENDBRANCH   8   9
ENDBRANCH   1   8
BRANCH   3  21
ATOM     21  C   UNL     1       3.719   2.243   4.307  0.00  0.00    +0.127 C 
BRANCH  21  22
ATOM     22  N   UNL     1       5.000   2.327   5.002  0.00  0.00    -0.310 N 
ATOM     23  H   UNL     1       5.019   2.731   5.929  0.00  0.00    +0.149 HD
ATOM     24  C   UNL     1       6.180   2.020   4.360  0.00  0.00    +0.244 C 
ATOM     25  O   UNL     1       6.229   1.653   3.190  0.00  0.00    -0.270 OA
BRANCH  24  26
ATOM     26  C   UNL     1       7.440   2.193   5.128  0.00  0.00    +0.038 A 
ATOM     27  C   UNL     1       8.586   2.584   4.424  0.00  0.00    +0.040 A 
ATOM     28  C   UNL     1       9.798   2.728   5.104  0.00  0.00    +0.089 A 
ATOM     29  C   UNL     1       9.878   2.495   6.479  0.00  0.00    +0.027 A 
ATOM     30  C   UNL     1       8.737   2.092   7.176  0.00  0.00    +0.003 A 
ATOM     31  C   UNL     1       7.518   1.940   6.505  0.00  0.00    +0.013 A 
BRANCH  28  32
ATOM     32  S   UNL     1      11.237   3.284   4.220  0.00  0.00    -0.006 S 
ATOM     33  O   UNL     1      12.119   3.909   5.189  0.00  0.00    -0.170 OA
ATOM     34  O   UNL     1      10.777   4.018   3.058  0.00  0.00    -0.170 OA
ATOM     35  C   UNL     1      11.998   1.780   3.671  0.00  0.00    +0.200 C 
ENDBRANCH  28  32
ENDBRANCH  24  26
ENDBRANCH  21  22
ENDBRANCH   3  21
TORSDOF 9
