REMARK  Name = 
REMARK  5 active torsions:
REMARK  status: ('A' for Active; 'I' for Inactive)
REMARK    1  A    between atoms: C_2  and  C_17
REMARK    2  A    between atoms: C_7  and  C_9
REMARK    3  A    between atoms: C_10  and  O_11
REMARK    4  A    between atoms: C_13  and  O_14
REMARK    5  A    between atoms: C_22  and  C_23
REMARK                            x       y       z     vdW  Elec       q    Type
REMARK                         _______ _______ _______ _____ _____    ______ ____
ROOT
ATOM      1  C   UNL     1       1.992   0.064   0.322  0.00  0.00    +0.107 C 
ATOM      2  N   UNL     1       2.657  -1.175   0.780  0.00  0.00    -0.290 N 
ATOM      3  C   UNL     1       2.376  -2.400   0.165  0.00  0.00    +0.251 C 
ATOM      4  O   UNL     1       1.459  -2.526  -0.652  0.00  0.00    -0.270 OA
ATOM      5  C   UNL     1       3.857  -0.839   1.534  0.00  0.00    +0.109 C 
ATOM      6  C   UNL     1       4.070   0.648   1.340  0.00  0.00    +0.021 C 
ATOM      7  C   UNL     1       2.657   1.169   1.155  0.00  0.00    +0.029 C 
ENDROOT
BRANCH   1   8
ATOM      8  C   UNL     1       0.478   0.121   0.415  0.00  0.00    -0.024 A 
ATOM      9  C   UNL     1      -0.284   0.892  -0.498  0.00  0.00    -0.046 A 
ATOM     10  C   UNL     1       0.353   1.828  -1.492  0.00  0.00    +0.044 C 
ATOM     11  C   UNL     1      -1.686   0.800  -0.479  0.00  0.00    +0.004 A 
ATOM     12  C   UNL     1      -2.337  -0.001   0.456  0.00  0.00    +0.000 A 
ATOM     13  C   UNL     1      -1.598  -0.684   1.414  0.00  0.00    +0.000 A 
ATOM     14  C   UNL     1      -0.204  -0.616   1.400  0.00  0.00    +0.006 A 
ENDBRANCH   1   8
BRANCH   3  15
ATOM     15  C   UNL     1       3.224  -3.618   0.382  0.00  0.00    +0.078 A 
ATOM     16  C   UNL     1       4.021  -3.828   1.519  0.00  0.00    +0.020 A 
ATOM     17  C   UNL     1       4.953  -4.872   1.568  0.00  0.00    +0.046 A 
ATOM     18  C   UNL     1       5.028  -5.780   0.522  0.00  0.00    +0.120 A 
ATOM     19  C   UNL     1       4.161  -5.685  -0.556  0.00  0.00    +0.091 A 
ATOM     20  C   UNL     1       3.259  -4.617  -0.616  0.00  0.00    +0.132 A 
BRANCH  18  21
ATOM     21  O   UNL     1       5.966  -6.765   0.603  0.00  0.00    -0.507 OA
ATOM     22  H   UNL     1       5.892  -7.329  -0.186  0.00  0.00    +0.292 HD
ENDBRANCH  18  21
BRANCH  20  23
ATOM     23  O   UNL     1       2.427  -4.615  -1.707  0.00  0.00    -0.506 OA
ATOM     24  H   UNL     1       1.766  -3.896  -1.570  0.00  0.00    +0.292 HD
ENDBRANCH  20  23
ENDBRANCH   3  15
TORSDOF 4
