REMARK  Name = 
REMARK  16 active torsions:
REMARK  status: ('A' for Active; 'I' for Inactive)
REMARK    1  A    between atoms: C_1  and  C_2
REMARK    2  A    between atoms: C_2  and  C_3
REMARK    3  A    between atoms: C_2  and  O_4
REMARK    4  A    between atoms: O_4  and  C_5
REMARK    5  A    between atoms: C_5  and  C_7
REMARK    6  A    between atoms: C_7  and  C_9
REMARK    7  A    between atoms: C_7  and  N_10
REMARK    8  A    between atoms: N_10  and  P_11
REMARK    9  A    between atoms: P_11  and  O_13
REMARK   10  A    between atoms: P_11  and  O_33
REMARK   11  A    between atoms: O_13  and  C_14
REMARK   12  A    between atoms: C_14  and  C_15
REMARK   13  A    between atoms: C_17  and  N_19
REMARK   14  A    between atoms: C_27  and  C_28
REMARK   15  A    between atoms: C_30  and  O_32
REMARK   16  A    between atoms: O_33  and  C_34
REMARK                            x       y       z     vdW  Elec       q    Type
REMARK                         _______ _______ _______ _____ _____    ______ ____
ROOT
ATOM      1  O   UNL     1       6.160   4.709  -2.481  0.00  0.00    -0.284 OA
ENDROOT
BRANCH   1   2
ATOM      2  P   UNL     1       6.976   3.498  -3.295  0.00  0.00    +0.462 P 
ATOM      3  O   UNL     1       6.460   2.431  -2.299  0.00  0.00    -0.228 OA
BRANCH   2   4
ATOM      4  N   UNL     1       5.816   3.094  -4.480  0.00  0.00    -0.199 NA
ATOM      5  H   UNL     1       5.004   2.806  -3.932  0.00  0.00    +0.135 HD
BRANCH   4   6
ATOM      6  C   UNL     1       6.144   2.009  -5.429  0.00  0.00    +0.171 C 
ATOM      7  C   UNL     1       4.966   1.794  -6.379  0.00  0.00    +0.036 C 
BRANCH   6   8
ATOM      8  C   UNL     1       7.469   2.257  -6.180  0.00  0.00    +0.325 C 
ATOM      9  O   UNL     1       8.551   2.322  -5.603  0.00  0.00    -0.249 OA
BRANCH   8  10
ATOM     10  O   UNL     1       7.306   2.309  -7.535  0.00  0.00    -0.461 OA
BRANCH  10  12
ATOM     11  C   UNL     1       9.122   0.994  -8.465  0.00  0.00    +0.052 C 
ATOM     12  C   UNL     1       8.491   2.380  -8.356  0.00  0.00    +0.170 C 
ATOM     13  C   UNL     1       8.071   2.859  -9.746  0.00  0.00    +0.052 C 
ENDBRANCH  10  12
ENDBRANCH   8  10
ENDBRANCH   6   8
ENDBRANCH   4   6
ENDBRANCH   2   4
BRANCH   2  14
ATOM     14  O   UNL     1       7.553   4.690  -4.408  0.00  0.00    -0.413 OA
BRANCH  14  15
ATOM     15  C   UNL     1       8.780   5.236  -4.108  0.00  0.00    +0.131 A 
ATOM     16  C   UNL     1       9.004   6.559  -4.477  0.00  0.00    +0.046 A 
ATOM     17  C   UNL     1      10.222   7.168  -4.168  0.00  0.00    +0.004 A 
ATOM     18  C   UNL     1      11.214   6.452  -3.496  0.00  0.00    +0.000 A 
ATOM     19  C   UNL     1      10.997   5.120  -3.149  0.00  0.00    +0.004 A 
ATOM     20  C   UNL     1       9.784   4.508  -3.464  0.00  0.00    +0.046 A 
ENDBRANCH  14  15
ENDBRANCH   2  14
ENDBRANCH   1   2
BRANCH   1  21
ATOM     21  C   UNL     1       6.079   4.606  -1.049  0.00  0.00    +0.206 C 
BRANCH  21  22
ATOM     22  C   UNL     1       5.173   3.482  -0.481  0.00  0.00    +0.179 C 
ATOM     23  C   UNL     1       3.761   3.427  -1.066  0.00  0.00    +0.187 C 
ATOM     24  C   UNL     1       2.903   2.983   0.137  0.00  0.00    +0.182 C 
ATOM     25  F   UNL     1       2.210   1.865  -0.205  0.00  0.00    -0.235 F 
ATOM     26  C   UNL     1       1.919   4.086   0.492  0.00  0.00    +0.055 C 
ATOM     27  C   UNL     1       3.945   2.709   1.247  0.00  0.00    +0.263 C 
ATOM     28  O   UNL     1       5.015   3.624   0.929  0.00  0.00    -0.345 OA
BRANCH  27  29
ATOM     29  N   UNL     1       3.574   2.905   2.648  0.00  0.00    -0.271 N 
ATOM     30  C   UNL     1       2.568   2.103   3.174  0.00  0.00    +0.331 A 
ATOM     31  O   UNL     1       1.926   1.282   2.528  0.00  0.00    -0.246 OA
ATOM     32  N   UNL     1       2.320   2.270   4.511  0.00  0.00    -0.275 N 
ATOM     33  H   UNL     1       1.597   1.701   4.914  0.00  0.00    +0.173 HD
ATOM     34  C   UNL     1       3.055   3.036   5.377  0.00  0.00    +0.254 A 
ATOM     35  O   UNL     1       2.852   3.065   6.580  0.00  0.00    -0.268 OA
ATOM     36  C   UNL     1       4.146   3.809   4.775  0.00  0.00    +0.088 A 
ATOM     37  C   UNL     1       4.349   3.710   3.463  0.00  0.00    +0.098 A 
ENDBRANCH  27  29
BRANCH  23  38
ATOM     38  O   UNL     1       3.647   2.545  -2.189  0.00  0.00    -0.386 OA
ATOM     39  H   UNL     1       2.725   2.226  -2.212  0.00  0.00    +0.210 HD
ENDBRANCH  23  38
ENDBRANCH  21  22
ENDBRANCH   1  21
TORSDOF 12
