REMARK  Name = 
REMARK  5 active torsions:
REMARK  status: ('A' for Active; 'I' for Inactive)
REMARK    1  A    between atoms: C_1  and  C_2
REMARK    2  A    between atoms: C_3  and  O_4
REMARK    3  A    between atoms: C_5  and  C_6
REMARK    4  A    between atoms: C_5  and  C_10
REMARK    5  A    between atoms: C_11  and  C_12
REMARK                            x       y       z     vdW  Elec       q    Type
REMARK                         _______ _______ _______ _____ _____    ______ ____
ROOT
ATOM      1  C   UNL     1       0.987   0.125   0.102  0.00  0.00    +0.052 C 
ATOM      2  C   UNL     1       2.472   0.045   0.050  0.00  0.00    +0.042 C 
ATOM      3  C   UNL     1       3.238   1.306  -0.000  0.00  0.00    +0.220 C 
ATOM      4  O   UNL     1       2.740   2.416   0.101  0.00  0.00    -0.280 OA
ATOM      5  S   UNL     1       4.946   1.024  -0.212  0.00  0.00    -0.065 S 
ATOM      6  C   UNL     1       4.786  -0.784   0.058  0.00  0.00    +0.097 C 
ATOM      7  C   UNL     1       5.385  -1.111   1.433  0.00  0.00    +0.036 C 
ATOM      8  C   UNL     1       3.285  -1.022   0.073  0.00  0.00    +0.121 C 
ENDROOT
BRANCH   6   9
ATOM      9  C   UNL     1       5.570  -1.486  -1.038  0.00  0.00    -0.002 C 
ATOM     10  C   UNL     1       5.102  -2.300  -1.999  0.00  0.00    -0.003 C 
BRANCH  10  11
ATOM     11  C   UNL     1       5.957  -2.966  -2.955  0.00  0.00    -0.008 C 
ATOM     12  C   UNL     1       5.485  -3.797  -3.892  0.00  0.00    +0.008 C 
ENDBRANCH  10  11
ENDBRANCH   6   9
BRANCH   8  13
ATOM     13  O   UNL     1       2.854  -2.330   0.170  0.00  0.00    -0.509 OA
ATOM     14  H   UNL     1       1.887  -2.371   0.087  0.00  0.00    +0.292 HD
ENDBRANCH   8  13
TORSDOF 3
