REMARK  Name = 
REMARK  13 active torsions:
REMARK  status: ('A' for Active; 'I' for Inactive)
REMARK    1  A    between atoms: C_1  and  O_2
REMARK    2  A    between atoms: O_2  and  C_3
REMARK    3  A    between atoms: C_3  and  C_5
REMARK    4  A    between atoms: C_6  and  O_7
REMARK    5  A    between atoms: C_11  and  O_12
REMARK    6  A    between atoms: O_12  and  C_13
REMARK    7  A    between atoms: C_13  and  C_14
REMARK    8  A    between atoms: C_15  and  C_16
REMARK    9  A    between atoms: C_18  and  C_22
REMARK   10  A    between atoms: C_23  and  C_24
REMARK   11  A    between atoms: C_24  and  O_25
REMARK   12  A    between atoms: C_26  and  C_29
REMARK   13  A    between atoms: C_29  and  O_30
REMARK                            x       y       z     vdW  Elec       q    Type
REMARK                         _______ _______ _______ _____ _____    ______ ____
ROOT
ATOM      1  C   UNL     1       0.977  -2.318   6.616  0.00  0.00    -0.025 A 
ATOM      2  C   UNL     1       0.525  -1.403   7.564  0.00  0.00    +0.008 A 
ATOM      3  C   UNL     1      -0.042  -1.863   8.749  0.00  0.00    +0.001 A 
ATOM      4  C   UNL     1      -0.169  -3.236   8.978  0.00  0.00    +0.012 A 
ATOM      5  C   UNL     1       0.288  -4.179   8.041  0.00  0.00    +0.021 A 
ATOM      6  C   UNL     1       0.893  -3.698   6.872  0.00  0.00    +0.019 A 
ENDROOT
BRANCH   5   7
ATOM      7  C   UNL     1       0.089  -5.610   8.280  0.00  0.00    +0.173 A 
ATOM      8  O   UNL     1       0.010  -5.958   9.597  0.00  0.00    -0.354 OA
ATOM      9  N   UNL     1      -0.203  -7.310   9.726  0.00  0.00    -0.071 NA
ATOM     10  C   UNL     1      -0.244  -7.793   8.474  0.00  0.00    +0.196 A 
ATOM     11  C   UNL     1      -0.071  -6.752   7.507  0.00  0.00    +0.059 A 
BRANCH  10  12
ATOM     12  C   UNL     1      -0.446  -9.227   8.271  0.00  0.00    +0.359 C 
ATOM     13  O   UNL     1      -0.412  -9.776   7.178  0.00  0.00    -0.243 OA
BRANCH  12  14
ATOM     14  O   UNL     1      -0.669  -9.913   9.426  0.00  0.00    -0.476 OA
ATOM     15  H   UNL     1      -0.644  -9.281  10.180  0.00  0.00    +0.295 HD
ENDBRANCH  12  14
ENDBRANCH  10  12
BRANCH  11  16
ATOM     16  C   UNL     1      -0.072  -6.876   6.025  0.00  0.00    +0.197 C 
BRANCH  16  17
ATOM     17  O   UNL     1      -1.015  -7.819   5.534  0.00  0.00    -0.390 OA
ATOM     18  H   UNL     1      -0.707  -8.715   5.789  0.00  0.00    +0.210 HD
ENDBRANCH  16  17
ENDBRANCH  11  16
ENDBRANCH   5   7
BRANCH   1  20
ATOM     19  C   UNL     1       2.714  -1.425   5.104  0.00  0.00    +0.014 C 
ATOM     20  C   UNL     1       1.467  -1.865   5.317  0.00  0.00    +0.007 C 
BRANCH  19  21
ATOM     21  C   UNL     1       3.263  -1.230   3.724  0.00  0.00    +0.256 C 
BRANCH  21  22
ATOM     22  O   UNL     1       3.222   0.140   3.308  0.00  0.00    -0.487 OA
BRANCH  22  24
ATOM     23  C   UNL     1       3.140   1.382   1.224  0.00  0.00    +0.142 A 
ATOM     24  C   UNL     1       3.660   0.334   2.010  0.00  0.00    +0.138 A 
ATOM     25  C   UNL     1       4.684  -0.472   1.470  0.00  0.00    +0.047 A 
ATOM     26  C   UNL     1       5.146  -0.299   0.168  0.00  0.00    +0.007 A 
ATOM     27  C   UNL     1       4.620   0.713  -0.615  0.00  0.00    +0.046 A 
ATOM     28  C   UNL     1       3.645   1.557  -0.086  0.00  0.00    +0.134 A 
BRANCH  23  29
ATOM     29  C   UNL     1       2.091   2.339   1.664  0.00  0.00    +0.346 C 
ATOM     30  O   UNL     1       1.980   3.438   1.133  0.00  0.00    -0.245 OA
BRANCH  29  32
ATOM     31  C   UNL     1       0.153   2.699   2.923  0.00  0.00    +0.280 C 
ATOM     32  O   UNL     1       1.231   1.825   2.575  0.00  0.00    -0.464 OA
ENDBRANCH  29  32
ENDBRANCH  23  29
BRANCH  28  33
ATOM     33  O   UNL     1       3.230   2.550  -0.940  0.00  0.00    -0.506 OA
ATOM     34  H   UNL     1       2.693   3.196  -0.434  0.00  0.00    +0.292 HD
ENDBRANCH  28  33
ENDBRANCH  22  24
ENDBRANCH  21  22
ENDBRANCH  19  21
ENDBRANCH   1  20
TORSDOF 12
