REMARK  Name = 
REMARK  9 active torsions:
REMARK  status: ('A' for Active; 'I' for Inactive)
REMARK    1  A    between atoms: C_2  and  C_3
REMARK    2  A    between atoms: C_3  and  S_4
REMARK    3  A    between atoms: S_4  and  C_7
REMARK    4  A    between atoms: C_10  and  O_11
REMARK    5  A    between atoms: O_11  and  C_12
REMARK    6  A    between atoms: C_19  and  C_21
REMARK    7  A    between atoms: N_23  and  C_24
REMARK    8  A    between atoms: C_24  and  C_25
REMARK    9  A    between atoms: C_25  and  N_26
REMARK                            x       y       z     vdW  Elec       q    Type
REMARK                         _______ _______ _______ _____ _____    ______ ____
ROOT
ATOM      1  C   UNL     1       2.083  -0.082   0.132  0.00  0.00    +0.022 C 
ATOM      2  C   UNL     1       2.502   1.055  -0.850  0.00  0.00    +0.080 C 
ATOM      3  C   UNL     1       2.078   0.746  -2.298  0.00  0.00    +0.013 C 
ATOM      4  C   UNL     1       2.550  -0.627  -2.763  0.00  0.00    +0.001 C 
ATOM      5  C   UNL     1       2.044  -1.713  -1.832  0.00  0.00    +0.000 C 
ATOM      6  C   UNL     1       2.508  -1.461  -0.407  0.00  0.00    +0.006 C 
ENDROOT
BRANCH   2   7
ATOM      7  C   UNL     1       1.902   2.411  -0.452  0.00  0.00    +0.216 C 
ATOM      8  N   UNL     1       2.542   3.502  -0.997  0.00  0.00    -0.314 N 
ATOM      9  H   UNL     1       3.312   3.374  -1.641  0.00  0.00    +0.149 HD
ATOM     10  O   UNL     1       0.929   2.517   0.288  0.00  0.00    -0.276 OA
BRANCH   8  11
ATOM     11  C   UNL     1       2.086   4.865  -0.752  0.00  0.00    +0.119 C 
BRANCH  11  12
ATOM     12  C   UNL     1       2.487   5.409   0.630  0.00  0.00    +0.096 C 
BRANCH  12  13
ATOM     13  N   UNL     1       3.944   5.485   0.791  0.00  0.00    -0.329 NA
ATOM     14  H   UNL     1       4.152   5.806   1.737  0.00  0.00    +0.118 HD
ATOM     15  H   UNL     1       4.324   4.542   0.724  0.00  0.00    +0.118 HD
ENDBRANCH  12  13
ENDBRANCH  11  12
ENDBRANCH   8  11
ENDBRANCH   2   7
BRANCH   1  16
ATOM     16  C   UNL     1       2.685   0.152   1.534  0.00  0.00    +0.176 C 
BRANCH  16  17
ATOM     17  S   UNL     1       2.129  -1.030   2.767  0.00  0.00    -0.003 S 
ATOM     18  O   UNL     1       2.773  -2.309   2.533  0.00  0.00    -0.169 OA
ATOM     19  O   UNL     1       0.688  -0.935   2.899  0.00  0.00    -0.169 OA
BRANCH  17  20
ATOM     20  C   UNL     1       2.842  -0.385   4.261  0.00  0.00    +0.088 A 
ATOM     21  C   UNL     1       4.142  -0.760   4.612  0.00  0.00    +0.030 A 
ATOM     22  C   UNL     1       4.730  -0.222   5.758  0.00  0.00    +0.047 A 
ATOM     23  C   UNL     1       4.017   0.680   6.551  0.00  0.00    +0.120 A 
ATOM     24  C   UNL     1       2.706   1.023   6.203  0.00  0.00    +0.047 A 
ATOM     25  C   UNL     1       2.105   0.482   5.066  0.00  0.00    +0.030 A 
BRANCH  23  26
ATOM     26  O   UNL     1       4.509   1.332   7.647  0.00  0.00    -0.495 OA
ATOM     27  C   UNL     1       5.554   0.681   8.358  0.00  0.00    +0.277 C 
ENDBRANCH  23  26
ENDBRANCH  17  20
ENDBRANCH  16  17
ENDBRANCH   1  16
TORSDOF 8
