REMARK  Name = 
REMARK  7 active torsions:
REMARK  status: ('A' for Active; 'I' for Inactive)
REMARK    1  A    between atoms: C_1  and  O_2
REMARK    2  A    between atoms: O_2  and  C_3
REMARK    3  A    between atoms: N_11  and  C_12
REMARK    4  A    between atoms: C_21  and  O_22
REMARK    5  A    between atoms: O_22  and  C_23
REMARK    6  A    between atoms: C_23  and  C_24
REMARK    7  A    between atoms: N_27  and  C_28
REMARK                            x       y       z     vdW  Elec       q    Type
REMARK                         _______ _______ _______ _____ _____    ______ ____
ROOT
ATOM      1  C   UNL     1       2.814   1.055  -0.065  0.00  0.00    +0.162 A 
ATOM      2  C   UNL     1       4.200   0.974  -0.311  0.00  0.00    +0.164 A 
ATOM      3  C   UNL     1       4.983   2.140  -0.313  0.00  0.00    +0.075 A 
ATOM      4  C   UNL     1       4.399   3.390  -0.151  0.00  0.00    +0.055 A 
ATOM      5  N   UNL     1       5.124   4.575  -0.281  0.00  0.00    -0.345 N 
ATOM      6  H   UNL     1       6.111   4.522  -0.490  0.00  0.00    +0.167 HD
ATOM      7  C   UNL     1       4.412   5.706  -0.542  0.00  0.00    +0.199 A 
ATOM      8  N   UNL     1       3.137   5.867  -0.418  0.00  0.00    -0.218 NA
ATOM      9  C   UNL     1       2.445   4.836   0.178  0.00  0.00    +0.164 A 
ATOM     10  N   UNL     1       1.322   5.009   0.804  0.00  0.00    -0.225 NA
ATOM     11  C   UNL     1       3.021   3.463   0.077  0.00  0.00    +0.046 A 
ATOM     12  C   UNL     1       2.231   2.311   0.143  0.00  0.00    +0.063 A 
ENDROOT
BRANCH  10  13
ATOM     13  C   UNL     1       0.669   6.253   0.881  0.00  0.00    +0.101 A 
ATOM     14  C   UNL     1       1.261   7.522   1.016  0.00  0.00    +0.150 A 
ATOM     15  F   UNL     1       2.580   7.664   1.221  0.00  0.00    -0.203 F 
ATOM     16  C   UNL     1       0.502   8.692   0.983  0.00  0.00    +0.055 A 
ATOM     17  C   UNL     1      -0.882   8.608   0.905  0.00  0.00    +0.021 A 
ATOM     18 BR   UNL     1      -1.918  10.187   0.858  0.00  0.00    -0.050 Br
ATOM     19  C   UNL     1      -1.509   7.366   0.876  0.00  0.00    +0.017 A 
ATOM     20  C   UNL     1      -0.734   6.203   0.857  0.00  0.00    +0.032 A 
ENDBRANCH  10  13
BRANCH   1  22
ATOM     21  C   UNL     1       0.902  -0.151   0.689  0.00  0.00    +0.277 C 
ATOM     22  O   UNL     1       2.071  -0.095  -0.116  0.00  0.00    -0.491 OA
ENDBRANCH   1  22
BRANCH   2  23
ATOM     23  O   UNL     1       4.960  -0.136  -0.559  0.00  0.00    -0.488 OA
BRANCH  23  24
ATOM     24  C   UNL     1       4.314  -1.352  -0.926  0.00  0.00    +0.232 C 
BRANCH  24  25
ATOM     25  C   UNL     1       5.404  -2.376  -1.285  0.00  0.00    +0.029 C 
ATOM     26  C   UNL     1       6.283  -1.932  -2.472  0.00  0.00    +0.022 C 
ATOM     27  C   UNL     1       5.694  -2.264  -3.847  0.00  0.00    +0.084 C 
ATOM     28  N   UNL     1       5.200  -3.640  -3.974  0.00  0.00    -0.305 NA
ATOM     29  C   UNL     1       6.285  -4.622  -4.004  0.00  0.00    +0.104 C 
ATOM     30  C   UNL     1       4.220  -3.927  -2.923  0.00  0.00    +0.084 C 
ATOM     31  C   UNL     1       4.788  -3.763  -1.513  0.00  0.00    +0.022 C 
ENDBRANCH  24  25
ENDBRANCH  23  24
ENDBRANCH   2  23
TORSDOF 5
