REMARK  Name = 
REMARK  2 active torsions:
REMARK  status: ('A' for Active; 'I' for Inactive)
REMARK    1  A    between atoms: C_2  and  O_3
REMARK    2  A    between atoms: C_12  and  O_14
REMARK                            x       y       z     vdW  Elec       q    Type
REMARK                         _______ _______ _______ _____ _____    ______ ____
ROOT
ATOM      1  C   UNL     1       1.912   0.168  -0.155  0.00  0.00    +0.170 C 
ATOM      2  C   UNL     1       2.257  -1.195   0.524  0.00  0.00    +0.177 C 
ATOM      3  C   UNL     1       3.186  -1.126   1.717  0.00  0.00    -0.009 A 
ATOM      4  C   UNL     1       3.621  -2.315   2.330  0.00  0.00    +0.007 A 
ATOM      5  C   UNL     1       4.439  -2.279   3.462  0.00  0.00    +0.000 A 
ATOM      6  C   UNL     1       4.829  -1.053   3.992  0.00  0.00    +0.001 A 
ATOM      7  C   UNL     1       4.415   0.134   3.386  0.00  0.00    +0.008 A 
ATOM      8  C   UNL     1       3.598   0.109   2.249  0.00  0.00    -0.020 A 
ATOM      9  C   UNL     1       3.191   1.367   1.632  0.00  0.00    +0.006 C 
ATOM     10  C   UNL     1       2.429   1.390   0.532  0.00  0.00    +0.007 C 
ENDROOT
BRANCH   1  11
ATOM     11  O   UNL     1       0.494   0.361  -0.245  0.00  0.00    -0.385 OA
ATOM     12  H   UNL     1       0.112  -0.333   0.331  0.00  0.00    +0.210 HD
ENDBRANCH   1  11
BRANCH   2  13
ATOM     13  O   UNL     1       1.019  -1.821   0.935  0.00  0.00    -0.384 OA
ATOM     14  H   UNL     1       1.023  -1.870   1.905  0.00  0.00    +0.210 HD
ENDBRANCH   2  13
TORSDOF 2
