REMARK  Name = 
REMARK  5 active torsions:
REMARK  status: ('A' for Active; 'I' for Inactive)
REMARK    1  A    between atoms: C_1  and  C_2
REMARK    2  A    between atoms: N_4  and  C_5
REMARK    3  A    between atoms: C_9  and  N_10
REMARK    4  A    between atoms: C_14  and  C_27
REMARK    5  A    between atoms: N_19  and  C_20
REMARK                            x       y       z     vdW  Elec       q    Type
REMARK                         _______ _______ _______ _____ _____    ______ ____
ROOT
ATOM      1  N   UNL     1       7.275  -3.763   0.094  0.00  0.00    -0.283 N 
ATOM      2  H   UNL     1       8.282  -3.847   0.102  0.00  0.00    +0.155 HD
ATOM      3  C   UNL     1       6.628  -4.971   0.055  0.00  0.00    +0.224 A 
ATOM      4  N   UNL     1       5.254  -5.012   0.023  0.00  0.00    -0.181 NA
ATOM      5  C   UNL     1       4.602  -6.131   0.117  0.00  0.00    +0.225 A 
ATOM      6  N   UNL     1       3.227  -6.222   0.155  0.00  0.00    -0.283 N 
ATOM      7  H   UNL     1       2.824  -7.073   0.531  0.00  0.00    +0.155 HD
ATOM      8  N   UNL     1       5.358  -7.300   0.186  0.00  0.00    -0.182 N 
ATOM      9  C   UNL     1       6.724  -7.258   0.108  0.00  0.00    +0.180 A 
ATOM     10  C   UNL     1       7.113  -8.580   0.086  0.00  0.00    +0.116 A 
ATOM     11  C   UNL     1       5.916  -9.322   0.188  0.00  0.00    +0.156 A 
ATOM     12  N   UNL     1       4.829  -8.543   0.268  0.00  0.00    -0.169 NA
ATOM     13  N   UNL     1       7.367  -6.057   0.070  0.00  0.00    -0.194 NA
ENDROOT
BRANCH   1  16
ATOM     14  C   UNL     1       4.955  -0.795  -0.046  0.00  0.00    +0.035 A 
ATOM     15  C   UNL     1       5.407  -2.119   0.056  0.00  0.00    +0.046 A 
ATOM     16  C   UNL     1       6.771  -2.446   0.113  0.00  0.00    +0.035 A 
ATOM     17  C   UNL     1       7.679  -1.379   0.179  0.00  0.00    +0.023 A 
ATOM     18  C   UNL     1       7.240  -0.052   0.153  0.00  0.00    +0.004 A 
ATOM     19  C   UNL     1       5.882   0.239   0.022  0.00  0.00    +0.023 A 
BRANCH  14  22
ATOM     20  C   UNL     1       1.468   0.389  -0.839  0.00  0.00    +0.109 C 
ATOM     21  C   UNL     1       2.959   0.550  -0.697  0.00  0.00    +0.214 C 
ATOM     22  N   UNL     1       3.569  -0.604  -0.242  0.00  0.00    -0.286 N 
ATOM     23  H   UNL     1       2.994  -1.440  -0.198  0.00  0.00    +0.155 HD
ATOM     24  O   UNL     1       3.508   1.602  -1.003  0.00  0.00    -0.276 OA
ENDBRANCH  14  22
ENDBRANCH   1  16
BRANCH   6  25
ATOM     25  C   UNL     1       2.340  -5.279  -0.396  0.00  0.00    +0.034 A 
ATOM     26  C   UNL     1       1.122  -5.024   0.242  0.00  0.00    +0.023 A 
ATOM     27  C   UNL     1       0.268  -4.019  -0.223  0.00  0.00    +0.002 A 
ATOM     28  C   UNL     1       0.617  -3.265  -1.341  0.00  0.00    +0.000 A 
ATOM     29  C   UNL     1       1.820  -3.512  -1.994  0.00  0.00    +0.002 A 
ATOM     30  C   UNL     1       2.676  -4.506  -1.516  0.00  0.00    +0.023 A 
ENDBRANCH   6  25
BRANCH  10  31
ATOM     31  C   UNL     1       8.440  -9.082  -0.019  0.00  0.00    +0.104 C 
ATOM     32  N   UNL     1       9.506  -9.531  -0.109  0.00  0.00    -0.191 NA
ENDBRANCH  10  31
TORSDOF 4
