REMARK  Name = 
REMARK  22 active torsions:
REMARK  status: ('A' for Active; 'I' for Inactive)
REMARK    1  A    between atoms: C_2  and  N_3
REMARK    2  A    between atoms: C_4  and  O_5
REMARK    3  A    between atoms: C_9  and  O_10
REMARK    4  A    between atoms: CA_11  and  C_13
REMARK    5  A    between atoms: C_13  and  O_14
REMARK    6  A    between atoms: C_16  and  O_17
REMARK    7  A    between atoms: CA_18  and  CB_20
REMARK    8  A    between atoms: CB_20  and  O_21
REMARK    9  A    between atoms: C_23  and  O_24
REMARK   10  A    between atoms: CA_25  and  N_44
REMARK   11  A    between atoms: C_29  and  O_30
REMARK   12  A    between atoms: C_31  and  C_36
REMARK   13  A    between atoms: C_34  and  O_35
REMARK   14  A    between atoms: C_45  and  O_46
REMARK   15  A    between atoms: C_45  and  C_47
REMARK   16  A    between atoms: C_47  and  C_48
REMARK   17  A    between atoms: C_48  and  N_50
REMARK   18  A    between atoms: C_48  and  C_51
REMARK   19  A    between atoms: C_51  and  O_53
REMARK   20  A    between atoms: C_51  and  C_54
REMARK   21  A    between atoms: C_54  and  C_55
REMARK   22  A    between atoms: C_55  and  N_56
REMARK                            x       y       z     vdW  Elec       q    Type
REMARK                         _______ _______ _______ _____ _____    ______ ____
ROOT
ATOM      1  C   UNK A   3      22.307 -11.582  -2.786  0.00  0.00    +0.109 C 
ATOM      2  C   UNK A   3      21.186 -10.839  -2.440  0.00  0.00    +0.142 C 
ATOM      3  C   UNK A   3      20.667  -9.333  -3.084  0.00  0.00    +0.236 C 
ATOM      4  N   UNK A   3      20.374  -8.109  -2.837  0.00  0.00    -0.233 NA
ATOM      5  C   UNK A   3      20.295  -6.960  -1.819  0.00  0.00    +0.228 C 
ATOM      6  C   UNK A   3      18.887  -6.111  -1.835  0.00  0.00    +0.211 C 
ATOM      7  N   UNK A   3      18.277  -5.611  -0.799  0.00  0.00    -0.250 NA
ATOM      8  C   UNK A   3      17.155  -4.598  -0.831  0.00  0.00    +0.181 C 
ATOM      9  C   UNK A   3      15.835  -4.932  -0.067  0.00  0.00    +0.214 C 
ATOM     10  C   UNK A   1      15.286  -6.257  -0.508  0.00  0.00    +0.211 C 
ATOM     11  N   SER A   2      15.987  -7.284  -0.285  0.00  0.00    -0.238 NA
ATOM     12  CA  SER A   2      16.019  -8.548  -0.959  0.00  0.00    +0.218 C 
ATOM     13  C   SER A   2      17.367  -9.116  -0.531  0.00  0.00    +0.211 C 
ATOM     14  N   UNK A   3      17.630 -10.364  -0.597  0.00  0.00    -0.238 NA
ATOM     15  C   UNK A   3      19.047 -10.726  -0.527  0.00  0.00    +0.219 C 
ATOM     16  C   UNK A   3      19.239 -11.777  -1.563  0.00  0.00    +0.215 C 
ATOM     17  N   UNK A   3      20.145 -11.796  -2.469  0.00  0.00    -0.209 NA
ENDROOT
BRANCH   5  18
ATOM     18  C   UNK A   3      21.246  -5.700  -2.139  0.00  0.00    +0.172 C 
ATOM     19  N   UNK A   3      22.619  -6.061  -2.412  0.00  0.00    -0.233 N 
ATOM     20  H   UNK A   3      22.927  -5.913  -3.369  0.00  0.00    +0.245 HD
ATOM     21  C   UNK A   3      23.631  -5.982  -1.529  0.00  0.00    +0.362 C 
ATOM     22  N   UNK A   3      24.832  -6.205  -1.929  0.00  0.00    -0.133 NA
ATOM     23  H   UNK A   3      25.466  -6.120  -1.137  0.00  0.00    +0.306 HD
ATOM     24  N   UNK A   3      23.328  -5.626  -0.261  0.00  0.00    -0.238 N 
ATOM     25  H   UNK A   3      24.095  -5.471   0.378  0.00  0.00    +0.244 HD
ATOM     26  C   UNK A   3      22.045  -5.119   0.166  0.00  0.00    +0.188 C 
ATOM     27  C   UNK A   3      21.276  -4.602  -1.035  0.00  0.00    +0.076 C 
ENDBRANCH   5  18
BRANCH   1  28
ATOM     28  N   UNK A   3      22.746 -12.791  -2.133  0.00  0.00    -0.274 N 
ATOM     29  H   UNK A   3      22.649 -12.715  -1.126  0.00  0.00    +0.156 HD
ATOM     30  C   UNK A   3      23.457 -13.924  -2.475  0.00  0.00    +0.276 C 
ATOM     31  N   UNK A   3      24.032 -14.756  -1.685  0.00  0.00    -0.253 NA
ATOM     32  H   UNK A   3      23.957 -14.507  -0.703  0.00  0.00    +0.191 HD
BRANCH  30  33
ATOM     33  O   UNK A   3      23.515 -14.260  -3.769  0.00  0.00    -0.482 OA
ATOM     34  H   UNK A   3      22.833 -13.826  -4.285  0.00  0.00    +0.295 HD
ENDBRANCH  30  33
ENDBRANCH   1  28
BRANCH  16  35
ATOM     35  O   UNK A   3      18.307 -12.745  -1.587  0.00  0.00    -0.494 OA
ATOM     36  H   UNK A   3      18.440 -13.310  -2.366  0.00  0.00    +0.293 HD
ENDBRANCH  16  35
BRANCH  13  37
ATOM     37  O   SER A   2      18.268  -8.211  -0.113  0.00  0.00    -0.494 OA
ATOM     38  H   SER A   2      19.033  -8.573   0.367  0.00  0.00    +0.293 HD
ENDBRANCH  13  37
BRANCH  10  39
ATOM     39  O   UNK A   1      14.165  -6.263  -1.232  0.00  0.00    -0.494 OA
ATOM     40  H   UNK A   1      13.824  -7.166  -1.339  0.00  0.00    +0.293 HD
ENDBRANCH  10  39
BRANCH   9  41
ATOM     41  N   UNK A   3      15.928  -4.852   1.399  0.00  0.00    -0.240 NA
ATOM     42  C   UNK A   0      16.724  -5.460   2.169  0.00  0.00    +0.185 C 
BRANCH  42  43
ATOM     43  O   UNK A   0      17.659  -6.338   1.738  0.00  0.00    -0.496 OA
ATOM     44  H   UNK A   0      17.639  -6.454   0.759  0.00  0.00    +0.293 HD
ENDBRANCH  42  43
BRANCH  42  45
ATOM     45  C   UNK A   0      16.747  -5.331   3.656  0.00  0.00    +0.116 C 
BRANCH  45  46
ATOM     46  C   UNK A   0      15.875  -6.380   4.372  0.00  0.00    +0.088 C 
BRANCH  46  47
ATOM     47  N   UNK A   0      16.350  -7.762   4.144  0.00  0.00    -0.325 NA
ATOM     48  H   UNK A   0      15.636  -8.416   4.467  0.00  0.00    +0.119 HD
ATOM     49  H   UNK A   0      16.434  -7.904   3.136  0.00  0.00    +0.119 HD
ENDBRANCH  46  47
BRANCH  46  50
ATOM     50  C   UNK A   0      15.778  -6.100   5.905  0.00  0.00    +0.133 C 
BRANCH  50  51
ATOM     51  O   UNK A   0      15.133  -4.839   6.103  0.00  0.00    -0.390 OA
ATOM     52  H   UNK A   0      15.287  -4.603   7.046  0.00  0.00    +0.210 HD
ENDBRANCH  50  51
BRANCH  50  53
ATOM     53  C   UNK A   0      17.142  -6.128   6.630  0.00  0.00    +0.048 C 
BRANCH  53  54
ATOM     54  C   UNK A   0      17.035  -5.959   8.149  0.00  0.00    +0.080 C 
BRANCH  54  55
ATOM     55  N   UNK A   0      16.458  -4.662   8.508  0.00  0.00    -0.330 NA
ATOM     56  H   UNK A   0      16.403  -4.596   9.526  0.00  0.00    +0.118 HD
ATOM     57  H   UNK A   0      17.108  -3.923   8.226  0.00  0.00    +0.118 HD
ENDBRANCH  54  55
ENDBRANCH  53  54
ENDBRANCH  50  53
ENDBRANCH  46  50
ENDBRANCH  45  46
ENDBRANCH  42  45
ENDBRANCH   9  41
BRANCH   6  58
ATOM     58  O   UNK A   3      18.559  -5.724  -3.088  0.00  0.00    -0.494 OA
ATOM     59  H   UNK A   3      18.061  -4.894  -3.094  0.00  0.00    +0.293 HD
ENDBRANCH   6  58
BRANCH   3  60
ATOM     60  O   UNK A   3      20.307  -9.747  -4.343  0.00  0.00    -0.491 OA
ATOM     61  H   UNK A   3      20.217 -10.714  -4.393  0.00  0.00    +0.294 HD
ENDBRANCH   3  60
BRANCH  12  62
ATOM     62  CB  SER A   2      16.055  -8.404  -2.493  0.00  0.00    +0.192 C 
BRANCH  62  63
ATOM     63  OG  SER A   2      16.063  -9.669  -3.153  0.00  0.00    -0.392 OA
ATOM     64  H   SER A   2      16.810 -10.182  -2.788  0.00  0.00    +0.210 HD
ENDBRANCH  62  63
ENDBRANCH  12  62
BRANCH  15  65
ATOM     65  C   UNK A   3      19.514 -11.092   0.858  0.00  0.00    +0.192 C 
BRANCH  65  66
ATOM     66  O   UNK A   3      19.530  -9.885   1.633  0.00  0.00    -0.392 OA
ATOM     67  H   UNK A   3      18.610  -9.739   1.934  0.00  0.00    +0.210 HD
ENDBRANCH  65  66
ENDBRANCH  15  65
TORSDOF 22
