REMARK  Name = 
REMARK  4 active torsions:
REMARK  status: ('A' for Active; 'I' for Inactive)
REMARK    1  A    between atoms: C_1  and  C_2
REMARK    2  A    between atoms: C_5  and  C_6
REMARK    3  A    between atoms: C_6  and  C_7
REMARK    4  A    between atoms: C_7  and  C_8
REMARK                            x       y       z     vdW  Elec       q    Type
REMARK                         _______ _______ _______ _____ _____    ______ ____
ROOT
ATOM      1  C   UNL     1       9.043  -1.084  -0.996  0.00  0.00    +0.007 A 
ATOM      2  C   UNL     1       9.823   0.097  -1.125  0.00  0.00    +0.085 A 
ATOM      3  N   UNL     1       9.186   1.359  -1.126  0.00  0.00    -0.216 NA
ATOM      4  C   UNL     1       9.904   2.427  -1.257  0.00  0.00    +0.194 A 
ATOM      5  N   UNL     1      11.259   2.400  -1.382  0.00  0.00    -0.295 N 
ATOM      6  H   UNL     1      11.782   3.259  -1.427  0.00  0.00    +0.172 HD
ATOM      7  C   UNL     1      11.997   1.249  -1.360  0.00  0.00    +0.260 A 
ATOM      8  O   UNL     1      13.222   1.259  -1.427  0.00  0.00    -0.267 OA
ATOM      9  N   UNL     1       9.333   3.656  -1.292  0.00  0.00    -0.329 N 
ATOM     10  H   UNL     1       9.795   4.363  -1.847  0.00  0.00    +0.145 HD
ATOM     11  H   UNL     1       8.331   3.610  -1.458  0.00  0.00    +0.145 HD
ATOM     12  C   UNL     1      11.221   0.000  -1.259  0.00  0.00    +0.067 A 
ATOM     13  C   UNL     1      11.906  -1.219  -1.301  0.00  0.00    +0.043 A 
ATOM     14  C   UNL     1      11.110  -2.358  -1.267  0.00  0.00    +0.067 A 
ATOM     15  N   UNL     1      11.422  -3.689  -1.345  0.00  0.00    -0.344 N 
ATOM     16  H   UNL     1      12.349  -4.075  -1.451  0.00  0.00    +0.167 HD
ATOM     17  C   UNL     1      10.256  -4.394  -1.289  0.00  0.00    +0.197 A 
ATOM     18  N   UNL     1       9.220  -3.602  -1.127  0.00  0.00    -0.236 NA
ATOM     19  C   UNL     1       9.725  -2.320  -1.127  0.00  0.00    +0.094 A 
ENDROOT
BRANCH   1  20
ATOM     20  C   UNL     1       7.559  -1.045  -0.676  0.00  0.00    +0.044 C 
BRANCH  20  21
ATOM     21  C   UNL     1       6.637  -1.122  -1.902  0.00  0.00    +0.040 C 
BRANCH  21  26
ATOM     22  C   UNL     1       0.841  -1.606  -1.184  0.00  0.00    +0.044 C 
ATOM     23  C   UNL     1       2.323  -1.409  -1.317  0.00  0.00    -0.050 A 
ATOM     24  C   UNL     1       3.196  -1.968  -0.379  0.00  0.00    +0.003 A 
ATOM     25  C   UNL     1       4.586  -1.854  -0.532  0.00  0.00    +0.004 A 
ATOM     26  C   UNL     1       5.140  -1.166  -1.621  0.00  0.00    -0.047 A 
ATOM     27  C   UNL     1       4.253  -0.595  -2.549  0.00  0.00    +0.004 A 
ATOM     28  C   UNL     1       2.865  -0.711  -2.399  0.00  0.00    +0.003 A 
ENDBRANCH  21  26
ENDBRANCH  20  21
ENDBRANCH   1  20
TORSDOF 3
