REMARK  Name = 
REMARK  12 active torsions:
REMARK  status: ('A' for Active; 'I' for Inactive)
REMARK    1  A    between atoms: C_2  and  N_8
REMARK    2  A    between atoms: C_9  and  C_11
REMARK    3  A    between atoms: C_11  and  C_12
REMARK    4  A    between atoms: C_12  and  C_14
REMARK    5  A    between atoms: C_14  and  C_15
REMARK    6  A    between atoms: C_15  and  C_16
REMARK    7  A    between atoms: C_16  and  C_17
REMARK    8  A    between atoms: C_17  and  C_18
REMARK    9  A    between atoms: C_18  and  C_19
REMARK   10  A    between atoms: C_19  and  C_20
REMARK   11  A    between atoms: C_20  and  C_21
REMARK   12  A    between atoms: C_21  and  C_22
REMARK                            x       y       z     vdW  Elec       q    Type
REMARK                         _______ _______ _______ _____ _____    ______ ____
ROOT
ATOM      1  C   UNL     1      -1.476   0.399   1.222  0.00  0.00    +0.170 C 
ENDROOT
BRANCH   1   4
ATOM      2  N   UNL     1       0.671  -0.623   0.726  0.00  0.00    -0.304 N 
ATOM      3  H   UNL     1       0.989   0.306   0.468  0.00  0.00    +0.149 HD
ATOM      4  C   UNL     1      -0.560  -0.789   1.321  0.00  0.00    +0.221 C 
ATOM      5  O   UNL     1      -0.911  -1.838   1.848  0.00  0.00    -0.275 OA
BRANCH   2   6
ATOM      6  C   UNL     1       1.684  -1.655   0.827  0.00  0.00    +0.160 C 
ATOM      7  C   UNL     1       3.023  -1.203   0.244  0.00  0.00    +0.233 C 
ATOM      8  O   UNL     1       3.532  -0.101   0.356  0.00  0.00    -0.274 OA
ATOM      9  N   UNL     1       3.571  -2.270  -0.440  0.00  0.00    -0.314 N 
ATOM     10  H   UNL     1       4.493  -2.213  -0.853  0.00  0.00    +0.149 HD
ATOM     11  C   UNL     1       2.736  -3.432  -0.393  0.00  0.00    +0.106 C 
ATOM     12  C   UNL     1       1.370  -2.889  -0.018  0.00  0.00    +0.050 C 
ENDBRANCH   2   6
ENDBRANCH   1   4
BRANCH   1  13
ATOM     13  C   UNL     1      -1.962   0.843   2.576  0.00  0.00    +0.142 C 
ATOM     14  O   UNL     1      -1.163   1.226   3.432  0.00  0.00    -0.297 OA
BRANCH  13  15
ATOM     15  C   UNL     1      -3.465   0.842   2.805  0.00  0.00    +0.075 C 
BRANCH  15  16
ATOM     16  C   UNL     1      -3.807   1.263   4.232  0.00  0.00    +0.007 C 
BRANCH  16  17
ATOM     17  C   UNL     1      -5.311   1.331   4.485  0.00  0.00    +0.000 C 
BRANCH  17  18
ATOM     18  C   UNL     1      -5.583   1.761   5.930  0.00  0.00    +0.000 C 
BRANCH  18  19
ATOM     19  C   UNL     1      -7.077   1.846   6.231  0.00  0.00    +0.000 C 
BRANCH  19  20
ATOM     20  C   UNL     1      -7.320   2.279   7.679  0.00  0.00    -0.000 C 
BRANCH  20  21
ATOM     21  C   UNL     1      -8.814   2.367   7.984  0.00  0.00    -0.000 C 
BRANCH  21  22
ATOM     22  C   UNL     1      -9.067   2.798   9.427  0.00  0.00    -0.003 C 
ATOM     23  C   UNL     1     -10.557   2.881   9.721  0.00  0.00    +0.004 C 
ENDBRANCH  21  22
ENDBRANCH  20  21
ENDBRANCH  19  20
ENDBRANCH  18  19
ENDBRANCH  17  18
ENDBRANCH  16  17
ENDBRANCH  15  16
ENDBRANCH  13  15
ENDBRANCH   1  13
TORSDOF 11
