REMARK  Name = 
REMARK  8 active torsions:
REMARK  status: ('A' for Active; 'I' for Inactive)
REMARK    1  A    between atoms: C_1  and  C_2
REMARK    2  A    between atoms: C_2  and  C_3
REMARK    3  A    between atoms: C_3  and  S_4
REMARK    4  A    between atoms: S_4  and  N_7
REMARK    5  A    between atoms: N_7  and  C_8
REMARK    6  A    between atoms: C_11  and  C_12
REMARK    7  A    between atoms: C_12  and  C_14
REMARK    8  A    between atoms: C_20  and  C_23
REMARK                            x       y       z     vdW  Elec       q    Type
REMARK                         _______ _______ _______ _____ _____    ______ ____
ROOT
ATOM      1  C   UNL     1       9.066  -6.177   0.080  0.00  0.00    +0.201 C 
ATOM      2  O   UNL     1      10.227  -6.451   0.373  0.00  0.00    -0.286 OA
ENDROOT
BRANCH   1   3
ATOM      3  C   UNL     1       8.120  -7.234  -0.292  0.00  0.00    +0.049 A 
ATOM      4  C   UNL     1       6.909  -7.197  -1.061  0.00  0.00    +0.030 A 
ATOM      5  C   UNL     1       6.299  -8.439  -0.925  0.00  0.00    +0.139 A 
ATOM      6  N   UNL     1       5.080  -8.803  -1.357  0.00  0.00    -0.237 NA
ATOM      7  C   UNL     1       4.428  -7.803  -2.006  0.00  0.00    +0.121 A 
ATOM      8  C   UNL     1       4.924  -6.528  -2.300  0.00  0.00    +0.001 A 
ATOM      9  N   UNL     1       7.168  -9.265  -0.274  0.00  0.00    -0.345 N 
ATOM     10  H   UNL     1       6.984 -10.240  -0.085  0.00  0.00    +0.167 HD
ATOM     11  C   UNL     1       6.216  -6.242  -1.829  0.00  0.00    +0.022 A 
ATOM     12  C   UNL     1       8.286  -8.561   0.087  0.00  0.00    +0.096 A 
BRANCH   8  13
ATOM     13  C   UNL     1       4.150  -5.519  -3.051  0.00  0.00    -0.016 A 
ATOM     14  C   UNL     1       4.785  -4.663  -3.973  0.00  0.00    +0.010 A 
ATOM     15  C   UNL     1       4.073  -3.690  -4.681  0.00  0.00    +0.020 A 
ATOM     16  C   UNL     1       2.703  -3.562  -4.488  0.00  0.00    +0.041 A 
ATOM     17 CL   UNL     1       1.822  -2.377  -5.367  0.00  0.00    -0.084 Cl
ATOM     18  C   UNL     1       2.045  -4.393  -3.585  0.00  0.00    +0.020 A 
ATOM     19  C   UNL     1       2.764  -5.359  -2.870  0.00  0.00    +0.010 A 
ENDBRANCH   8  13
ENDBRANCH   1   3
BRANCH   1  25
ATOM     20  C   UNL     1       6.949  -3.016   0.402  0.00  0.00    +0.084 A 
ATOM     21  C   UNL     1       7.882  -2.036   0.072  0.00  0.00    +0.030 A 
ATOM     22  C   UNL     1       9.196  -2.412  -0.223  0.00  0.00    +0.041 A 
ATOM     23  C   UNL     1       9.558  -3.760  -0.211  0.00  0.00    +0.137 A 
ATOM     24  F   UNL     1      10.807  -4.069  -0.586  0.00  0.00    -0.205 F 
ATOM     25  C   UNL     1       8.640  -4.755   0.139  0.00  0.00    +0.094 A 
ATOM     26  C   UNL     1       7.354  -4.354   0.517  0.00  0.00    +0.159 A 
ATOM     27  F   UNL     1       6.451  -5.252   0.943  0.00  0.00    -0.203 F 
BRANCH  20  28
ATOM     28  N   UNL     1       5.564  -2.643   0.573  0.00  0.00    -0.218 N 
ATOM     29  H   UNL     1       4.953  -3.402   0.256  0.00  0.00    +0.173 HD
BRANCH  28  30
ATOM     30  S   UNL     1       5.084  -2.281   2.169  0.00  0.00    +0.043 S 
ATOM     31  O   UNL     1       4.562  -3.514   2.713  0.00  0.00    -0.155 OA
ATOM     32  O   UNL     1       6.142  -1.538   2.817  0.00  0.00    -0.155 OA
BRANCH  30  33
ATOM     33  C   UNL     1       3.707  -1.169   1.854  0.00  0.00    +0.188 C 
BRANCH  33  35
ATOM     34  C   UNL     1       1.922   0.288   2.914  0.00  0.00    +0.005 C 
ATOM     35  C   UNL     1       3.100  -0.649   3.155  0.00  0.00    +0.021 C 
ENDBRANCH  33  35
ENDBRANCH  30  33
ENDBRANCH  28  30
ENDBRANCH  20  28
ENDBRANCH   1  25
TORSDOF 7
