REMARK  Name = 
REMARK  4 active torsions:
REMARK  status: ('A' for Active; 'I' for Inactive)
REMARK    1  A    between atoms: C_5  and  N_6
REMARK    2  A    between atoms: C_7  and  C_9
REMARK    3  A    between atoms: C_13  and  N_14
REMARK    4  A    between atoms: C_15  and  C_17
REMARK                            x       y       z     vdW  Elec       q    Type
REMARK                         _______ _______ _______ _____ _____    ______ ____
ROOT
ATOM      1  C   UNL     1       8.743  -1.054  -0.853  0.00  0.00    +0.168 A 
ATOM      2  C   UNL     1       9.507  -2.235  -1.119  0.00  0.00    +0.084 A 
ATOM      3  C   UNL     1      10.710  -1.764  -1.581  0.00  0.00    +0.129 A 
ATOM      4  N   UNL     1      10.623  -0.406  -1.584  0.00  0.00    -0.282 N 
ATOM      5  H   UNL     1      11.346   0.257  -1.850  0.00  0.00    +0.188 HD
ATOM      6  N   UNL     1       9.433   0.065  -1.160  0.00  0.00    -0.167 NA
ENDROOT
BRANCH   1   9
ATOM      7  N   UNL     1       6.951   0.263   0.048  0.00  0.00    -0.280 N 
ATOM      8  H   UNL     1       7.505   1.015  -0.358  0.00  0.00    +0.155 HD
ATOM      9  C   UNL     1       7.409  -1.012  -0.241  0.00  0.00    +0.270 C 
ATOM     10  O   UNL     1       6.799  -2.061  -0.023  0.00  0.00    -0.268 OA
BRANCH   7  15
ATOM     11  F   UNL     1       2.455   1.603   3.008  0.00  0.00    -0.205 F 
ATOM     12  C   UNL     1       3.548   1.278   2.307  0.00  0.00    +0.124 A 
ATOM     13  C   UNL     1       4.170   2.233   1.510  0.00  0.00    +0.040 A 
ATOM     14  C   UNL     1       5.311   1.892   0.775  0.00  0.00    +0.026 A 
ATOM     15  C   UNL     1       5.813   0.584   0.816  0.00  0.00    +0.034 A 
ATOM     16  C   UNL     1       5.182  -0.354   1.642  0.00  0.00    +0.026 A 
ATOM     17  C   UNL     1       4.053  -0.010   2.388  0.00  0.00    +0.040 A 
ENDBRANCH   7  15
ENDBRANCH   1   9
BRANCH   2  18
ATOM     18  N   UNL     1       9.130  -3.562  -0.915  0.00  0.00    -0.278 N 
ATOM     19  H   UNL     1       8.171  -3.703  -0.601  0.00  0.00    +0.155 HD
ATOM     20  C   UNL     1      10.025  -4.619  -0.895  0.00  0.00    +0.248 C 
ATOM     21  O   UNL     1      11.237  -4.536  -1.073  0.00  0.00    -0.270 OA
BRANCH  20  22
ATOM     22  C   UNL     1       9.471  -5.954  -0.540  0.00  0.00    +0.037 A 
ATOM     23  C   UNL     1      10.263  -6.788   0.264  0.00  0.00    +0.013 A 
ATOM     24  C   UNL     1       9.814  -8.058   0.626  0.00  0.00    +0.001 A 
ATOM     25  C   UNL     1       8.577  -8.509   0.172  0.00  0.00    +0.000 A 
ATOM     26  C   UNL     1       7.795  -7.695  -0.653  0.00  0.00    +0.001 A 
ATOM     27  C   UNL     1       8.237  -6.415  -1.011  0.00  0.00    +0.013 A 
ENDBRANCH  20  22
ENDBRANCH   2  18
TORSDOF 4
