REMARK  Name = 
REMARK  5 active torsions:
REMARK  status: ('A' for Active; 'I' for Inactive)
REMARK    1  A    between atoms: O_1  and  C_2
REMARK    2  A    between atoms: C_3  and  C_19
REMARK    3  A    between atoms: N_6  and  C_7
REMARK    4  A    between atoms: C_7  and  C_8
REMARK    5  A    between atoms: C_8  and  C_9
REMARK                            x       y       z     vdW  Elec       q    Type
REMARK                         _______ _______ _______ _____ _____    ______ ____
ROOT
ATOM      1  C   UNL     1       2.330   0.031   0.118  0.00  0.00    +0.146 A 
ATOM      2  C   UNL     1       3.094   1.287   0.055  0.00  0.00    +0.044 A 
ATOM      3  C   UNL     1       2.437   2.531   0.026  0.00  0.00    +0.052 A 
ATOM      4  C   UNL     1       3.164   3.711  -0.061  0.00  0.00    +0.124 A 
ATOM      5  C   UNL     1       4.548   3.690  -0.100  0.00  0.00    +0.040 A 
ATOM      6  C   UNL     1       5.216   2.464  -0.061  0.00  0.00    +0.029 A 
ATOM      7  F   UNL     1       2.523   4.886  -0.111  0.00  0.00    -0.205 F 
ATOM      8  C   UNL     1       4.504   1.252  -0.006  0.00  0.00    +0.056 A 
ATOM      9  N   UNL     1       5.160  -0.015  -0.029  0.00  0.00    -0.307 N 
ATOM     10  C   UNL     1       4.446  -1.205   0.009  0.00  0.00    +0.270 A 
ATOM     11  O   UNL     1       5.000  -2.309   0.013  0.00  0.00    -0.267 OA
ATOM     12  C   UNL     1       2.957  -1.157   0.052  0.00  0.00    +0.173 A 
ENDROOT
BRANCH  12  13
ATOM     13  C   UNL     1       2.162  -2.430  -0.009  0.00  0.00    +0.351 C 
ATOM     14  N   UNL     1       2.790  -3.455  -0.721  0.00  0.00    -0.090 N 
ATOM     15  H   UNL     1       3.811  -3.529  -0.627  0.00  0.00    +0.326 HD
ATOM     16  S   UNL     1       2.076  -4.880  -1.134  0.00  0.00    +0.136 S 
ATOM     17  O   UNL     1       1.647  -4.790  -2.511  0.00  0.00    -0.130 OA
ATOM     18  O   UNL     1       2.964  -5.928  -0.681  0.00  0.00    -0.130 OA
ATOM     19  C   UNL     1       0.656  -4.920  -0.133  0.00  0.00    +0.179 A 
ATOM     20  C   UNL     1       0.304  -3.772   0.568  0.00  0.00    +0.205 A 
ATOM     21  C   UNL     1      -0.825  -3.857   1.393  0.00  0.00    +0.057 A 
ATOM     22  C   UNL     1      -1.574  -5.038   1.490  0.00  0.00    +0.004 A 
ATOM     23  C   UNL     1      -1.210  -6.162   0.753  0.00  0.00    +0.002 A 
ATOM     24  C   UNL     1      -0.085  -6.107  -0.062  0.00  0.00    +0.035 A 
ATOM     25  N   UNL     1       0.992  -2.543   0.535  0.00  0.00    -0.037 NA
ENDBRANCH  12  13
BRANCH   1  26
ATOM     26  O   UNL     1       0.958   0.186   0.216  0.00  0.00    -0.505 OA
ATOM     27  H   UNL     1       0.545  -0.689   0.380  0.00  0.00    +0.292 HD
ENDBRANCH   1  26
BRANCH   9  28
ATOM     28  C   UNL     1       6.625  -0.118  -0.081  0.00  0.00    +0.126 C 
BRANCH  28  29
ATOM     29  C   UNL     1       7.267  -0.141   1.312  0.00  0.00    +0.025 C 
BRANCH  29  30
ATOM     30  C   UNL     1       8.769  -0.189   1.235  0.00  0.00    -0.009 C 
ATOM     31  C   UNL     1       9.524  -1.454   1.563  0.00  0.00    +0.004 C 
ATOM     32  C   UNL     1       9.571  -0.286   2.508  0.00  0.00    +0.004 C 
ENDBRANCH  29  30
ENDBRANCH  28  29
ENDBRANCH   9  28
TORSDOF 5
