REMARK  Name = 
REMARK  6 active torsions:
REMARK  status: ('A' for Active; 'I' for Inactive)
REMARK    1  A    between atoms: O_1  and  C_2
REMARK    2  A    between atoms: C_2  and  C_4
REMARK    3  A    between atoms: C_5  and  C_18
REMARK    4  A    between atoms: C_7  and  C_12
REMARK    5  A    between atoms: C_8  and  C_9
REMARK    6  A    between atoms: C_9  and  O_10
REMARK                            x       y       z     vdW  Elec       q    Type
REMARK                         _______ _______ _______ _____ _____    ______ ____
ROOT
ATOM      1  C   UNL     1       3.177   0.726   1.167  0.00  0.00    +0.119 A 
ATOM      2  C   UNL     1       3.950  -0.048   2.100  0.00  0.00    +0.119 A 
ATOM      3  C   UNL     1       4.349   0.830   3.098  0.00  0.00    +0.150 A 
ATOM      4  O   UNL     1       3.903   2.093   2.802  0.00  0.00    -0.453 OA
ATOM      5  C   UNL     1       3.217   2.037   1.614  0.00  0.00    +0.150 A 
ENDROOT
BRANCH   3   6
ATOM      6  C   UNL     1       5.197   0.709   4.289  0.00  0.00    +0.018 A 
ATOM      7  C   UNL     1       6.313  -0.146   4.281  0.00  0.00    +0.011 A 
ATOM      8  C   UNL     1       7.151  -0.261   5.394  0.00  0.00    +0.001 A 
ATOM      9  C   UNL     1       6.889   0.481   6.539  0.00  0.00    +0.000 A 
ATOM     10  C   UNL     1       5.777   1.322   6.576  0.00  0.00    +0.001 A 
ATOM     11  C   UNL     1       4.936   1.435   5.460  0.00  0.00    +0.011 A 
ENDBRANCH   3   6
BRANCH   5  12
ATOM     12  C   UNL     1       2.707   3.314   1.094  0.00  0.00    +0.018 A 
ATOM     13  C   UNL     1       3.395   4.519   1.298  0.00  0.00    +0.011 A 
ATOM     14  C   UNL     1       2.973   5.708   0.678  0.00  0.00    +0.001 A 
ATOM     15  C   UNL     1       1.856   5.709  -0.153  0.00  0.00    +0.000 A 
ATOM     16  C   UNL     1       1.139   4.533  -0.341  0.00  0.00    +0.001 A 
ATOM     17  C   UNL     1       1.553   3.354   0.291  0.00  0.00    +0.011 A 
ENDBRANCH   5  12
BRANCH   1  18
ATOM     18  C   UNL     1       2.543   0.266  -0.052  0.00  0.00    +0.341 C 
ATOM     19  O   UNL     1       2.597   0.863  -1.114  0.00  0.00    -0.245 OA
BRANCH  18  20
ATOM     20  O   UNL     1       1.949  -0.948   0.040  0.00  0.00    -0.477 OA
ATOM     21  H   UNL     1       1.895  -1.334   0.936  0.00  0.00    +0.295 HD
ENDBRANCH  18  20
ENDBRANCH   1  18
BRANCH   2  22
ATOM     22  C   UNL     1       4.274  -1.461   2.047  0.00  0.00    +0.341 C 
ATOM     23  O   UNL     1       4.310  -2.185   3.028  0.00  0.00    -0.245 OA
BRANCH  22  24
ATOM     24  O   UNL     1       4.480  -1.958   0.803  0.00  0.00    -0.477 OA
ATOM     25  H   UNL     1       4.523  -1.310   0.074  0.00  0.00    +0.295 HD
ENDBRANCH  22  24
ENDBRANCH   2  22
TORSDOF 6
