REMARK  Name = 
REMARK  3 active torsions:
REMARK  status: ('A' for Active; 'I' for Inactive)
REMARK    1  A    between atoms: C_2  and  O_3
REMARK    2  A    between atoms: N_9  and  C_14
REMARK    3  A    between atoms: C_17  and  C_18
REMARK                            x       y       z     vdW  Elec       q    Type
REMARK                         _______ _______ _______ _____ _____    ______ ____
ROOT
ATOM      1  C   UNL     1       1.944   0.071  -0.084  0.00  0.00    +0.145 C 
ATOM      2  C   UNL     1       2.462   1.472  -0.383  0.00  0.00    +0.193 C 
ATOM      3  N   UNL     1       3.308   1.841   0.721  0.00  0.00    -0.271 N 
ATOM      4  C   UNL     1       3.101   3.166   1.102  0.00  0.00    +0.316 C 
ATOM      5  N   UNL     1       2.120   3.693   0.283  0.00  0.00    -0.192 N 
ATOM      6  O   UNL     1       3.605   3.674   2.092  0.00  0.00    -0.252 OA
ATOM      7  C   UNL     1       3.478   0.796   1.701  0.00  0.00    +0.113 C 
ATOM      8  C   UNL     1       1.524   2.675  -0.432  0.00  0.00    +0.251 C 
ATOM      9  O   UNL     1       0.480   2.720  -1.066  0.00  0.00    -0.273 OA
ATOM     10  C   UNL     1       2.639  -0.378   1.209  0.00  0.00    +0.053 C 
ENDROOT
BRANCH   5  11
ATOM     11  C   UNL     1       1.547   4.970   0.515  0.00  0.00    +0.053 A 
ATOM     12  C   UNL     1       2.332   6.157   0.412  0.00  0.00    +0.005 A 
ATOM     13  C   UNL     1       1.734   7.417   0.708  0.00  0.00    +0.001 A 
ATOM     14  C   UNL     1       2.526   8.586   0.598  0.00  0.00    +0.010 A 
ATOM     15  C   UNL     1       3.859   8.538   0.190  0.00  0.00    +0.001 A 
ATOM     16  C   UNL     1       4.432   7.321  -0.133  0.00  0.00    +0.001 A 
ATOM     17  C   UNL     1       0.369   7.457   1.089  0.00  0.00    +0.060 A 
ATOM     18  C   UNL     1      -0.388   6.282   1.161  0.00  0.00    +0.021 A 
ATOM     19  C   UNL     1       3.679   6.152  -0.028  0.00  0.00    +0.010 A 
ATOM     20  C   UNL     1       0.192   5.052   0.865  0.00  0.00    +0.026 A 
BRANCH  17  21
ATOM     21  C   UNL     1      -0.294   8.695   1.402  0.00  0.00    +0.100 C 
ATOM     22  N   UNL     1      -0.833   9.692   1.656  0.00  0.00    -0.191 NA
ENDBRANCH  17  21
ENDBRANCH   5  11
BRANCH   1  23
ATOM     23  O   UNL     1       0.539  -0.065   0.047  0.00  0.00    -0.389 OA
ATOM     24  H   UNL     1       0.197   0.572   0.697  0.00  0.00    +0.210 HD
ENDBRANCH   1  23
TORSDOF 3
