REMARK  Name = 
REMARK  3 active torsions:
REMARK  status: ('A' for Active; 'I' for Inactive)
REMARK    1  A    between atoms: O_1  and  C_2
REMARK    2  A    between atoms: C_11  and  C_12
REMARK    3  A    between atoms: C_18  and  O_19
REMARK                            x       y       z     vdW  Elec       q    Type
REMARK                         _______ _______ _______ _____ _____    ______ ____
ROOT
ATOM      1  C   UNL     1       2.284  -0.094  -0.115  0.00  0.00    +0.162 A 
ATOM      2  C   UNL     1       3.058  -1.230   0.084  0.00  0.00    +0.202 A 
ATOM      3  C   UNL     1       4.445  -1.106   0.185  0.00  0.00    +0.184 A 
ATOM      4  O   UNL     1       5.176  -2.299   0.336  0.00  0.00    -0.418 OA
ATOM      5  C   UNL     1       6.555  -2.283   0.356  0.00  0.00    +0.338 A 
ATOM      6  C   UNL     1       7.209  -0.969   0.376  0.00  0.00    +0.101 A 
ATOM      7  C   UNL     1       6.546   0.194   0.277  0.00  0.00    -0.000 A 
ATOM      8  O   UNL     1       7.219  -3.313   0.383  0.00  0.00    -0.245 OA
ATOM      9  C   UNL     1       5.084   0.134   0.117  0.00  0.00    +0.029 A 
ATOM     10  C   UNL     1       4.290   1.269  -0.096  0.00  0.00    +0.016 A 
ATOM     11  C   UNL     1       2.896   1.155  -0.218  0.00  0.00    +0.050 A 
ENDROOT
BRANCH   7  12
ATOM     12  C   UNL     1       7.394   1.400   0.354  0.00  0.00    -0.017 A 
ATOM     13  C   UNL     1       7.737   1.942   1.601  0.00  0.00    +0.008 A 
ATOM     14  C   UNL     1       8.649   2.998   1.683  0.00  0.00    +0.001 A 
ATOM     15  C   UNL     1       9.220   3.519   0.522  0.00  0.00    +0.000 A 
ATOM     16  C   UNL     1       8.866   2.999  -0.722  0.00  0.00    +0.001 A 
ATOM     17  C   UNL     1       7.954   1.944  -0.808  0.00  0.00    +0.008 A 
ENDBRANCH   7  12
BRANCH   1  18
ATOM     18  O   UNL     1       0.928  -0.216  -0.215  0.00  0.00    -0.503 OA
ATOM     19  H   UNL     1       0.529   0.662  -0.314  0.00  0.00    +0.292 HD
ENDBRANCH   1  18
BRANCH   2  20
ATOM     20  O   UNL     1       2.463  -2.459   0.177  0.00  0.00    -0.501 OA
ATOM     21  H   UNL     1       3.170  -3.115   0.313  0.00  0.00    +0.292 HD
ENDBRANCH   2  20
TORSDOF 3
