REMARK  Name = 
REMARK  14 active torsions:
REMARK  status: ('A' for Active; 'I' for Inactive)
REMARK    1  A    between atoms: C_2  and  C_3
REMARK    2  A    between atoms: C_2  and  C_11
REMARK    3  A    between atoms: C_2  and  O_17
REMARK    4  A    between atoms: C_3  and  O_4
REMARK    5  A    between atoms: O_4  and  C_5
REMARK    6  A    between atoms: C_5  and  C_7
REMARK    7  A    between atoms: C_7  and  C_8
REMARK    8  A    between atoms: C_8  and  C_9
REMARK    9  A    between atoms: C_9  and  C_10
REMARK   10  A    between atoms: C_11  and  O_12
REMARK   11  A    between atoms: O_12  and  P_13
REMARK   12  A    between atoms: P_13  and  O_14
REMARK   13  A    between atoms: P_13  and  O_15
REMARK   14  A    between atoms: O_17  and  C_18
REMARK                            x       y       z     vdW  Elec       q    Type
REMARK                         _______ _______ _______ _____ _____    ______ ____
ROOT
ATOM      1  C   UNL     1       1.925   0.040   0.162  0.00  0.00    +0.239 C 
ENDROOT
BRANCH   1   2
ATOM      2  O   UNL     1       2.390  -1.077  -0.648  0.00  0.00    -0.458 OA
BRANCH   2   3
ATOM      3  C   UNL     1       3.714  -1.116  -0.939  0.00  0.00    +0.446 C 
ATOM      4  O   UNL     1       4.556  -0.305  -0.601  0.00  0.00    -0.255 OA
ENDBRANCH   2   3
ENDBRANCH   1   2
BRANCH   1   5
ATOM      5  C   UNL     1       0.388   0.035   0.050  0.00  0.00    +0.220 C 
BRANCH   5   6
ATOM      6  O   UNL     1      -0.203   1.147   0.697  0.00  0.00    -0.283 OA
BRANCH   6   7
ATOM      7  P   UNL     1      -1.931   1.199   0.622  0.00  0.00    +0.472 P 
ATOM      8  O   UNL     1      -3.477   1.246   0.555  0.00  0.00    -0.228 OA
BRANCH   7   9
ATOM      9  O   UNL     1      -1.768   2.766   0.197  0.00  0.00    -0.303 OA
ATOM     10  H   UNL     1      -2.593   3.195   0.499  0.00  0.00    +0.222 HD
ENDBRANCH   7   9
BRANCH   7  11
ATOM     11  O   UNL     1      -1.839   1.422   2.241  0.00  0.00    -0.303 OA
ATOM     12  H   UNL     1      -1.427   0.646   2.674  0.00  0.00    +0.222 HD
ENDBRANCH   7  11
ENDBRANCH   6   7
ENDBRANCH   5   6
ENDBRANCH   1   5
BRANCH   1  13
ATOM     13  C   UNL     1       2.422  -0.140   1.608  0.00  0.00    +0.279 C 
BRANCH  13  14
ATOM     14  O   UNL     1       2.157   0.969   2.475  0.00  0.00    -0.461 OA
BRANCH  14  15
ATOM     15  C   UNL     1       1.111   0.823   3.328  0.00  0.00    +0.307 C 
ATOM     16  O   UNL     1       0.245  -0.045   3.256  0.00  0.00    -0.251 OA
BRANCH  15  17
ATOM     17  C   UNL     1       1.209   1.826   4.447  0.00  0.00    +0.120 C 
BRANCH  17  18
ATOM     18  C   UNL     1       1.754   1.130   5.690  0.00  0.00    +0.011 C 
BRANCH  18  19
ATOM     19  C   UNL     1       1.941   2.106   6.850  0.00  0.00    -0.003 C 
ATOM     20  C   UNL     1       2.460   1.396   8.090  0.00  0.00    +0.004 C 
ENDBRANCH  18  19
ENDBRANCH  17  18
ENDBRANCH  15  17
ENDBRANCH  14  15
ENDBRANCH  13  14
ENDBRANCH   1  13
TORSDOF 13
