REMARK  Name = 
REMARK  8 active torsions:
REMARK  status: ('A' for Active; 'I' for Inactive)
REMARK    1  A    between atoms: C_2  and  C_3
REMARK    2  A    between atoms: C_2  and  C_4
REMARK    3  A    between atoms: C_2  and  C_6
REMARK    4  A    between atoms: C_4  and  S_5
REMARK    5  A    between atoms: C_10  and  S_18
REMARK    6  A    between atoms: C_13  and  C_15
REMARK    7  A    between atoms: C_15  and  O_16
REMARK    8  A    between atoms: S_18  and  C_19
REMARK                            x       y       z     vdW  Elec       q    Type
REMARK                         _______ _______ _______ _____ _____    ______ ____
ROOT
ATOM      1  C   UNL     1       2.696   1.094   1.094  0.00  0.00    +0.220 C 
ATOM      2  N   UNL     1       4.052   1.193   1.346  0.00  0.00    -0.287 N 
ATOM      3  C   UNL     1       5.059   0.121   1.321  0.00  0.00    +0.186 C 
ATOM      4  C   UNL     1       6.404   0.837   1.116  0.00  0.00    +0.050 C 
ATOM      5  C   UNL     1       6.043   2.280   0.746  0.00  0.00    +0.071 C 
ATOM      6  C   UNL     1       4.697   2.497   1.432  0.00  0.00    +0.123 C 
ATOM      7  O   UNL     1       1.989   2.101   1.068  0.00  0.00    -0.275 OA
ENDROOT
BRANCH   1   8
ATOM      8  C   UNL     1       2.097  -0.289   0.823  0.00  0.00    +0.082 C 
ATOM      9  C   UNL     1       2.186  -0.603  -0.674  0.00  0.00    +0.018 C 
BRANCH   8  10
ATOM     10  C   UNL     1       0.646  -0.288   1.334  0.00  0.00    +0.078 C 
BRANCH  10  11
ATOM     11  S   UNL     1      -0.140  -1.929   1.273  0.00  0.00    -0.178 S 
ATOM     12  H   UNL     1      -0.329  -1.966  -0.055  0.00  0.00    +0.102 HD
ENDBRANCH  10  11
ENDBRANCH   8  10
ENDBRANCH   1   8
BRANCH   3  13
ATOM     13  C   UNL     1       5.115  -0.657   2.641  0.00  0.00    +0.325 C 
ATOM     14  O   UNL     1       5.734  -1.701   2.783  0.00  0.00    -0.249 OA
BRANCH  13  15
ATOM     15  O   UNL     1       4.486  -0.041   3.669  0.00  0.00    -0.479 OA
ATOM     16  H   UNL     1       4.082   0.807   3.392  0.00  0.00    +0.295 HD
ENDBRANCH  13  15
ENDBRANCH   3  13
BRANCH   5  17
ATOM     17  S   UNL     1       7.251   3.524   1.314  0.00  0.00    -0.120 S 
BRANCH  17  18
ATOM     18  C   UNL     1       8.739   3.075   0.437  0.00  0.00    +0.008 A 
ATOM     19  C   UNL     1       9.963   3.280   1.086  0.00  0.00    +0.015 A 
ATOM     20  C   UNL     1      11.168   2.979   0.448  0.00  0.00    +0.001 A 
ATOM     21  C   UNL     1      11.160   2.472  -0.849  0.00  0.00    +0.000 A 
ATOM     22  C   UNL     1       9.949   2.275  -1.509  0.00  0.00    +0.001 A 
ATOM     23  C   UNL     1       8.744   2.584  -0.872  0.00  0.00    +0.015 A 
ENDBRANCH  17  18
ENDBRANCH   5  17
TORSDOF 7
