REMARK  Name = 
REMARK  21 active torsions:
REMARK  status: ('A' for Active; 'I' for Inactive)
REMARK    1  A    between atoms: C_2  and  O_3
REMARK    2  A    between atoms: C_2  and  C_4
REMARK    3  A    between atoms: C_2  and  C_22
REMARK    4  A    between atoms: N_6  and  C_7
REMARK    5  A    between atoms: C_7  and  C_8
REMARK    6  A    between atoms: C_8  and  C_9
REMARK    7  A    between atoms: N_11  and  C_12
REMARK    8  A    between atoms: C_12  and  C_13
REMARK    9  A    between atoms: C_13  and  S_14
REMARK   10  A    between atoms: S_14  and  C_15
REMARK   11  A    between atoms: C_15  and  C_17
REMARK   12  A    between atoms: C_17  and  C_18
REMARK   13  A    between atoms: C_18  and  C_19
REMARK   14  A    between atoms: C_19  and  C_20
REMARK   15  A    between atoms: C_20  and  C_21
REMARK   16  A    between atoms: C_22  and  C_23
REMARK   17  A    between atoms: C_22  and  C_24
REMARK   18  A    between atoms: C_22  and  C_25
REMARK   19  A    between atoms: C_25  and  O_26
REMARK   20  A    between atoms: O_26  and  P_27
REMARK   21  A    between atoms: P_27  and  O_29
REMARK                            x       y       z     vdW  Elec       q    Type
REMARK                         _______ _______ _______ _____ _____    ______ ____
ROOT
ATOM      1  C   UNL     1       9.969   0.979   6.391  0.00  0.00    +0.242 C 
ATOM      2  N   UNL     1      11.086   1.548   6.983  0.00  0.00    -0.313 N 
ATOM      3  H   UNL     1      11.025   1.829   7.955  0.00  0.00    +0.149 HD
ATOM      4  O   UNL     1      10.044   0.262   5.389  0.00  0.00    -0.273 OA
ENDROOT
BRANCH   2   5
ATOM      5  C   UNL     1      12.369   1.198   6.420  0.00  0.00    +0.113 C 
BRANCH   5   6
ATOM      6  C   UNL     1      13.572   1.861   7.059  0.00  0.00    +0.114 C 
BRANCH   6   7
ATOM      7  C   UNL     1      14.903   1.480   6.411  0.00  0.00    +0.215 C 
ATOM      8  N   UNL     1      14.853   0.724   5.265  0.00  0.00    -0.314 N 
ATOM      9  H   UNL     1      14.002   0.252   4.991  0.00  0.00    +0.149 HD
ATOM     10  O   UNL     1      15.962   1.871   6.896  0.00  0.00    -0.276 OA
BRANCH   8  11
ATOM     11  C   UNL     1      16.045   0.251   4.586  0.00  0.00    +0.115 C 
BRANCH  11  12
ATOM     12  C   UNL     1      16.586  -1.060   5.162  0.00  0.00    +0.096 C 
BRANCH  12  13
ATOM     13  S   UNL     1      15.351  -2.403   5.025  0.00  0.00    -0.087 S 
BRANCH  13  14
ATOM     14  C   UNL     1      16.302  -3.731   5.693  0.00  0.00    +0.189 C 
ATOM     15  O   UNL     1      17.485  -3.597   5.975  0.00  0.00    -0.285 OA
BRANCH  14  16
ATOM     16  C   UNL     1      15.541  -5.037   5.821  0.00  0.00    +0.086 C 
BRANCH  16  17
ATOM     17  C   UNL     1      16.062  -5.920   6.956  0.00  0.00    +0.008 C 
BRANCH  17  18
ATOM     18  C   UNL     1      15.853  -5.287   8.335  0.00  0.00    +0.000 C 
BRANCH  18  19
ATOM     19  C   UNL     1      16.344  -6.207   9.452  0.00  0.00    -0.003 C 
ATOM     20  C   UNL     1      16.174  -5.559  10.817  0.00  0.00    +0.004 C 
ENDBRANCH  18  19
ENDBRANCH  17  18
ENDBRANCH  16  17
ENDBRANCH  14  16
ENDBRANCH  13  14
ENDBRANCH  12  13
ENDBRANCH  11  12
ENDBRANCH   8  11
ENDBRANCH   6   7
ENDBRANCH   5   6
ENDBRANCH   2   5
BRANCH   1  21
ATOM     21  C   UNL     1       8.621   1.308   7.046  0.00  0.00    +0.208 C 
BRANCH  21  22
ATOM     22  C   UNL     1       7.911   2.526   6.376  0.00  0.00    +0.023 C 
ATOM     23  C   UNL     1       7.712   2.320   4.859  0.00  0.00    +0.016 C 
ATOM     24  C   UNL     1       8.755   3.802   6.584  0.00  0.00    +0.016 C 
BRANCH  22  25
ATOM     25  C   UNL     1       6.528   2.771   7.035  0.00  0.00    +0.179 C 
BRANCH  25  26
ATOM     26  O   UNL     1       5.634   1.695   6.809  0.00  0.00    -0.309 OA
BRANCH  26  27
ATOM     27  P   UNL     1       4.133   1.816   7.397  0.00  0.00    +0.319 P 
ATOM     28  H   UNL     1       3.710   3.111   7.035  0.00  0.00    +0.159 HD
ATOM     29  O   UNL     1       3.347   0.561   7.162  0.00  0.00    -0.262 OA
BRANCH  27  30
ATOM     30  O   UNL     1       4.463   1.913   8.977  0.00  0.00    -0.326 OA
ATOM     31  H   UNL     1       4.657   1.019   9.321  0.00  0.00    +0.220 HD
ENDBRANCH  27  30
ENDBRANCH  26  27
ENDBRANCH  25  26
ENDBRANCH  22  25
ENDBRANCH  21  22
BRANCH  21  32
ATOM     32  O   UNL     1       7.834   0.119   7.007  0.00  0.00    -0.382 OA
ATOM     33  H   UNL     1       7.792  -0.161   6.072  0.00  0.00    +0.210 HD
ENDBRANCH  21  32
ENDBRANCH   1  21
TORSDOF 18
