REMARK  Name = 
REMARK  4 active torsions:
REMARK  status: ('A' for Active; 'I' for Inactive)
REMARK    1  A    between atoms: N_1  and  S_2
REMARK    2  A    between atoms: S_2  and  C_5
REMARK    3  A    between atoms: C_7  and  C_12
REMARK    4  A    between atoms: C_12  and  O_13
REMARK                            x       y       z     vdW  Elec       q    Type
REMARK                         _______ _______ _______ _____ _____    ______ ____
ROOT
ATOM      1  C   UNL     1       3.682  -2.990   0.235  0.00  0.00    +0.124 A 
ATOM      2  C   UNL     1       2.458  -2.739   0.856  0.00  0.00    +0.067 A 
ATOM      3 CL   UNL     1       0.925  -2.861   0.068  0.00  0.00    -0.082 Cl
ATOM      4  C   UNL     1       2.438  -2.397   2.209  0.00  0.00    +0.022 A 
ATOM      5  C   UNL     1       3.624  -2.327   2.945  0.00  0.00    +0.010 A 
ATOM      6  C   UNL     1       4.866  -2.605   2.346  0.00  0.00    +0.009 A 
ATOM      7  C   UNL     1       4.877  -2.930   0.976  0.00  0.00    +0.038 A 
ENDROOT
BRANCH   6   8
ATOM      8  C   UNL     1       6.147  -2.668   3.175  0.00  0.00    +0.187 C 
ATOM      9  C   UNL     1       6.312  -3.992   3.866  0.00  0.00    +0.019 A 
ATOM     10  C   UNL     1       6.269  -3.804   5.247  0.00  0.00    +0.045 A 
ATOM     11  C   UNL     1       6.307  -4.851   6.149  0.00  0.00    +0.013 A 
ATOM     12  C   UNL     1       6.408  -6.141   5.625  0.00  0.00    +0.001 A 
ATOM     13  C   UNL     1       6.488  -6.347   4.235  0.00  0.00    +0.000 A 
ATOM     14  C   UNL     1       6.168  -2.363   5.497  0.00  0.00    +0.247 C 
ATOM     15  O   UNL     1       6.094  -1.827   6.585  0.00  0.00    -0.270 OA
ATOM     16  C   UNL     1       6.444  -5.269   3.344  0.00  0.00    +0.009 A 
ATOM     17  N   UNL     1       6.150  -1.740   4.268  0.00  0.00    -0.276 N 
ATOM     18  H   UNL     1       6.070  -0.739   4.192  0.00  0.00    +0.152 HD
BRANCH   8  19
ATOM     19  O   UNL     1       7.287  -2.372   2.404  0.00  0.00    -0.364 OA
ATOM     20  H   UNL     1       7.146  -1.478   2.059  0.00  0.00    +0.213 HD
ENDBRANCH   8  19
ENDBRANCH   6   8
BRANCH   1  21
ATOM     21  S   UNL     1       3.771  -3.323  -1.499  0.00  0.00    +0.057 S 
ATOM     22  O   UNL     1       3.035  -2.314  -2.213  0.00  0.00    -0.153 OA
ATOM     23  O   UNL     1       5.140  -3.646  -1.835  0.00  0.00    -0.153 OA
BRANCH  21  24
ATOM     24  N   UNL     1       2.935  -4.769  -1.664  0.00  0.00    -0.203 NA
ATOM     25  H   UNL     1       2.029  -4.600  -2.105  0.00  0.00    +0.144 HD
ATOM     26  H   UNL     1       3.514  -5.446  -2.163  0.00  0.00    +0.144 HD
ENDBRANCH  21  24
ENDBRANCH   1  21
TORSDOF 4
