REMARK  Name = 
REMARK  4 active torsions:
REMARK  status: ('A' for Active; 'I' for Inactive)
REMARK    1  A    between atoms: C_1  and  C_2
REMARK    2  A    between atoms: C_9  and  N_10
REMARK    3  A    between atoms: N_10  and  C_11
REMARK    4  A    between atoms: C_14  and  C_17
REMARK                            x       y       z     vdW  Elec       q    Type
REMARK                         _______ _______ _______ _____ _____    ______ ____
ROOT
ATOM      1  N   UNL     1       4.848   2.504   0.150  0.00  0.00    -0.299 N 
ATOM      2  H   UNL     1       5.867   2.482   0.187  0.00  0.00    +0.154 HD
ENDROOT
BRANCH   1   6
ATOM      3  C   UNL     1       0.961  -0.552  -0.121  0.00  0.00    +0.066 C 
ATOM      4  C   UNL     1       2.457  -0.399  -0.066  0.00  0.00    +0.045 A 
ATOM      5  C   UNL     1       2.954   0.996  -0.175  0.00  0.00    +0.067 A 
ATOM      6  C   UNL     1       4.249   1.240   0.096  0.00  0.00    +0.130 A 
ATOM      7  N   UNL     1       5.078   0.098   0.259  0.00  0.00    -0.182 N 
ATOM      8  C   UNL     1       4.546  -1.205   0.218  0.00  0.00    +0.255 A 
ATOM      9  N   UNL     1       5.530  -2.073   0.308  0.00  0.00    -0.197 NA
ATOM     10  C   UNL     1       6.637  -1.290   0.408  0.00  0.00    +0.247 A 
ATOM     11  N   UNL     1       6.430   0.028   0.408  0.00  0.00    -0.151 NA
ATOM     12  N   UNL     1       3.206  -1.444   0.110  0.00  0.00    -0.216 NA
ENDBRANCH   1   6
BRANCH   1  13
ATOM     13  C   UNL     1       4.242   3.777   0.187  0.00  0.00    +0.032 A 
ATOM     14  C   UNL     1       4.922   4.886  -0.332  0.00  0.00    +0.024 A 
ATOM     15  C   UNL     1       4.274   6.124  -0.501  0.00  0.00    +0.014 A 
ATOM     16  C   UNL     1       2.917   6.274  -0.178  0.00  0.00    +0.055 A 
ATOM     17  C   UNL     1       2.252   5.189   0.395  0.00  0.00    +0.014 A 
ATOM     18  C   UNL     1       2.919   3.980   0.604  0.00  0.00    +0.024 A 
BRANCH  16  19
ATOM     19  C   UNL     1       2.186   7.570  -0.433  0.00  0.00    +0.417 C 
ATOM     20  F   UNL     1       2.279   7.979  -1.729  0.00  0.00    -0.166 F 
ATOM     21  F   UNL     1       2.661   8.597   0.323  0.00  0.00    -0.166 F 
ATOM     22  F   UNL     1       0.851   7.498  -0.166  0.00  0.00    -0.166 F 
ENDBRANCH  16  19
ENDBRANCH   1  13
TORSDOF 3
