REMARK  Name = 
REMARK  5 active torsions:
REMARK  status: ('A' for Active; 'I' for Inactive)
REMARK    1  A    between atoms: N_1  and  C_2
REMARK    2  A    between atoms: C_3  and  N_4
REMARK    3  A    between atoms: N_5  and  C_6
REMARK    4  A    between atoms: C_10  and  C_12
REMARK    5  A    between atoms: C_12  and  O_13
REMARK                            x       y       z     vdW  Elec       q    Type
REMARK                         _______ _______ _______ _____ _____    ______ ____
ROOT
ATOM      1  N   UNL     1       2.246  -2.563   0.994  0.00  0.00    -0.132 NA
ATOM      2  N   UNL     1       1.589  -2.844  -0.030  0.00  0.00    -0.149 NA
ENDROOT
BRANCH   1   9
ATOM      3  C   UNL     1       2.431  -0.135   0.423  0.00  0.00    +0.398 C 
ATOM      4  N   UNL     1       3.162   0.915   0.931  0.00  0.00    +0.195 NA
ATOM      5  N   UNL     1       3.858   0.538   1.907  0.00  0.00    +0.201 NA
ATOM      6  C   UNL     1       3.622  -0.797   2.104  0.00  0.00    +0.446 C 
ATOM      7  N   UNL     1       4.198  -1.459   3.047  0.00  0.00    -0.089 NA
ATOM      8  H   UNL     1       3.878  -2.433   3.021  0.00  0.00    +0.364 HD
ATOM      9  C   UNL     1       2.670  -1.270   1.096  0.00  0.00    +0.280 C 
BRANCH   3  10
ATOM     10  N   UNL     1       1.579  -0.017  -0.660  0.00  0.00    -0.241 N 
ATOM     11  H   UNL     1       1.881   0.717  -1.296  0.00  0.00    +0.289 HD
ATOM     12  H   UNL     1       1.401  -0.909  -1.117  0.00  0.00    +0.289 HD
ENDBRANCH   3  10
ENDBRANCH   1   9
BRANCH   2  13
ATOM     13  C   UNL     1       1.193  -4.196  -0.069  0.00  0.00    +0.087 A 
ATOM     14  C   UNL     1      -0.089  -4.496  -0.540  0.00  0.00    +0.044 A 
ATOM     15  C   UNL     1      -0.514  -5.826  -0.672  0.00  0.00    +0.061 A 
ATOM     16  C   UNL     1       0.342  -6.871  -0.307  0.00  0.00    +0.015 A 
ATOM     17  C   UNL     1       1.627  -6.582   0.155  0.00  0.00    +0.003 A 
ATOM     18  C   UNL     1       2.050  -5.255   0.265  0.00  0.00    +0.029 A 
BRANCH  15  19
ATOM     19  C   UNL     1      -1.893  -6.067  -1.166  0.00  0.00    +0.337 C 
ATOM     20  O   UNL     1      -2.805  -5.281  -0.976  0.00  0.00    -0.245 OA
BRANCH  19  21
ATOM     21  O   UNL     1      -2.034  -7.202  -1.880  0.00  0.00    -0.477 OA
ATOM     22  H   UNL     1      -1.206  -7.654  -2.124  0.00  0.00    +0.295 HD
ENDBRANCH  19  21
ENDBRANCH  15  19
ENDBRANCH   2  13
TORSDOF 5
