REMARK  Name = 
REMARK  8 active torsions:
REMARK  status: ('A' for Active; 'I' for Inactive)
REMARK    1  A    between atoms: C_1  and  C_2
REMARK    2  A    between atoms: C_2  and  N_3
REMARK    3  A    between atoms: C_8  and  C_21
REMARK    4  A    between atoms: C_10  and  C_11
REMARK    5  A    between atoms: C_10  and  C_15
REMARK    6  A    between atoms: C_11  and  C_12
REMARK    7  A    between atoms: C_12  and  C_13
REMARK    8  A    between atoms: C_13  and  N_14
REMARK                            x       y       z     vdW  Elec       q    Type
REMARK                         _______ _______ _______ _____ _____    ______ ____
ROOT
ATOM      1  N   UNL     1       3.482  -1.494  -0.607  0.00  0.00    -0.298 N 
ATOM      2  H   UNL     1       2.968  -2.350  -0.774  0.00  0.00    +0.150 HD
ATOM      3  C   UNL     1       4.548  -1.657   0.251  0.00  0.00    +0.323 C 
ATOM      4  N   UNL     1       4.981  -2.966   0.406  0.00  0.00    -0.166 N 
ATOM      5  C   UNL     1       6.079  -3.399   1.326  0.00  0.00    +0.092 C 
ATOM      6  C   UNL     1       5.697  -4.880   1.475  0.00  0.00    +0.090 C 
ATOM      7  C   UNL     1       4.997  -5.101   0.161  0.00  0.00    +0.072 C 
ATOM      8  N   UNL     1       4.496  -4.022  -0.369  0.00  0.00    -0.179 NA
ATOM      9  O   UNL     1       5.018  -0.698   0.861  0.00  0.00    -0.251 OA
ENDROOT
BRANCH   7  10
ATOM     10  C   UNL     1       4.917  -6.453  -0.424  0.00  0.00    +0.036 A 
ATOM     11  C   UNL     1       4.917  -6.604  -1.812  0.00  0.00    +0.051 A 
ATOM     12  C   UNL     1       4.987  -7.886  -2.357  0.00  0.00    +0.124 A 
ATOM     13  F   UNL     1       5.030  -8.035  -3.687  0.00  0.00    -0.205 F 
ATOM     14  C   UNL     1       5.045  -9.018  -1.547  0.00  0.00    +0.041 A 
ATOM     15  C   UNL     1       5.018  -8.870  -0.163  0.00  0.00    +0.042 A 
ATOM     16  C   UNL     1       4.954  -7.592   0.390  0.00  0.00    +0.132 A 
ATOM     17  F   UNL     1       4.942  -7.485   1.726  0.00  0.00    -0.205 F 
ENDBRANCH   7  10
BRANCH   5  18
ATOM     18  C   UNL     1       7.465  -3.166   0.670  0.00  0.00    -0.022 A 
ATOM     19  C   UNL     1       7.946  -1.856   0.476  0.00  0.00    +0.006 A 
ATOM     20  C   UNL     1       9.204  -1.605  -0.083  0.00  0.00    +0.000 A 
ATOM     21  C   UNL     1      10.025  -2.660  -0.456  0.00  0.00    +0.000 A 
ATOM     22  C   UNL     1       9.578  -3.964  -0.287  0.00  0.00    +0.000 A 
ATOM     23  C   UNL     1       8.312  -4.213   0.257  0.00  0.00    +0.006 A 
ENDBRANCH   5  18
BRANCH   1  25
ATOM     24  C   UNL     1       1.669  -0.124  -1.609  0.00  0.00    +0.024 C 
ATOM     25  C   UNL     1       2.849  -0.193  -0.664  0.00  0.00    +0.102 C 
ENDBRANCH   1  25
BRANCH   5  26
ATOM     26  C   UNL     1       5.979  -2.732   2.729  0.00  0.00    +0.034 C 
BRANCH  26  27
ATOM     27  C   UNL     1       6.916  -3.332   3.786  0.00  0.00    +0.017 C 
BRANCH  27  28
ATOM     28  C   UNL     1       6.733  -2.622   5.127  0.00  0.00    +0.078 C 
BRANCH  28  29
ATOM     29  N   UNL     1       7.629  -3.192   6.125  0.00  0.00    -0.330 NA
ATOM     30  H   UNL     1       7.473  -2.729   7.019  0.00  0.00    +0.118 HD
ATOM     31  H   UNL     1       7.409  -4.176   6.268  0.00  0.00    +0.118 HD
ENDBRANCH  28  29
ENDBRANCH  27  28
ENDBRANCH  26  27
ENDBRANCH   5  26
TORSDOF 7
