REMARK  Name = 
REMARK  17 active torsions:
REMARK  status: ('A' for Active; 'I' for Inactive)
REMARK    1  A    between atoms: C_2  and  C_3
REMARK    2  A    between atoms: C_2  and  C_4
REMARK    3  A    between atoms: C_2  and  C_13
REMARK    4  A    between atoms: C_4  and  C_5
REMARK    5  A    between atoms: C_5  and  C_6
REMARK    6  A    between atoms: C_6  and  C_7
REMARK    7  A    between atoms: N_8  and  C_9
REMARK    8  A    between atoms: C_9  and  O_11
REMARK    9  A    between atoms: O_11  and  C_12
REMARK   10  A    between atoms: C_17  and  C_19
REMARK   11  A    between atoms: C_19  and  C_21
REMARK   12  A    between atoms: C_21  and  C_22
REMARK   13  A    between atoms: C_23  and  C_24
REMARK   14  A    between atoms: C_25  and  C_26
REMARK   15  A    between atoms: C_25  and  C_27
REMARK   16  A    between atoms: C_27  and  C_28
REMARK   17  A    between atoms: C_28  and  C_29
REMARK                            x       y       z     vdW  Elec       q    Type
REMARK                         _______ _______ _______ _____ _____    ______ ____
ROOT
ATOM      1  C   UNL     1       2.509   1.204   0.827  0.00  0.00    +0.115 C 
ATOM      2  O   UNL     1       3.315   0.932   1.952  0.00  0.00    -0.429 OA
ATOM      3  C   UNL     1       3.699   1.884   2.842  0.00  0.00    +0.330 C 
ATOM      4  O   UNL     1       4.433   1.594   3.785  0.00  0.00    -0.249 OA
ATOM      5  C   UNL     1       3.193   3.275   2.652  0.00  0.00    +0.238 C 
ATOM      6  C   UNL     1       2.577   3.559   1.318  0.00  0.00    +0.181 C 
ATOM      7  O   UNL     1       2.418   4.705   0.900  0.00  0.00    -0.291 OA
ATOM      8  C   UNL     1       2.133   2.438   0.486  0.00  0.00    +0.089 C 
ENDROOT
BRANCH   1   9
ATOM      9  C   UNL     1       2.145  -0.016   0.003  0.00  0.00    +0.052 C 
ATOM     10  C   UNL     1       1.351  -1.016   0.849  0.00  0.00    +0.015 C 
BRANCH   9  11
ATOM     11  C   UNL     1       3.418  -0.637  -0.611  0.00  0.00    +0.011 C 
BRANCH  11  12
ATOM     12  C   UNL     1       3.120  -1.776  -1.589  0.00  0.00    +0.006 C 
BRANCH  12  13
ATOM     13  C   UNL     1       4.399  -2.343  -2.195  0.00  0.00    +0.045 C 
BRANCH  13  14
ATOM     14  C   UNL     1       4.051  -3.471  -3.130  0.00  0.00    +0.077 C 
ATOM     15  N   UNL     1       4.343  -3.390  -4.384  0.00  0.00    -0.156 NA
BRANCH  15  16
ATOM     16  C   UNL     1       3.984  -4.463  -5.152  0.00  0.00    +0.423 C 
ATOM     17  O   UNL     1       3.384  -5.461  -4.770  0.00  0.00    -0.224 OA
BRANCH  16  18
ATOM     18  O   UNL     1       4.395  -4.256  -6.429  0.00  0.00    -0.452 OA
ATOM     19  C   UNL     1       4.066  -5.318  -7.323  0.00  0.00    +0.282 C 
ENDBRANCH  16  18
ENDBRANCH  15  16
ENDBRANCH  13  14
ENDBRANCH  12  13
ENDBRANCH  11  12
ENDBRANCH   9  11
ENDBRANCH   1   9
BRANCH   5  20
ATOM     20  C   UNL     1       2.241   3.640   3.766  0.00  0.00    +0.180 C 
ATOM     21  O   UNL     1       1.021   3.562   3.579  0.00  0.00    -0.291 OA
BRANCH  20  22
ATOM     22  C   UNL     1       2.767   3.991   5.136  0.00  0.00    -0.007 C 
ATOM     23  C   UNL     1       1.902   3.783   6.151  0.00  0.00    +0.007 C 
ATOM     24  C   UNL     1       4.148   4.542   5.324  0.00  0.00    +0.047 C 
BRANCH  23  25
ATOM     25  C   UNL     1       2.167   4.040   7.552  0.00  0.00    -0.001 C 
ATOM     26  C   UNL     1       1.319   3.847   8.582  0.00  0.00    -0.073 C 
ATOM     27  C   UNL     1      -0.098   3.340   8.473  0.00  0.00    +0.039 C 
BRANCH  26  28
ATOM     28  C   UNL     1       1.773   4.179   9.995  0.00  0.00    +0.030 C 
BRANCH  28  29
ATOM     29  C   UNL     1       1.792   2.989  10.961  0.00  0.00    +0.001 C 
ATOM     30  C   UNL     1       2.704   1.857  10.511  0.00  0.00    +0.004 C 
ENDBRANCH  28  29
ENDBRANCH  26  28
ENDBRANCH  23  25
ENDBRANCH  20  22
ENDBRANCH   5  20
TORSDOF 12
