REMARK  Name = 
REMARK  4 active torsions:
REMARK  status: ('A' for Active; 'I' for Inactive)
REMARK    1  A    between atoms: C_1  and  C_2
REMARK    2  A    between atoms: C_2  and  N_3
REMARK    3  A    between atoms: C_4  and  C_6
REMARK    4  A    between atoms: C_9  and  C_16
REMARK                            x       y       z     vdW  Elec       q    Type
REMARK                         _______ _______ _______ _____ _____    ______ ____
ROOT
ATOM      1  C   UNL     1       5.078   2.518  -1.638  0.00  0.00    +0.076 A 
ATOM      2  S   UNL     1       5.893   2.487  -3.138  0.00  0.00    -0.064 S 
ATOM      3  C   UNL     1       5.731   4.168  -3.337  0.00  0.00    +0.115 A 
ATOM      4  C   UNL     1       5.068   4.783  -2.285  0.00  0.00    +0.035 A 
ATOM      5  C   UNL     1       4.796   6.155  -2.472  0.00  0.00    +0.086 A 
ATOM      6  N   UNL     1       5.299   6.764  -3.587  0.00  0.00    -0.214 NA
ATOM      7  C   UNL     1       5.966   6.056  -4.499  0.00  0.00    +0.214 A 
ATOM      8  N   UNL     1       6.492   6.738  -5.574  0.00  0.00    -0.327 N 
ATOM      9  H   UNL     1       7.279   6.232  -5.960  0.00  0.00    +0.145 HD
ATOM     10  H   UNL     1       6.635   7.709  -5.340  0.00  0.00    +0.145 HD
ATOM     11  N   UNL     1       6.205   4.754  -4.444  0.00  0.00    -0.207 NA
ATOM     12  C   UNL     1       4.836   3.822  -1.241  0.00  0.00    +0.033 A 
ENDROOT
BRANCH   5  13
ATOM     13  C   UNL     1       4.059   7.034  -1.532  0.00  0.00    +0.020 A 
ATOM     14  C   UNL     1       4.486   8.380  -1.411  0.00  0.00    +0.013 A 
ATOM     15  C   UNL     1       3.871   9.290  -0.542  0.00  0.00    +0.021 A 
ATOM     16  C   UNL     1       2.829   8.865   0.267  0.00  0.00    +0.042 A 
ATOM     17 CL   UNL     1       2.091   9.961   1.367  0.00  0.00    -0.083 Cl
ATOM     18  C   UNL     1       2.353   7.566   0.158  0.00  0.00    +0.040 A 
ATOM     19  C   UNL     1       2.922   6.680  -0.774  0.00  0.00    +0.052 A 
ATOM     20 CL   UNL     1       2.018   5.223  -1.030  0.00  0.00    -0.083 Cl
ENDBRANCH   5  13
BRANCH   1  23
ATOM     21  N   UNL     1       4.964   0.123  -1.597  0.00  0.00    -0.311 N 
ATOM     22  H   UNL     1       5.459   0.177  -2.479  0.00  0.00    +0.149 HD
ATOM     23  C   UNL     1       4.699   1.301  -0.931  0.00  0.00    +0.251 C 
ATOM     24  O   UNL     1       4.147   1.317   0.166  0.00  0.00    -0.270 OA
BRANCH  21  26
ATOM     25  C   UNL     1       5.682  -1.730  -0.171  0.00  0.00    +0.024 C 
ATOM     26  C   UNL     1       4.603  -1.176  -1.080  0.00  0.00    +0.101 C 
ENDBRANCH  21  26
ENDBRANCH   1  23
TORSDOF 3
