REMARK  Name = 
REMARK  9 active torsions:
REMARK  status: ('A' for Active; 'I' for Inactive)
REMARK    1  A    between atoms: C_2  and  N_3
REMARK    2  A    between atoms: C_2  and  C_4
REMARK    3  A    between atoms: C_2  and  C_11
REMARK    4  A    between atoms: C_4  and  C_5
REMARK    5  A    between atoms: C_17  and  C_19
REMARK    6  A    between atoms: N_21  and  C_22
REMARK    7  A    between atoms: C_22  and  C_23
REMARK    8  A    between atoms: C_23  and  N_24
REMARK    9  A    between atoms: N_24  and  C_25
REMARK                            x       y       z     vdW  Elec       q    Type
REMARK                         _______ _______ _______ _____ _____    ______ ____
ROOT
ATOM      1  C   UNL     1       2.663  -1.158  -0.845  0.00  0.00    +0.233 C 
ATOM      2  N   UNL     1       4.022  -1.206  -1.078  0.00  0.00    -0.289 N 
ATOM      3  C   UNL     1       4.698  -2.504  -1.186  0.00  0.00    +0.162 C 
ATOM      4  C   UNL     1       6.033  -2.200  -1.876  0.00  0.00    +0.033 C 
ATOM      5  C   UNL     1       5.965  -0.726  -2.271  0.00  0.00    +0.021 C 
ATOM      6  C   UNL     1       4.955  -0.123  -1.315  0.00  0.00    +0.108 C 
ATOM      7  O   UNL     1       2.007  -2.203  -0.832  0.00  0.00    -0.274 OA
ENDROOT
BRANCH   3   8
ATOM      8  C   UNL     1       4.952  -3.152   0.201  0.00  0.00    +0.234 C 
ATOM      9  N   UNL     1       4.572  -2.389   1.285  0.00  0.00    -0.312 N 
ATOM     10  H   UNL     1       3.988  -1.583   1.096  0.00  0.00    +0.149 HD
ATOM     11  O   UNL     1       5.513  -4.240   0.317  0.00  0.00    -0.274 OA
BRANCH   9  12
ATOM     12  C   UNL     1       4.613  -2.872   2.651  0.00  0.00    +0.123 C 
BRANCH  12  13
ATOM     13  C   UNL     1       5.277  -1.846   3.575  0.00  0.00    +0.120 C 
BRANCH  13  14
ATOM     14  N   UNL     1       5.389  -2.361   4.942  0.00  0.00    -0.342 N 
ATOM     15  H   UNL     1       5.752  -3.314   4.954  0.00  0.00    +0.146 HD
BRANCH  14  16
ATOM     16  C   UNL     1       6.079  -1.551   5.861  0.00  0.00    +0.030 A 
ATOM     17  C   UNL     1       6.778  -2.158   6.909  0.00  0.00    +0.042 A 
ATOM     18  C   UNL     1       7.428  -1.361   7.840  0.00  0.00    +0.112 A 
ATOM     19  N   UNL     1       7.404  -0.014   7.824  0.00  0.00    -0.263 NA
ATOM     20  C   UNL     1       6.678   0.556   6.841  0.00  0.00    +0.112 A 
ATOM     21  C   UNL     1       6.000  -0.160   5.864  0.00  0.00    +0.042 A 
ENDBRANCH  14  16
ENDBRANCH  13  14
ENDBRANCH  12  13
ENDBRANCH   9  12
ENDBRANCH   3   8
BRANCH   1  22
ATOM     22  C   UNL     1       2.007   0.208  -0.536  0.00  0.00    +0.142 C 
BRANCH  22  23
ATOM     23  N   UNL     1       2.680   0.836   0.633  0.00  0.00    -0.320 NA
ATOM     24  H   UNL     1       3.604   1.161   0.360  0.00  0.00    +0.119 HD
ATOM     25  H   UNL     1       2.166   1.692   0.860  0.00  0.00    +0.119 HD
ENDBRANCH  22  23
BRANCH  22  26
ATOM     26  C   UNL     1       0.506  -0.037  -0.245  0.00  0.00    +0.063 C 
BRANCH  26  27
ATOM     27  C   UNL     1      -0.310   1.209  -0.008  0.00  0.00    -0.045 A 
ATOM     28  C   UNL     1      -0.508   1.688   1.295  0.00  0.00    +0.004 A 
ATOM     29  C   UNL     1      -1.275   2.830   1.521  0.00  0.00    +0.000 A 
ATOM     30  C   UNL     1      -1.856   3.500   0.445  0.00  0.00    +0.000 A 
ATOM     31  C   UNL     1      -1.671   3.029  -0.853  0.00  0.00    +0.000 A 
ATOM     32  C   UNL     1      -0.898   1.890  -1.081  0.00  0.00    +0.004 A 
ENDBRANCH  26  27
ENDBRANCH  22  26
ENDBRANCH   1  22
TORSDOF 9
