REMARK  Name = 
REMARK  13 active torsions:
REMARK  status: ('A' for Active; 'I' for Inactive)
REMARK    1  A    between atoms: C_1  and  C_2
REMARK    2  A    between atoms: N_4  and  C_5
REMARK    3  A    between atoms: C_5  and  C_7
REMARK    4  A    between atoms: C_5  and  C_21
REMARK    5  A    between atoms: C_7  and  C_8
REMARK    6  A    between atoms: N_10  and  C_11
REMARK    7  A    between atoms: C_11  and  C_13
REMARK    8  A    between atoms: C_11  and  C_18
REMARK    9  A    between atoms: C_13  and  C_14
REMARK   10  A    between atoms: C_14  and  C_15
REMARK   11  A    between atoms: C_15  and  O_16
REMARK   12  A    between atoms: C_18  and  O_19
REMARK   13  A    between atoms: C_21  and  O_22
REMARK                            x       y       z     vdW  Elec       q    Type
REMARK                         _______ _______ _______ _____ _____    ______ ____
ROOT
ATOM      1  C   UNK A   1       6.304   0.114   3.147  0.00  0.00    +0.216 C 
ATOM      2  N   UNK A   1       5.249  -0.458   3.794  0.00  0.00    -0.302 N 
ATOM      3  H   UNK A   1       5.552  -0.727   4.723  0.00  0.00    +0.150 HD
ATOM      4  O   UNK A   1       7.246   0.528   3.821  0.00  0.00    -0.276 OA
ENDROOT
BRANCH   1   5
ATOM      5  C   UNK A   1       6.348   0.155   1.641  0.00  0.00    +0.129 C 
BRANCH   5   6
ATOM      6  C   UNK A   1       7.419  -0.821   1.133  0.00  0.00    +0.190 C 
BRANCH   6   9
ATOM      7  C   UNK A   0       6.568  -1.366  -2.555  0.00  0.00    +0.109 C 
ATOM      8  C   UNK A   0       6.364  -1.382  -1.070  0.00  0.00    +0.211 C 
ATOM      9  N   UNK A   1       7.430  -0.943  -0.332  0.00  0.00    -0.302 N 
ATOM     10  H   UNK A   1       8.284  -0.681  -0.814  0.00  0.00    +0.150 HD
ATOM     11  O   UNK A   0       5.334  -1.781  -0.532  0.00  0.00    -0.276 OA
ENDBRANCH   6   9
BRANCH   6  12
ATOM     12  C   UNK A   1       7.361  -2.184   1.854  0.00  0.00    +0.326 C 
ATOM     13  O   UNK A   1       8.129  -2.504   2.751  0.00  0.00    -0.249 OA
BRANCH  12  14
ATOM     14  O   UNK A   1       6.321  -2.976   1.508  0.00  0.00    -0.479 OA
ATOM     15  H   UNK A   1       5.766  -2.617   0.773  0.00  0.00    +0.295 HD
ENDBRANCH  12  14
ENDBRANCH   6  12
ENDBRANCH   5   6
ENDBRANCH   1   5
BRANCH   2  16
ATOM     16  C   UNK A   1       4.011  -1.009   3.214  0.00  0.00    +0.182 C 
BRANCH  16  17
ATOM     17  C   UNK A   1       3.347  -2.077   4.097  0.00  0.00    +0.325 C 
ATOM     18  O   UNK A   1       2.579  -2.925   3.668  0.00  0.00    -0.249 OA
BRANCH  17  19
ATOM     19  O   UNK A   1       3.529  -1.891   5.427  0.00  0.00    -0.479 OA
ATOM     20  H   UNK A   1       4.004  -1.073   5.656  0.00  0.00    +0.295 HD
ENDBRANCH  17  19
ENDBRANCH  16  17
BRANCH  16  21
ATOM     21  C   UNK A   1       2.991   0.108   2.901  0.00  0.00    +0.045 C 
BRANCH  21  22
ATOM     22  C   UNK A   1       2.436   0.802   4.151  0.00  0.00    +0.123 C 
BRANCH  22  23
ATOM     23  C   UNK A   1       1.406   1.851   3.815  0.00  0.00    +0.305 C 
ATOM     24  O   UNK A   1       1.375   2.485   2.773  0.00  0.00    -0.251 OA
BRANCH  23  25
ATOM     25  O   UNK A   1       0.524   2.062   4.820  0.00  0.00    -0.481 OA
ATOM     26  H   UNK A   1       0.641   1.495   5.603  0.00  0.00    +0.295 HD
ENDBRANCH  23  25
ENDBRANCH  22  23
ENDBRANCH  21  22
ENDBRANCH  16  21
ENDBRANCH   2  16
TORSDOF 12
