REMARK  Name = 
REMARK  8 active torsions:
REMARK  status: ('A' for Active; 'I' for Inactive)
REMARK    1  A    between atoms: C_2  and  O_3
REMARK    2  A    between atoms: C_2  and  C_4
REMARK    3  A    between atoms: C_2  and  C_18
REMARK    4  A    between atoms: C_4  and  O_5
REMARK    5  A    between atoms: O_5  and  C_6
REMARK    6  A    between atoms: C_9  and  C_12
REMARK    7  A    between atoms: C_18  and  N_19
REMARK    8  A    between atoms: N_22  and  C_25
REMARK                            x       y       z     vdW  Elec       q    Type
REMARK                         _______ _______ _______ _____ _____    ______ ____
ROOT
ATOM      1  C   UNL     1       1.745  -0.099   0.054  0.00  0.00    +0.166 C 
ENDROOT
BRANCH   1   2
ATOM      2  O   UNL     1       1.953   1.275  -0.312  0.00  0.00    -0.387 OA
ATOM      3  H   UNL     1       1.590   1.802   0.427  0.00  0.00    +0.210 HD
ENDBRANCH   1   2
BRANCH   1   4
ATOM      4  C   UNL     1       2.550  -0.990  -0.917  0.00  0.00    +0.119 C 
BRANCH   4   5
ATOM      5  N   UNL     1       2.590  -2.425  -0.591  0.00  0.00    -0.297 NA
ATOM      6  C   UNL     1       3.492  -3.157  -1.515  0.00  0.00    +0.103 C 
ATOM      7  C   UNL     1       2.945  -3.387  -2.948  0.00  0.00    +0.122 C 
ATOM      8  N   UNL     1       1.634  -4.045  -2.875  0.00  0.00    -0.313 N 
ATOM      9  C   UNL     1       0.659  -3.329  -2.032  0.00  0.00    +0.122 C 
ATOM     10  C   UNL     1       1.260  -3.081  -0.627  0.00  0.00    +0.103 C 
BRANCH   8  11
ATOM     11  C   UNL     1       1.117  -4.762  -3.946  0.00  0.00    +0.121 A 
ATOM     12  N   UNL     1      -0.227  -4.882  -4.051  0.00  0.00    -0.240 NA
ATOM     13  C   UNL     1      -0.749  -5.674  -5.016  0.00  0.00    +0.113 A 
ATOM     14  C   UNL     1       0.008  -6.380  -5.927  0.00  0.00    +0.020 A 
ATOM     15  C   UNL     1       1.383  -6.254  -5.842  0.00  0.00    +0.005 A 
ATOM     16  C   UNL     1       1.937  -5.445  -4.847  0.00  0.00    +0.043 A 
ENDBRANCH   8  11
ENDBRANCH   4   5
ENDBRANCH   1   4
BRANCH   1  17
ATOM     17  C   UNL     1       2.155  -0.300   1.518  0.00  0.00    +0.261 C 
BRANCH  17  18
ATOM     18  O   UNL     1       1.298   0.527   2.328  0.00  0.00    -0.489 OA
BRANCH  18  19
ATOM     19  C   UNL     1       1.576   0.504   3.668  0.00  0.00    +0.121 A 
ATOM     20  C   UNL     1       2.142  -0.569   4.346  0.00  0.00    +0.046 A 
ATOM     21  C   UNL     1       2.420  -0.474   5.714  0.00  0.00    +0.007 A 
ATOM     22  C   UNL     1       2.115   0.680   6.454  0.00  0.00    -0.044 A 
ATOM     23  C   UNL     1       1.516   1.742   5.754  0.00  0.00    +0.007 A 
ATOM     24  C   UNL     1       1.235   1.647   4.383  0.00  0.00    +0.046 A 
BRANCH  22  25
ATOM     25  C   UNL     1       2.513   0.798   7.930  0.00  0.00    +0.019 C 
ATOM     26  C   UNL     1       2.561  -0.540   8.706  0.00  0.00    +0.008 C 
ATOM     27  C   UNL     1       1.162  -1.119   8.939  0.00  0.00    +0.001 C 
ATOM     28  C   UNL     1       0.265  -0.130   9.677  0.00  0.00    +0.000 C 
ATOM     29  C   UNL     1       0.246   1.245   9.014  0.00  0.00    +0.001 C 
ATOM     30  C   UNL     1       1.660   1.775   8.770  0.00  0.00    +0.008 C 
ENDBRANCH  22  25
ENDBRANCH  18  19
ENDBRANCH  17  18
ENDBRANCH   1  17
TORSDOF 8
