REMARK  Name = 
REMARK  8 active torsions:
REMARK  status: ('A' for Active; 'I' for Inactive)
REMARK    1  A    between atoms: C_1  and  C_2
REMARK    2  A    between atoms: C_2  and  O_3
REMARK    3  A    between atoms: O_3  and  C_4
REMARK    4  A    between atoms: C_4  and  C_6
REMARK    5  A    between atoms: C_6  and  C_7
REMARK    6  A    between atoms: C_6  and  C_19
REMARK    7  A    between atoms: C_8  and  O_9
REMARK    8  A    between atoms: C_20  and  O_21
REMARK                            x       y       z     vdW  Elec       q    Type
REMARK                         _______ _______ _______ _____ _____    ______ ____
ROOT
ATOM      1  C   UNL     1       4.834  -2.855  -0.691  0.00  0.00    +0.179 C 
ENDROOT
BRANCH   1   2
ATOM      2  C   UNL     1       6.362  -2.788  -0.756  0.00  0.00    +0.098 A 
ATOM      3  C   UNL     1       6.990  -4.140  -0.600  0.00  0.00    +0.201 A 
ATOM      4  O   UNL     1       6.318  -5.159  -0.503  0.00  0.00    -0.287 OA
ATOM      5  C   UNL     1       8.449  -4.225  -0.549  0.00  0.00    +0.065 A 
ATOM      6  C   UNL     1       9.176  -3.060  -0.708  0.00  0.00    +0.143 A 
ATOM      7  C   UNL     1      10.569  -3.094  -0.657  0.00  0.00    +0.047 A 
ATOM      8  C   UNL     1      11.228  -4.304  -0.434  0.00  0.00    +0.004 A 
ATOM      9  C   UNL     1      10.494  -5.480  -0.278  0.00  0.00    +0.001 A 
ATOM     10  O   UNL     1       8.587  -1.849  -0.913  0.00  0.00    -0.425 OA
ATOM     11  C   UNL     1       9.101  -5.444  -0.338  0.00  0.00    +0.015 A 
ATOM     12  C   UNL     1       7.205  -1.737  -0.899  0.00  0.00    +0.293 A 
BRANCH  12  13
ATOM     13  O   UNL     1       6.793  -0.429  -1.046  0.00  0.00    -0.480 OA
ATOM     14  H   UNL     1       5.841  -0.349  -1.222  0.00  0.00    +0.295 HD
ENDBRANCH  12  13
ENDBRANCH   1   2
BRANCH   1  15
ATOM     15  C   UNL     1       4.215  -3.278  -2.009  0.00  0.00    +0.098 A 
ATOM     16  C   UNL     1       3.492  -4.578  -1.989  0.00  0.00    +0.201 A 
ATOM     17  O   UNL     1       3.088  -5.083  -0.950  0.00  0.00    -0.287 OA
ATOM     18  C   UNL     1       3.259  -5.224  -3.285  0.00  0.00    +0.065 A 
ATOM     19  C   UNL     1       3.448  -4.468  -4.434  0.00  0.00    +0.143 A 
ATOM     20  C   UNL     1       3.238  -5.042  -5.687  0.00  0.00    +0.047 A 
ATOM     21  C   UNL     1       2.854  -6.382  -5.781  0.00  0.00    +0.004 A 
ATOM     22  C   UNL     1       2.664  -7.140  -4.625  0.00  0.00    +0.001 A 
ATOM     23  O   UNL     1       3.829  -3.155  -4.392  0.00  0.00    -0.425 OA
ATOM     24  C   UNL     1       2.862  -6.561  -3.370  0.00  0.00    +0.015 A 
ATOM     25  C   UNL     1       4.295  -2.641  -3.197  0.00  0.00    +0.293 A 
BRANCH  25  26
ATOM     26  O   UNL     1       4.885  -1.394  -3.287  0.00  0.00    -0.480 OA
ATOM     27  H   UNL     1       4.367  -0.793  -2.714  0.00  0.00    +0.295 HD
ENDBRANCH  25  26
ENDBRANCH   1  15
BRANCH   1  28
ATOM     28  C   UNL     1       4.213  -1.557  -0.189  0.00  0.00    +0.320 C 
ATOM     29  O   UNL     1       4.170  -0.525  -0.858  0.00  0.00    -0.250 OA
BRANCH  28  30
ATOM     30  O   UNL     1       3.892  -1.657   1.127  0.00  0.00    -0.464 OA
BRANCH  30  32
ATOM     31  C   UNL     1       5.177  -0.271   2.566  0.00  0.00    +0.048 C 
ATOM     32  C   UNL     1       3.832  -0.438   1.881  0.00  0.00    +0.229 C 
ENDBRANCH  30  32
ENDBRANCH  28  30
ENDBRANCH   1  28
TORSDOF 7
