REMARK  Name = 
REMARK  6 active torsions:
REMARK  status: ('A' for Active; 'I' for Inactive)
REMARK    1  A    between atoms: C_1  and  C_2
REMARK    2  A    between atoms: N_4  and  C_5
REMARK    3  A    between atoms: C_6  and  O_7
REMARK    4  A    between atoms: C_9  and  C_15
REMARK    5  A    between atoms: C_11  and  N_12
REMARK    6  A    between atoms: C_15  and  O_16
REMARK                            x       y       z     vdW  Elec       q    Type
REMARK                         _______ _______ _______ _____ _____    ______ ____
ROOT
ATOM      1  C   UNL     1       4.661  -0.779   0.686  0.00  0.00    +0.153 A 
ATOM      2  C   UNL     1       5.374  -2.009   0.733  0.00  0.00    +0.298 A 
ATOM      3  C   UNL     1       6.787  -2.041   0.771  0.00  0.00    +0.101 A 
ATOM      4  C   UNL     1       7.517  -0.853   0.794  0.00  0.00    +0.069 A 
ATOM      5  C   UNL     1       6.839   0.359   0.844  0.00  0.00    +0.062 A 
ATOM      6  C   UNL     1       5.441   0.393   0.778  0.00  0.00    +0.145 A 
ENDROOT
BRANCH   1   9
ATOM      7  C   UNL     1       0.939  -0.097   0.248  0.00  0.00    +0.109 C 
ATOM      8  C   UNL     1       2.402   0.247   0.183  0.00  0.00    +0.214 C 
ATOM      9  N   UNL     1       3.233  -0.774   0.589  0.00  0.00    -0.278 N 
ATOM     10  H   UNL     1       2.782  -1.688   0.676  0.00  0.00    +0.155 HD
ATOM     11  O   UNL     1       2.779   1.346  -0.214  0.00  0.00    -0.276 OA
ENDBRANCH   1   9
BRANCH   2  12
ATOM     12  N   UNL     1       4.684  -3.314   0.730  0.00  0.00    +0.082 N 
ATOM     13  O   UNL     1       5.378  -4.339   0.741  0.00  0.00    +0.042 OA
ATOM     14  O   UNL     1       3.444  -3.319   0.718  0.00  0.00    -0.576 OA
ENDBRANCH   2  12
BRANCH   4  15
ATOM     15  C   UNL     1       8.998  -0.921   0.821  0.00  0.00    +0.337 C 
ATOM     16  O   UNL     1       9.596  -1.866   1.305  0.00  0.00    -0.245 OA
BRANCH  15  17
ATOM     17  O   UNL     1       9.613   0.116   0.218  0.00  0.00    -0.477 OA
ATOM     18  H   UNL     1       9.041   0.742  -0.264  0.00  0.00    +0.295 HD
ENDBRANCH  15  17
ENDBRANCH   4  15
BRANCH   6  19
ATOM     19  O   UNL     1       4.954   1.666   0.883  0.00  0.00    -0.505 OA
ATOM     20  H   UNL     1       4.074   1.713   0.453  0.00  0.00    +0.292 HD
ENDBRANCH   6  19
TORSDOF 5
