REMARK  Name = 
REMARK  3 active torsions:
REMARK  status: ('A' for Active; 'I' for Inactive)
REMARK    1  A    between atoms: C_2  and  C_4
REMARK    2  A    between atoms: C_5  and  S_14
REMARK    3  A    between atoms: S_14  and  N_17
REMARK                            x       y       z     vdW  Elec       q    Type
REMARK                         _______ _______ _______ _____ _____    ______ ____
ROOT
ATOM      1  C   UNL     1       3.114  -1.215  -0.424  0.00  0.00    +0.129 A 
ATOM      2  N   UNL     1       4.379  -1.300  -0.957  0.00  0.00    -0.349 N 
ATOM      3  H   UNL     1       4.926  -0.490  -1.221  0.00  0.00    +0.166 HD
ATOM      4  C   UNL     1       4.760  -2.607  -1.136  0.00  0.00    +0.049 A 
ATOM      5  C   UNL     1       3.757  -3.410  -0.586  0.00  0.00    +0.028 A 
ATOM      6  C   UNL     1       3.970  -4.807  -0.587  0.00  0.00    +0.027 A 
ATOM      7  C   UNL     1       5.124  -5.335  -1.176  0.00  0.00    +0.019 A 
ATOM      8  C   UNL     1       6.077  -4.508  -1.757  0.00  0.00    +0.017 A 
ATOM      9 BR   UNL     1       5.377  -7.210  -1.189  0.00  0.00    -0.050 Br
ATOM     10  C   UNL     1       5.917  -3.122  -1.734  0.00  0.00    +0.027 A 
ATOM     11  C   UNL     1       2.714  -2.524  -0.164  0.00  0.00    +0.143 A 
ENDROOT
BRANCH   1  15
ATOM     12  N   UNL     1       1.143   0.129  -0.204  0.00  0.00    -0.324 N 
ATOM     13  H   UNL     1       0.552  -0.648  -0.489  0.00  0.00    +0.145 HD
ATOM     14  H   UNL     1       0.716   1.042  -0.142  0.00  0.00    +0.145 HD
ATOM     15  C   UNL     1       2.502   0.072  -0.223  0.00  0.00    +0.260 C 
ATOM     16  O   UNL     1       3.154   1.110  -0.148  0.00  0.00    -0.269 OA
ENDBRANCH   1  15
BRANCH  11  17
ATOM     17  S   UNL     1       1.194  -2.974   0.527  0.00  0.00    +0.064 S 
ATOM     18  O   UNL     1       0.252  -2.507  -0.473  0.00  0.00    -0.153 OA
ATOM     19  O   UNL     1       1.245  -2.399   1.854  0.00  0.00    -0.153 OA
BRANCH  17  20
ATOM     20  N   UNL     1       1.067  -4.633   0.665  0.00  0.00    -0.176 NA
ATOM     21  C   UNL     1       0.098  -5.382  -0.144  0.00  0.00    +0.109 C 
ATOM     22  C   UNL     1      -0.143  -6.681   0.622  0.00  0.00    +0.018 C 
ATOM     23  C   UNL     1       0.929  -6.732   1.699  0.00  0.00    +0.018 C 
ATOM     24  C   UNL     1       1.268  -5.275   1.968  0.00  0.00    +0.109 C 
ENDBRANCH  17  20
ENDBRANCH  11  17
TORSDOF 3
