REMARK  Name = 
REMARK  4 active torsions:
REMARK  status: ('A' for Active; 'I' for Inactive)
REMARK    1  A    between atoms: C_2  and  O_4
REMARK    2  A    between atoms: C_2  and  C_5
REMARK    3  A    between atoms: C_5  and  O_6
REMARK    4  A    between atoms: C_5  and  C_7
REMARK                            x       y       z     vdW  Elec       q    Type
REMARK                         _______ _______ _______ _____ _____    ______ ____
ROOT
ATOM      1  C   UNL     1       4.311   0.960   0.867  0.00  0.00    +0.281 C 
ATOM      2  C   UNL     1       4.876  -0.362   1.286  0.00  0.00    +0.252 C 
ATOM      3  O   UNL     1       4.509  -1.479   0.985  0.00  0.00    -0.284 OA
ATOM      4  C   UNL     1       5.994  -0.059   2.215  0.00  0.00    +0.308 C 
ATOM      5  O   UNL     1       6.778  -0.867   2.653  0.00  0.00    -0.276 OA
ATOM      6  C   UNL     1       5.986   1.431   2.472  0.00  0.00    +0.384 C 
ATOM      7  O   UNL     1       6.760   2.045   3.171  0.00  0.00    -0.241 OA
ATOM      8  O   UNL     1       4.954   1.937   1.740  0.00  0.00    -0.445 OA
ENDROOT
BRANCH   1   9
ATOM      9  C   UNL     1       2.789   1.013   1.021  0.00  0.00    +0.188 C 
BRANCH   9  10
ATOM     10  O   UNL     1       2.409   0.687   2.364  0.00  0.00    -0.385 OA
ATOM     11  H   UNL     1       2.169  -0.257   2.413  0.00  0.00    +0.210 HD
ENDBRANCH   9  10
BRANCH   9  12
ATOM     12  C   UNL     1       2.057   0.130  -0.002  0.00  0.00    +0.191 C 
BRANCH  12  13
ATOM     13  O   UNL     1       2.542   0.388  -1.311  0.00  0.00    -0.392 OA
ATOM     14  H   UNL     1       2.091  -0.233  -1.913  0.00  0.00    +0.210 HD
ENDBRANCH  12  13
ENDBRANCH   9  12
ENDBRANCH   1   9
TORSDOF 4
