REMARK  Name = 
REMARK  5 active torsions:
REMARK  status: ('A' for Active; 'I' for Inactive)
REMARK    1  A    between atoms: O_1  and  C_2
REMARK    2  A    between atoms: C_2  and  C_4
REMARK    3  A    between atoms: C_4  and  C_5
REMARK    4  A    between atoms: C_7  and  O_8
REMARK    5  A    between atoms: C_11  and  O_12
REMARK                            x       y       z     vdW  Elec       q    Type
REMARK                         _______ _______ _______ _____ _____    ______ ____
ROOT
ATOM      1  C   UNL     1       4.614   0.894   0.605  0.00  0.00    +0.008 A 
ATOM      2  C   UNL     1       5.199  -0.376   0.664  0.00  0.00    +0.121 A 
ATOM      3  C   UNL     1       6.565  -0.558   0.460  0.00  0.00    +0.049 A 
ATOM      4  C   UNL     1       7.372   0.551   0.208  0.00  0.00    +0.049 A 
ATOM      5  C   UNL     1       6.807   1.822   0.179  0.00  0.00    +0.117 A 
ATOM      6  C   UNL     1       5.441   2.005   0.378  0.00  0.00    +0.053 A 
ENDROOT
BRANCH   2   7
ATOM      7  O   UNL     1       4.396  -1.441   0.969  0.00  0.00    -0.506 OA
ATOM      8  H   UNL     1       4.861  -2.250   0.682  0.00  0.00    +0.292 HD
ENDBRANCH   2   7
BRANCH   5   9
ATOM      9  O   UNL     1       7.639   2.877  -0.049  0.00  0.00    -0.507 OA
ATOM     10  H   UNL     1       7.124   3.700   0.006  0.00  0.00    +0.292 HD
ENDBRANCH   5   9
BRANCH   1  11
ATOM     11  C   UNL     1       3.130   1.082   0.800  0.00  0.00    +0.159 C 
BRANCH  11  12
ATOM     12  C   UNL     1       2.731   1.251   2.246  0.00  0.00    +0.309 C 
ATOM     13  O   UNL     1       2.172   2.246   2.684  0.00  0.00    -0.251 OA
BRANCH  12  14
ATOM     14  O   UNL     1       3.012   0.176   3.021  0.00  0.00    -0.480 OA
ATOM     15  H   UNL     1       3.471  -0.531   2.516  0.00  0.00    +0.295 HD
ENDBRANCH  12  14
ENDBRANCH  11  12
ENDBRANCH   1  11
TORSDOF 5
