REMARK  Name = 
REMARK  11 active torsions:
REMARK  status: ('A' for Active; 'I' for Inactive)
REMARK    1  A    between atoms: C_2  and  C_3
REMARK    2  A    between atoms: C_2  and  C_5
REMARK    3  A    between atoms: C_2  and  C_7
REMARK    4  A    between atoms: C_3  and  C_4
REMARK    5  A    between atoms: C_7  and  C_9
REMARK    6  A    between atoms: C_7  and  C_23
REMARK    7  A    between atoms: C_9  and  N_10
REMARK    8  A    between atoms: N_10  and  S_11
REMARK    9  A    between atoms: S_11  and  C_14
REMARK   10  A    between atoms: C_17  and  N_20
REMARK   11  A    between atoms: C_23  and  O_24
REMARK                            x       y       z     vdW  Elec       q    Type
REMARK                         _______ _______ _______ _____ _____    ______ ____
ROOT
ATOM      1  N   UNL     1       0.766   2.596   0.463  0.00  0.00    -0.189 NA
ATOM      2  H   UNL     1       0.410   1.731   0.903  0.00  0.00    +0.148 HD
ENDROOT
BRANCH   1   3
ATOM      3  S   UNL     1       0.066   3.910   1.279  0.00  0.00    +0.058 S 
ATOM      4  O   UNL     1       0.910   4.229   2.407  0.00  0.00    -0.153 OA
ATOM      5  O   UNL     1      -1.343   3.618   1.421  0.00  0.00    -0.153 OA
BRANCH   3   6
ATOM      6  C   UNL     1       0.210   5.214   0.076  0.00  0.00    +0.106 A 
ATOM      7  C   UNL     1       1.002   6.333   0.359  0.00  0.00    +0.035 A 
ATOM      8  C   UNL     1       1.159   7.328  -0.607  0.00  0.00    +0.086 A 
ATOM      9  C   UNL     1       0.517   7.196  -1.848  0.00  0.00    +0.273 A 
ATOM     10  C   UNL     1      -0.300   6.086  -2.118  0.00  0.00    +0.086 A 
ATOM     11  C   UNL     1      -0.457   5.093  -1.148  0.00  0.00    +0.035 A 
BRANCH   9  12
ATOM     12  N   UNL     1       0.713   8.223  -2.879  0.00  0.00    +0.080 N 
ATOM     13  O   UNL     1       1.435   9.191  -2.599  0.00  0.00    +0.041 OA
ATOM     14  O   UNL     1       0.151   8.056  -3.971  0.00  0.00    -0.576 OA
ENDBRANCH   9  12
ENDBRANCH   3   6
ENDBRANCH   1   3
BRANCH   1  15
ATOM     15  C   UNL     1       2.239   2.619   0.313  0.00  0.00    +0.121 C 
BRANCH  15  16
ATOM     16  C   UNL     1       2.772   1.358  -0.408  0.00  0.00    +0.123 C 
BRANCH  16  17
ATOM     17  C   UNL     1       2.586   0.182   0.528  0.00  0.00    +0.310 C 
ATOM     18  O   UNL     1       1.566  -0.016   1.174  0.00  0.00    -0.251 OA
BRANCH  17  19
ATOM     19  O   UNL     1       3.635  -0.665   0.570  0.00  0.00    -0.480 OA
ATOM     20  H   UNL     1       4.399  -0.425   0.011  0.00  0.00    +0.295 HD
ENDBRANCH  17  19
ENDBRANCH  16  17
BRANCH  16  21
ATOM     21  C   UNL     1       2.100   1.074  -1.771  0.00  0.00    +0.067 C 
BRANCH  21  22
ATOM     22  C   UNL     1       2.226   2.272  -2.690  0.00  0.00    +0.227 C 
ATOM     23  O   UNL     1       3.175   3.051  -2.652  0.00  0.00    -0.301 OA
ENDBRANCH  21  22
BRANCH  21  24
ATOM     24  C   UNL     1       2.623  -0.174  -2.516  0.00  0.00    +0.008 C 
ATOM     25  C   UNL     1       4.085  -0.120  -2.950  0.00  0.00    +0.004 C 
ENDBRANCH  21  24
ENDBRANCH  16  21
ENDBRANCH  15  16
ENDBRANCH   1  15
TORSDOF 10
