REMARK  Name = 
REMARK  5 active torsions:
REMARK  status: ('A' for Active; 'I' for Inactive)
REMARK    1  A    between atoms: C_2  and  O_3
REMARK    2  A    between atoms: C_5  and  N_17
REMARK    3  A    between atoms: C_8  and  C_10
REMARK    4  A    between atoms: C_10  and  N_11
REMARK    5  A    between atoms: C_19  and  C_20
REMARK                            x       y       z     vdW  Elec       q    Type
REMARK                         _______ _______ _______ _____ _____    ______ ____
ROOT
ATOM      1  C   UNL     1       2.020   0.190   0.080  0.00  0.00    +0.149 C 
ATOM      2  C   UNL     1       2.569  -1.065   0.759  0.00  0.00    +0.163 C 
ATOM      3  O   UNL     1       3.803  -0.680   1.407  0.00  0.00    -0.349 OA
ATOM      4  C   UNL     1       4.020   0.729   1.191  0.00  0.00    +0.226 C 
ATOM      5  C   UNL     1       2.626   1.284   0.923  0.00  0.00    +0.088 C 
ENDROOT
BRANCH   4   6
ATOM      6  N   UNL     1       4.998   0.931   0.111  0.00  0.00    -0.274 N 
ATOM      7  C   UNL     1       5.319   2.239  -0.236  0.00  0.00    +0.331 A 
ATOM      8  O   UNL     1       4.835   3.234   0.299  0.00  0.00    -0.246 OA
ATOM      9  N   UNL     1       6.238   2.381  -1.242  0.00  0.00    -0.275 N 
ATOM     10  H   UNL     1       6.492   3.323  -1.491  0.00  0.00    +0.173 HD
ATOM     11  C   UNL     1       6.944   1.378  -1.841  0.00  0.00    +0.257 A 
ATOM     12  O   UNL     1       7.832   1.599  -2.656  0.00  0.00    -0.267 OA
ATOM     13  C   UNL     1       6.590   0.005  -1.422  0.00  0.00    +0.030 A 
ATOM     14  C   UNL     1       7.271  -1.139  -2.095  0.00  0.00    +0.051 C 
ATOM     15  C   UNL     1       5.671  -0.136  -0.460  0.00  0.00    +0.101 A 
ENDBRANCH   4   6
BRANCH   1  16
ATOM     16  O   UNL     1       0.603   0.234   0.060  0.00  0.00    -0.389 OA
ATOM     17  H   UNL     1       0.272   0.107   0.967  0.00  0.00    +0.210 HD
ENDBRANCH   1  16
BRANCH   2  18
ATOM     18  C   UNL     1       2.786  -2.206  -0.261  0.00  0.00    +0.118 C 
BRANCH  18  19
ATOM     19  N   UNL     1       3.377  -3.433   0.314  0.00  0.00    -0.300 NA
ATOM     20  C   UNL     1       3.771  -4.396  -0.727  0.00  0.00    +0.084 C 
ATOM     21  C   UNL     1       2.588  -5.073  -1.422  0.00  0.00    +0.015 C 
ATOM     22  C   UNL     1       1.628  -5.701  -0.415  0.00  0.00    +0.002 C 
ATOM     23  C   UNL     1       1.258  -4.717   0.691  0.00  0.00    +0.015 C 
ATOM     24  C   UNL     1       2.512  -4.091   1.305  0.00  0.00    +0.084 C 
ENDBRANCH  18  19
ENDBRANCH   2  18
TORSDOF 4
