REMARK  Name = 
REMARK  1 active torsions:
REMARK  status: ('A' for Active; 'I' for Inactive)
REMARK    1  A    between atoms: C_1  and  C_2
REMARK                            x       y       z     vdW  Elec       q    Type
REMARK                         _______ _______ _______ _____ _____    ______ ____
ROOT
ATOM      1  C   UNL     1       1.039   0.006   0.020  0.00  0.00    +0.113 C 
ATOM      2  C   UNL     1       2.532   0.051   0.094  0.00  0.00    +0.229 C 
ATOM      3  N   UNL     1       3.133   1.259   0.532  0.00  0.00    -0.277 N 
ATOM      4  C   UNL     1       2.690   2.579   0.399  0.00  0.00    +0.096 A 
ATOM      5  C   UNL     1       1.571   3.114  -0.353  0.00  0.00    +0.180 C 
ATOM      6  C   UNL     1       1.196   4.545   0.013  0.00  0.00    +0.081 C 
ATOM      7  C   UNL     1       2.450   5.419   0.064  0.00  0.00    +0.013 C 
ATOM      8  C   UNL     1       3.439   4.909   1.118  0.00  0.00    +0.038 C 
ATOM      9  O   UNL     1       0.962   2.516  -1.231  0.00  0.00    -0.290 OA
ATOM     10  C   UNL     1       3.585   3.419   1.052  0.00  0.00    -0.011 A 
ATOM     11  C   UNL     1       4.623   2.629   1.587  0.00  0.00    +0.004 A 
ATOM     12  C   UNL     1       5.782   2.934   2.336  0.00  0.00    +0.010 A 
ATOM     13  C   UNL     1       6.639   1.908   2.739  0.00  0.00    +0.001 A 
ATOM     14  C   UNL     1       6.355   0.592   2.406  0.00  0.00    +0.002 A 
ATOM     15  C   UNL     1       5.217   0.267   1.662  0.00  0.00    +0.027 A 
ATOM     16  C   UNL     1       4.354   1.302   1.244  0.00  0.00    +0.057 A 
ATOM     17  O   UNL     1       3.230  -0.938  -0.111  0.00  0.00    -0.273 OA
ENDROOT
TORSDOF 0
