REMARK  Name = 
REMARK  7 active torsions:
REMARK  status: ('A' for Active; 'I' for Inactive)
REMARK    1  A    between atoms: CA_2  and  N_3
REMARK    2  A    between atoms: CA_2  and  C_18
REMARK    3  A    between atoms: CA_2  and  C_21
REMARK    4  A    between atoms: C_10  and  C_11
REMARK    5  A    between atoms: C_14  and  C_15
REMARK    6  A    between atoms: C_15  and  C_16
REMARK    7  A    between atoms: C_18  and  O_19
REMARK                            x       y       z     vdW  Elec       q    Type
REMARK                         _______ _______ _______ _____ _____    ______ ____
ROOT
ATOM      1  N   UNL     1       2.736  -0.750   1.175  0.00  0.00    -0.309 N 
ATOM      2  H   UNL     1       2.411  -1.523   0.603  0.00  0.00    +0.149 HD
ATOM      3  C   UNL     1       2.285  -0.717   2.443  0.00  0.00    +0.152 C 
ATOM      4  S   UNL     1       1.815  -2.253   3.090  0.00  0.00    -0.052 S 
ATOM      5  C   UNL     1       1.212  -1.466   4.492  0.00  0.00    +0.082 C 
ATOM      6  C   UNL     1       0.471  -1.985   5.479  0.00  0.00    +0.066 C 
ATOM      7  C   UNL     1       1.588  -0.016   4.429  0.00  0.00    +0.276 C 
ATOM      8  O   UNL     1       1.385   0.773   5.334  0.00  0.00    -0.267 OA
ATOM      9  N   UNL     1       2.140   0.314   3.200  0.00  0.00    -0.154 NA
ENDROOT
BRANCH   6  10
ATOM     10  C   UNL     1      -0.020  -3.322   5.446  0.00  0.00    +0.129 A 
ATOM     11  O   UNL     1      -0.280  -3.997   4.274  0.00  0.00    -0.460 OA
ATOM     12  C   UNL     1      -0.778  -5.222   4.560  0.00  0.00    +0.105 A 
ATOM     13  C   UNL     1      -0.856  -5.381   5.921  0.00  0.00    +0.045 A 
ATOM     14  C   UNL     1      -0.383  -4.167   6.487  0.00  0.00    +0.049 A 
BRANCH  12  15
ATOM     15  C   UNL     1      -1.150  -6.054   3.388  0.00  0.00    +0.071 C 
ATOM     16  C   UNL     1      -0.025  -6.975   2.948  0.00  0.00    +0.012 C 
ENDBRANCH  12  15
ENDBRANCH   6  10
BRANCH   1  17
ATOM     17  CA  UNL     1       3.379   0.350   0.479  0.00  0.00    +0.212 C 
BRANCH  17  18
ATOM     18  C   UNL     1       4.372  -0.247  -0.509  0.00  0.00    -0.016 A 
ATOM     19  C   UNL     1       5.749  -0.013  -0.339  0.00  0.00    +0.009 A 
ATOM     20  C   UNL     1       6.680  -0.575  -1.215  0.00  0.00    +0.038 A 
ATOM     21  C   UNL     1       6.242  -1.383  -2.257  0.00  0.00    +0.123 A 
ATOM     22  F   UNL     1       7.137  -1.921  -3.095  0.00  0.00    -0.205 F 
ATOM     23  C   UNL     1       4.891  -1.642  -2.439  0.00  0.00    +0.038 A 
ATOM     24  C   UNL     1       3.956  -1.074  -1.571  0.00  0.00    +0.009 A 
ENDBRANCH  17  18
BRANCH  17  25
ATOM     25  C   UNL     1       2.330   1.292  -0.144  0.00  0.00    +0.330 C 
ATOM     26  OXT UNL     1       2.231   1.559  -1.333  0.00  0.00    -0.249 OA
BRANCH  25  27
ATOM     27  O   UNL     1       1.482   1.827   0.774  0.00  0.00    -0.479 OA
ATOM     28  H   UNL     1       1.668   1.546   1.702  0.00  0.00    +0.295 HD
ENDBRANCH  25  27
ENDBRANCH  17  25
ENDBRANCH   1  17
TORSDOF 6
