REMARK  Name = 
REMARK  12 active torsions:
REMARK  status: ('A' for Active; 'I' for Inactive)
REMARK    1  A    between atoms: C_2  and  O_3
REMARK    2  A    between atoms: C_2  and  C_4
REMARK    3  A    between atoms: C_2  and  C_13
REMARK    4  A    between atoms: C_4  and  C_5
REMARK    5  A    between atoms: N_7  and  N_8
REMARK    6  A    between atoms: N_7  and  C_9
REMARK    7  A    between atoms: C_9  and  C_10
REMARK    8  A    between atoms: C_10  and  O_11
REMARK    9  A    between atoms: N_15  and  C_16
REMARK   10  A    between atoms: N_15  and  C_23
REMARK   11  A    between atoms: C_16  and  C_17
REMARK   12  A    between atoms: C_23  and  C_24
REMARK                            x       y       z     vdW  Elec       q    Type
REMARK                         _______ _______ _______ _____ _____    ______ ____
ROOT
ATOM      1  C   UNL     1       2.518  -0.799   1.298  0.00  0.00    +0.245 C 
ATOM      2  N   UNL     1       3.887  -0.998   1.180  0.00  0.00    -0.291 N 
ATOM      3  O   UNL     1       1.814  -1.496   2.038  0.00  0.00    -0.273 OA
ENDROOT
BRANCH   1   4
ATOM      4  C   UNL     1       1.831   0.301   0.457  0.00  0.00    +0.209 C 
BRANCH   4   5
ATOM      5  O   UNL     1       1.448  -0.223  -0.818  0.00  0.00    -0.382 OA
ATOM      6  H   UNL     1       0.961  -1.053  -0.649  0.00  0.00    +0.210 HD
ENDBRANCH   4   5
BRANCH   4   7
ATOM      7  C   UNL     1       0.569   0.802   1.178  0.00  0.00    +0.138 C 
BRANCH   7   8
ATOM      8  C   UNL     1       0.924   1.433   2.516  0.00  0.00    +0.232 C 
ATOM      9  N   UNL     1      -0.140   1.805   3.361  0.00  0.00    -0.229 N 
ATOM     10  O   UNL     1       2.097   1.629   2.836  0.00  0.00    -0.274 OA
BRANCH   9  11
ATOM     11  N   UNL     1      -1.485   1.875   2.892  0.00  0.00    -0.251 NA
ATOM     12  H   UNL     1      -1.560   2.658   2.229  0.00  0.00    +0.141 HD
ATOM     13  H   UNL     1      -1.704   1.033   2.346  0.00  0.00    +0.141 HD
ENDBRANCH   9  11
BRANCH   9  14
ATOM     14  C   UNL     1       0.222   2.535   4.597  0.00  0.00    +0.246 C 
BRANCH  14  15
ATOM     15  C   UNL     1      -0.758   2.508   5.766  0.00  0.00    +0.324 C 
ATOM     16  O   UNL     1      -0.517   3.004   6.859  0.00  0.00    -0.249 OA
BRANCH  15  17
ATOM     17  O   UNL     1      -1.939   1.916   5.485  0.00  0.00    -0.479 OA
ATOM     18  H   UNL     1      -1.939   1.679   4.524  0.00  0.00    +0.295 HD
ENDBRANCH  15  17
ENDBRANCH  14  15
ENDBRANCH   9  14
ENDBRANCH   7   8
ENDBRANCH   4   7
ENDBRANCH   1   4
BRANCH   2  19
ATOM     19  C   UNL     1       4.528  -1.913   2.129  0.00  0.00    +0.143 C 
BRANCH  19  20
ATOM     20  C   UNL     1       4.543  -3.360   1.688  0.00  0.00    -0.030 A 
ATOM     21  C   UNL     1       3.442  -4.196   1.935  0.00  0.00    +0.005 A 
ATOM     22  C   UNL     1       3.452  -5.533   1.536  0.00  0.00    +0.000 A 
ATOM     23  C   UNL     1       4.569  -6.058   0.893  0.00  0.00    +0.000 A 
ATOM     24  C   UNL     1       5.679  -5.248   0.660  0.00  0.00    +0.000 A 
ATOM     25  C   UNL     1       5.667  -3.906   1.052  0.00  0.00    +0.005 A 
ENDBRANCH  19  20
ENDBRANCH   2  19
BRANCH   2  26
ATOM     26  C   UNL     1       4.749  -0.311   0.212  0.00  0.00    +0.143 C 
BRANCH  26  27
ATOM     27  C   UNL     1       5.516   0.895   0.731  0.00  0.00    -0.030 A 
ATOM     28  C   UNL     1       6.414   1.548  -0.136  0.00  0.00    +0.005 A 
ATOM     29  C   UNL     1       7.165   2.642   0.292  0.00  0.00    +0.000 A 
ATOM     30  C   UNL     1       7.036   3.116   1.595  0.00  0.00    +0.000 A 
ATOM     31  C   UNL     1       6.143   2.493   2.464  0.00  0.00    +0.000 A 
ATOM     32  C   UNL     1       5.384   1.398   2.033  0.00  0.00    +0.005 A 
ENDBRANCH  26  27
ENDBRANCH   2  26
TORSDOF 12
