REMARK  Name = 
REMARK  26 active torsions:
REMARK  status: ('A' for Active; 'I' for Inactive)
REMARK    1  A    between atoms: C_1  and  C_2
REMARK    2  A    between atoms: N_4  and  C_5
REMARK    3  A    between atoms: C_7  and  O_9
REMARK    4  A    between atoms: C_11  and  C_13
REMARK    5  A    between atoms: C_13  and  O_14
REMARK    6  A    between atoms: C_15  and  O_17
REMARK    7  A    between atoms: C_18  and  O_19
REMARK    8  A    between atoms: O_19  and  C_20
REMARK    9  A    between atoms: C_23  and  C_69
REMARK   10  A    between atoms: C_25  and  O_27
REMARK   11  A    between atoms: O_27  and  C_28
REMARK   12  A    between atoms: C_31  and  C_33
REMARK   13  A    between atoms: C_33  and  O_34
REMARK   14  A    between atoms: C_35  and  O_37
REMARK   15  A    between atoms: C_38  and  O_39
REMARK   16  A    between atoms: O_39  and  C_40
REMARK   17  A    between atoms: C_43  and  C_54
REMARK   18  A    between atoms: C_45  and  O_47
REMARK   19  A    between atoms: C_48  and  O_50
REMARK   20  A    between atoms: C_51  and  O_53
REMARK   21  A    between atoms: C_54  and  O_55
REMARK   22  A    between atoms: C_57  and  N_59
REMARK   23  A    between atoms: C_60  and  C_61
REMARK   24  A    between atoms: C_63  and  O_65
REMARK   25  A    between atoms: C_66  and  O_68
REMARK   26  A    between atoms: C_69  and  O_70
REMARK                            x       y       z     vdW  Elec       q    Type
REMARK                         _______ _______ _______ _____ _____    ______ ____
ROOT
ATOM      1  O   UNL     1       0.816   4.957  -2.021  0.00  0.00    -0.340 OA
ENDROOT
BRANCH   1   5
ATOM      2  C   UNL     1       3.219   4.605  -5.475  0.00  0.00    +0.283 C 
ATOM      3  C   UNL     1       2.764   6.045  -5.123  0.00  0.00    +0.201 C 
ATOM      4  C   UNL     1       2.173   6.072  -3.724  0.00  0.00    +0.180 C 
ATOM      5  C   UNL     1       1.190   4.936  -3.421  0.00  0.00    +0.192 C 
ATOM      6  C   UNL     1       1.735   3.587  -3.936  0.00  0.00    +0.260 C 
ATOM      7  O   UNL     1       2.120   3.709  -5.302  0.00  0.00    -0.331 OA
BRANCH   6   8
ATOM      8  C   UNL     1       0.650   2.523  -3.743  0.00  0.00    +0.337 C 
ATOM      9  O   UNL     1      -0.130   2.129  -4.611  0.00  0.00    -0.248 OA
BRANCH   8  10
ATOM     10  O   UNL     1       0.612   2.021  -2.481  0.00  0.00    -0.479 OA
ATOM     11  H   UNL     1       1.276   2.437  -1.890  0.00  0.00    +0.295 HD
ENDBRANCH   8  10
ENDBRANCH   6   8
BRANCH   4  12
ATOM     12  O   UNL     1       1.569   7.351  -3.488  0.00  0.00    -0.386 OA
ATOM     13  H   UNL     1       0.967   7.267  -2.726  0.00  0.00    +0.210 HD
ENDBRANCH   4  12
BRANCH   3  14
ATOM     14  O   UNL     1       3.883   6.956  -5.119  0.00  0.00    -0.384 OA
ATOM     15  H   UNL     1       3.843   7.520  -4.325  0.00  0.00    +0.210 HD
ENDBRANCH   3  14
BRANCH   2  16
ATOM     16  O   UNL     1       3.669   4.431  -6.825  0.00  0.00    -0.341 OA
BRANCH  16  18
ATOM     17  C   UNL     1       4.890   5.219  -8.772  0.00  0.00    +0.160 C 
ATOM     18  C   UNL     1       4.637   5.387  -7.263  0.00  0.00    +0.177 C 
ATOM     19  C   UNL     1       5.976   5.339  -6.490  0.00  0.00    +0.176 C 
ATOM     20  C   UNL     1       6.797   4.081  -6.827  0.00  0.00    +0.178 C 
ATOM     21  O   UNL     1       6.917   3.896  -8.242  0.00  0.00    -0.341 OA
ATOM     22  C   UNL     1       5.698   3.916  -8.995  0.00  0.00    +0.270 C 
BRANCH  17  25
ATOM     23  C   UNL     1       6.463   8.101 -10.692  0.00  0.00    +0.109 C 
ATOM     24  C   UNL     1       5.848   6.734 -10.549  0.00  0.00    +0.210 C 
ATOM     25  N   UNL     1       5.538   6.452  -9.250  0.00  0.00    -0.305 N 
ATOM     26  H   UNL     1       5.587   7.222  -8.589  0.00  0.00    +0.149 HD
ATOM     27  O   UNL     1       5.642   5.978 -11.488  0.00  0.00    -0.276 OA
ENDBRANCH  17  25
BRANCH  22  28
ATOM     28  O   UNL     1       4.928   2.748  -8.728  0.00  0.00    -0.365 OA
ATOM     29  H   UNL     1       4.174   3.003  -8.160  0.00  0.00    +0.213 HD
ENDBRANCH  22  28
BRANCH  19  30
ATOM     30  O   UNL     1       6.753   6.510  -6.831  0.00  0.00    -0.387 OA
ATOM     31  H   UNL     1       7.268   6.278  -7.629  0.00  0.00    +0.210 HD
ENDBRANCH  19  30
BRANCH  20  32
ATOM     32  C   UNL     1       6.359   2.814  -6.077  0.00  0.00    +0.190 C 
BRANCH  32  33
ATOM     33  O   UNL     1       6.312   3.056  -4.669  0.00  0.00    -0.392 OA
ATOM     34  H   UNL     1       6.860   2.373  -4.240  0.00  0.00    +0.210 HD
ENDBRANCH  32  33
ENDBRANCH  20  32
ENDBRANCH  16  18
ENDBRANCH   2  16
ENDBRANCH   1   5
BRANCH   1  35
ATOM     35  C   UNL     1       1.902   4.889  -1.098  0.00  0.00    +0.274 C 
ATOM     36  C   UNL     1       1.408   4.945   0.350  0.00  0.00    +0.160 C 
ATOM     37  C   UNL     1       2.619   4.765   1.315  0.00  0.00    +0.177 C 
ATOM     38  C   UNL     1       3.625   3.676   0.832  0.00  0.00    +0.176 C 
ATOM     39  C   UNL     1       3.844   3.667  -0.679  0.00  0.00    +0.178 C 
ATOM     40  O   UNL     1       2.566   3.647  -1.304  0.00  0.00    -0.341 OA
BRANCH  36  41
ATOM     41  N   UNL     1       0.588   6.140   0.634  0.00  0.00    -0.305 N 
ATOM     42  H   UNL     1      -0.417   6.001   0.672  0.00  0.00    +0.149 HD
ATOM     43  C   UNL     1       1.056   7.425   0.523  0.00  0.00    +0.210 C 
ATOM     44  O   UNL     1       2.224   7.675   0.239  0.00  0.00    -0.276 OA
ATOM     45  C   UNL     1       0.024   8.500   0.756  0.00  0.00    +0.109 C 
ENDBRANCH  36  41
BRANCH  38  46
ATOM     46  O   UNL     1       4.916   3.786   1.457  0.00  0.00    -0.387 OA
ATOM     47  H   UNL     1       5.011   4.680   1.835  0.00  0.00    +0.210 HD
ENDBRANCH  38  46
BRANCH  39  48
ATOM     48  C   UNL     1       4.654   2.440  -1.134  0.00  0.00    +0.190 C 
BRANCH  48  49
ATOM     49  O   UNL     1       5.990   2.477  -0.655  0.00  0.00    -0.392 OA
ATOM     50  H   UNL     1       5.968   2.739   0.288  0.00  0.00    +0.210 HD
ENDBRANCH  48  49
ENDBRANCH  39  48
BRANCH  37  51
ATOM     51  O   UNL     1       1.999   4.393   2.549  0.00  0.00    -0.341 OA
BRANCH  51  52
ATOM     52  C   UNL     1       2.801   4.181   3.703  0.00  0.00    +0.283 C 
ATOM     53  C   UNL     1       1.769   3.894   4.808  0.00  0.00    +0.201 C 
ATOM     54  C   UNL     1       2.447   3.375   6.068  0.00  0.00    +0.179 C 
ATOM     55  C   UNL     1       3.489   2.287   5.781  0.00  0.00    +0.185 C 
ATOM     56  C   UNL     1       4.439   2.779   4.694  0.00  0.00    +0.260 C 
ATOM     57  O   UNL     1       3.666   3.070   3.524  0.00  0.00    -0.332 OA
BRANCH  56  58
ATOM     58  C   UNL     1       5.489   1.722   4.356  0.00  0.00    +0.337 C 
ATOM     59  O   UNL     1       6.286   1.274   5.166  0.00  0.00    -0.248 OA
BRANCH  58  60
ATOM     60  O   UNL     1       5.500   1.374   3.047  0.00  0.00    -0.479 OA
ATOM     61  H   UNL     1       4.850   1.927   2.555  0.00  0.00    +0.295 HD
ENDBRANCH  58  60
ENDBRANCH  56  58
BRANCH  55  62
ATOM     62  O   UNL     1       4.102   1.982   7.036  0.00  0.00    -0.386 OA
ATOM     63  H   UNL     1       4.976   2.408   7.097  0.00  0.00    +0.210 HD
ENDBRANCH  55  62
BRANCH  54  64
ATOM     64  O   UNL     1       1.463   2.840   6.962  0.00  0.00    -0.386 OA
ATOM     65  H   UNL     1       1.960   2.348   7.644  0.00  0.00    +0.210 HD
ENDBRANCH  54  64
BRANCH  53  66
ATOM     66  O   UNL     1       1.016   5.077   5.130  0.00  0.00    -0.384 OA
ATOM     67  H   UNL     1       1.192   5.756   4.458  0.00  0.00    +0.210 HD
ENDBRANCH  53  66
ENDBRANCH  51  52
ENDBRANCH  37  51
ENDBRANCH   1  35
TORSDOF 24
