REMARK  Name = 
REMARK  8 active torsions:
REMARK  status: ('A' for Active; 'I' for Inactive)
REMARK    1  A    between atoms: O_1  and  C_2
REMARK    2  A    between atoms: C_2  and  C_4
REMARK    3  A    between atoms: C_4  and  O_5
REMARK    4  A    between atoms: O_5  and  C_6
REMARK    5  A    between atoms: C_12  and  C_13
REMARK    6  A    between atoms: C_13  and  N_15
REMARK    7  A    between atoms: N_15  and  C_16
REMARK    8  A    between atoms: C_16  and  C_17
REMARK                            x       y       z     vdW  Elec       q    Type
REMARK                         _______ _______ _______ _____ _____    ______ ____
ROOT
ATOM      1  C   UNL     1       5.367   0.609  -2.033  0.00  0.00    +0.133 A 
ATOM      2  C   UNL     1       6.134  -0.316  -2.778  0.00  0.00    +0.045 A 
ATOM      3  C   UNL     1       6.994   0.169  -3.790  0.00  0.00    +0.017 A 
ATOM      4  C   UNL     1       7.106   1.534  -4.051  0.00  0.00    +0.039 A 
ATOM      5  C   UNL     1       6.387   2.429  -3.275  0.00  0.00    +0.127 A 
ATOM      6  F   UNL     1       6.516   3.745  -3.495  0.00  0.00    -0.205 F 
ATOM      7  C   UNL     1       5.539   1.983  -2.269  0.00  0.00    +0.084 A 
ENDROOT
BRANCH   2   8
ATOM      8  C   UNL     1       6.159  -1.796  -2.513  0.00  0.00    +0.083 C 
ATOM      9  S   UNL     1       6.119  -2.928  -3.758  0.00  0.00    -0.035 S 
BRANCH   8  10
ATOM     10  N   UNL     1       6.217  -2.124  -1.172  0.00  0.00    -0.333 N 
ATOM     11  H   UNL     1       6.280  -1.365  -0.500  0.00  0.00    +0.147 HD
BRANCH  10  12
ATOM     12  C   UNL     1       6.290  -3.452  -0.576  0.00  0.00    +0.140 C 
BRANCH  12  13
ATOM     13  C   UNL     1       7.595  -3.584   0.144  0.00  0.00    +0.005 A 
ATOM     14  C   UNL     1       7.687  -3.286   1.508  0.00  0.00    +0.129 A 
ATOM     15  F   UNL     1       6.587  -2.924   2.185  0.00  0.00    -0.205 F 
ATOM     16  C   UNL     1       8.904  -3.325   2.176  0.00  0.00    +0.054 A 
ATOM     17  C   UNL     1      10.054  -3.660   1.466  0.00  0.00    +0.021 A 
ATOM     18 BR   UNL     1      11.721  -3.712   2.354  0.00  0.00    -0.050 Br
ATOM     19  C   UNL     1       9.991  -3.950   0.103  0.00  0.00    +0.016 A 
ATOM     20  C   UNL     1       8.764  -3.907  -0.555  0.00  0.00    +0.009 A 
ENDBRANCH  12  13
ENDBRANCH  10  12
ENDBRANCH   8  10
ENDBRANCH   2   8
BRANCH   1  21
ATOM     21  O   UNL     1       4.459   0.361  -1.034  0.00  0.00    -0.480 OA
BRANCH  21  22
ATOM     22  C   UNL     1       3.628  -0.800  -1.141  0.00  0.00    +0.349 C 
BRANCH  22  23
ATOM     23  C   UNL     1       2.152  -0.471  -0.993  0.00  0.00    +0.343 C 
ATOM     24  O   UNL     1       1.268  -1.310  -1.035  0.00  0.00    -0.247 OA
BRANCH  23  25
ATOM     25  O   UNL     1       1.902   0.844  -0.802  0.00  0.00    -0.478 OA
ATOM     26  H   UNL     1       2.740   1.352  -0.786  0.00  0.00    +0.295 HD
ENDBRANCH  23  25
ENDBRANCH  22  23
ENDBRANCH  21  22
ENDBRANCH   1  21
TORSDOF 8
