REMARK  Name = 
REMARK  4 active torsions:
REMARK  status: ('A' for Active; 'I' for Inactive)
REMARK    1  A    between atoms: O_1  and  N_2
REMARK    2  A    between atoms: C_8  and  C_12
REMARK    3  A    between atoms: N_14  and  C_23
REMARK    4  A    between atoms: C_16  and  C_17
REMARK                            x       y       z     vdW  Elec       q    Type
REMARK                         _______ _______ _______ _____ _____    ______ ____
ROOT
ATOM      1  C   UNL     1       8.451  -1.237   3.120  0.00  0.00    +0.027 A 
ATOM      2  C   UNL     1       9.387  -2.316   2.986  0.00  0.00    +0.100 A 
ATOM      3  N   UNL     1      10.447  -2.128   3.792  0.00  0.00    -0.170 NA
ATOM      4  N   UNL     1      10.218  -0.959   4.410  0.00  0.00    -0.267 N 
ATOM      5  C   UNL     1       9.059  -0.364   4.001  0.00  0.00    +0.117 A 
ENDROOT
BRANCH   1  11
ATOM      6  N   UNL     1       2.448  -0.739   0.431  0.00  0.00    -0.092 NA
ATOM      7  C   UNL     1       3.413   0.010   0.860  0.00  0.00    +0.088 C 
ATOM      8  C   UNL     1       4.642  -0.517   1.425  0.00  0.00    +0.003 A 
ATOM      9  C   UNL     1       5.471   0.558   1.724  0.00  0.00    -0.037 A 
ATOM     10  C   UNL     1       6.728   0.334   2.267  0.00  0.00    +0.013 A 
ATOM     11  C   UNL     1       7.136  -0.985   2.542  0.00  0.00    -0.014 A 
ATOM     12  C   UNL     1       6.249  -2.050   2.269  0.00  0.00    +0.009 A 
ATOM     13  C   UNL     1       4.855   1.878   1.389  0.00  0.00    +0.042 C 
ATOM     14  C   UNL     1       5.001  -1.824   1.680  0.00  0.00    +0.010 A 
ATOM     15  C   UNL     1       3.455   1.520   0.872  0.00  0.00    +0.064 C 
BRANCH   6  16
ATOM     16  O   UNL     1       1.397   0.052  -0.050  0.00  0.00    -0.409 OA
ATOM     17  H   UNL     1       0.752  -0.617  -0.346  0.00  0.00    +0.328 HD
ENDBRANCH   6  16
ENDBRANCH   1  11
BRANCH   4  18
ATOM     18  C   UNL     1      11.140  -0.430   5.417  0.00  0.00    +0.110 C 
ATOM     19  C   UNL     1      12.386  -1.294   5.662  0.00  0.00    +0.042 C 
ATOM     20  C   UNL     1      12.057  -2.569   6.439  0.00  0.00    +0.083 C 
ATOM     21  N   UNL     1      11.317  -2.297   7.675  0.00  0.00    -0.316 NA
ATOM     22  H   UNL     1      11.054  -3.190   8.095  0.00  0.00    +0.122 HD
ATOM     23  C   UNL     1      10.107  -1.514   7.442  0.00  0.00    +0.083 C 
ATOM     24  C   UNL     1      10.435  -0.190   6.761  0.00  0.00    +0.042 C 
ENDBRANCH   4  18
BRANCH   2  25
ATOM     25  C   UNL     1       9.331  -3.503   2.130  0.00  0.00    +0.006 A 
ATOM     26  C   UNL     1       8.817  -3.434   0.833  0.00  0.00    +0.030 A 
ATOM     27  C   UNL     1       8.759  -4.594   0.080  0.00  0.00    +0.111 A 
ATOM     28  N   UNL     1       9.198  -5.793   0.515  0.00  0.00    -0.263 NA
ATOM     29  C   UNL     1       9.726  -5.832   1.756  0.00  0.00    +0.111 A 
ATOM     30  C   UNL     1       9.809  -4.731   2.593  0.00  0.00    +0.030 A 
ENDBRANCH   2  25
TORSDOF 4
