REMARK  Name = 
REMARK  19 active torsions:
REMARK  status: ('A' for Active; 'I' for Inactive)
REMARK    1  A    between atoms: C_2  and  O_3
REMARK    2  A    between atoms: C_2  and  C_4
REMARK    3  A    between atoms: C_2  and  C_7
REMARK    4  A    between atoms: C_4  and  O_5
REMARK    5  A    between atoms: O_5  and  C_6
REMARK    6  A    between atoms: C_7  and  C_9
REMARK    7  A    between atoms: C_7  and  N_13
REMARK    8  A    between atoms: C_9  and  C_10
REMARK    9  A    between atoms: C_10  and  C_11
REMARK   10  A    between atoms: C_10  and  C_12
REMARK   11  A    between atoms: C_14  and  C_16
REMARK   12  A    between atoms: C_16  and  C_18
REMARK   13  A    between atoms: C_16  and  N_22
REMARK   14  A    between atoms: C_18  and  C_19
REMARK   15  A    between atoms: C_19  and  C_20
REMARK   16  A    between atoms: C_19  and  C_21
REMARK   17  A    between atoms: C_23  and  O_25
REMARK   18  A    between atoms: O_25  and  C_26
REMARK   19  A    between atoms: C_26  and  C_27
REMARK                            x       y       z     vdW  Elec       q    Type
REMARK                         _______ _______ _______ _____ _____    ______ ____
ROOT
ATOM      1  C   UNL     1       6.414   2.683   0.685  0.00  0.00    +0.162 C 
ENDROOT
BRANCH   1   4
ATOM      2  N   UNL     1       5.931   0.461   1.615  0.00  0.00    -0.308 N 
ATOM      3  H   UNL     1       5.292   0.397   0.835  0.00  0.00    +0.149 HD
ATOM      4  C   UNL     1       6.602   1.650   1.816  0.00  0.00    +0.234 C 
ATOM      5  O   UNL     1       7.278   1.882   2.817  0.00  0.00    -0.274 OA
BRANCH   2   6
ATOM      6  C   UNL     1       5.980  -0.649   2.577  0.00  0.00    +0.104 C 
BRANCH   6   7
ATOM      7  C   UNL     1       5.946  -2.027   1.864  0.00  0.00    +0.160 C 
BRANCH   7   8
ATOM      8  O   UNL     1       7.049  -2.121   0.944  0.00  0.00    -0.388 OA
ATOM      9  H   UNL     1       6.933  -2.982   0.495  0.00  0.00    +0.210 HD
ENDBRANCH   7   8
BRANCH   7  10
ATOM     10  C   UNL     1       4.654  -2.313   1.088  0.00  0.00    +0.192 C 
BRANCH  10  11
ATOM     11  O   UNL     1       4.752  -3.636   0.538  0.00  0.00    -0.380 OA
ATOM     12  C   UNL     1       3.589  -3.970  -0.212  0.00  0.00    +0.194 C 
ENDBRANCH  10  11
ENDBRANCH   7  10
ENDBRANCH   6   7
BRANCH   6  13
ATOM     13  C   UNL     1       4.865  -0.451   3.624  0.00  0.00    +0.028 C 
BRANCH  13  14
ATOM     14  C   UNL     1       4.762  -1.530   4.719  0.00  0.00    -0.015 C 
ATOM     15  C   UNL     1       3.560  -1.235   5.621  0.00  0.00    +0.007 C 
ATOM     16  C   UNL     1       6.032  -1.620   5.566  0.00  0.00    +0.007 C 
ENDBRANCH  13  14
ENDBRANCH   6  13
ENDBRANCH   2   6
ENDBRANCH   1   4
BRANCH   1  17
ATOM     17  N   UNL     1       7.039   3.948   1.028  0.00  0.00    -0.270 N 
ATOM     18  H   UNL     1       7.866   3.950   1.613  0.00  0.00    +0.153 HD
ATOM     19  C   UNL     1       6.487   5.145   0.697  0.00  0.00    +0.401 C 
ATOM     20  O   UNL     1       5.436   5.276   0.087  0.00  0.00    -0.226 OA
BRANCH  19  21
ATOM     21  O   UNL     1       7.278   6.152   1.130  0.00  0.00    -0.446 OA
BRANCH  21  22
ATOM     22  C   UNL     1       6.842   7.475   0.794  0.00  0.00    +0.269 C 
BRANCH  22  23
ATOM     23  C   UNL     1       6.737   8.293   2.055  0.00  0.00    -0.010 A 
ATOM     24  C   UNL     1       5.568   8.246   2.829  0.00  0.00    +0.007 A 
ATOM     25  C   UNL     1       5.468   8.991   4.004  0.00  0.00    +0.000 A 
ATOM     26  C   UNL     1       6.535   9.785   4.421  0.00  0.00    +0.000 A 
ATOM     27  C   UNL     1       7.703   9.835   3.662  0.00  0.00    +0.000 A 
ATOM     28  C   UNL     1       7.806   9.090   2.486  0.00  0.00    +0.007 A 
ENDBRANCH  22  23
ENDBRANCH  21  22
ENDBRANCH  19  21
ENDBRANCH   1  17
BRANCH   1  29
ATOM     29  C   UNL     1       6.844   2.192  -0.712  0.00  0.00    +0.035 C 
BRANCH  29  30
ATOM     30  C   UNL     1       8.359   2.037  -0.972  0.00  0.00    -0.015 C 
ATOM     31  C   UNL     1       8.587   1.688  -2.448  0.00  0.00    +0.007 C 
ATOM     32  C   UNL     1       9.024   0.968  -0.106  0.00  0.00    +0.007 C 
ENDBRANCH  29  30
ENDBRANCH   1  29
TORSDOF 14
