REMARK  Name = 
REMARK  5 active torsions:
REMARK  status: ('A' for Active; 'I' for Inactive)
REMARK    1  A    between atoms: C_1  and  S_2
REMARK    2  A    between atoms: S_2  and  C_5
REMARK    3  A    between atoms: C_9  and  C_12
REMARK    4  A    between atoms: N_14  and  C_15
REMARK    5  A    between atoms: C_20  and  C_22
REMARK                            x       y       z     vdW  Elec       q    Type
REMARK                         _______ _______ _______ _____ _____    ______ ____
ROOT
ATOM      1  C   UNL     1       4.073  -1.762  -5.757  0.00  0.00    +0.250 C 
ATOM      2  N   UNL     1       4.198  -3.074  -6.190  0.00  0.00    -0.281 N 
ATOM      3  H   UNL     1       4.497  -3.769  -5.515  0.00  0.00    +0.155 HD
ATOM      4  O   UNL     1       3.838  -0.798  -6.484  0.00  0.00    -0.270 OA
ENDROOT
BRANCH   1   8
ATOM      5  C   UNL     1       4.647  -0.500  -1.686  0.00  0.00    +0.089 A 
ATOM      6  C   UNL     1       3.881   0.250  -2.571  0.00  0.00    +0.028 A 
ATOM      7  C   UNL     1       3.695  -0.226  -3.869  0.00  0.00    +0.016 A 
ATOM      8  C   UNL     1       4.255  -1.453  -4.303  0.00  0.00    +0.055 A 
ATOM      9  C   UNL     1       4.983  -2.213  -3.377  0.00  0.00    +0.055 A 
ATOM     10 CL   UNL     1       5.739  -3.720  -3.751  0.00  0.00    -0.083 Cl
ATOM     11  C   UNL     1       5.171  -1.737  -2.070  0.00  0.00    +0.047 A 
BRANCH   5  13
ATOM     12  C   UNL     1       6.461   1.050  -0.256  0.00  0.00    +0.200 C 
ATOM     13  S   UNL     1       4.961   0.121  -0.050  0.00  0.00    -0.006 S 
ATOM     14  O   UNL     1       3.893   1.042   0.279  0.00  0.00    -0.170 OA
ATOM     15  O   UNL     1       5.248  -1.024   0.793  0.00  0.00    -0.170 OA
ENDBRANCH   5  13
ENDBRANCH   1   8
BRANCH   2  16
ATOM     16  C   UNL     1       4.038  -3.526  -7.523  0.00  0.00    +0.034 A 
ATOM     17  C   UNL     1       4.442  -4.835  -7.857  0.00  0.00    +0.034 A 
ATOM     18  C   UNL     1       4.310  -5.363  -9.173  0.00  0.00    +0.020 A 
ATOM     19  C   UNL     1       3.707  -4.524 -10.135  0.00  0.00    +0.050 A 
ATOM     20 CL   UNL     1       3.304  -5.020 -11.748  0.00  0.00    -0.083 Cl
ATOM     21  C   UNL     1       3.315  -3.223  -9.811  0.00  0.00    +0.022 A 
ATOM     22  C   UNL     1       3.479  -2.733  -8.521  0.00  0.00    +0.025 A 
BRANCH  18  23
ATOM     23  C   UNL     1       4.750  -6.754  -9.459  0.00  0.00    +0.072 A 
ATOM     24  N   UNL     1       4.517  -7.659  -8.472  0.00  0.00    -0.255 NA
ATOM     25  C   UNL     1       4.775  -8.963  -8.733  0.00  0.00    +0.111 A 
ATOM     26  C   UNL     1       5.253  -9.433  -9.943  0.00  0.00    +0.020 A 
ATOM     27  C   UNL     1       5.546  -8.503 -10.926  0.00  0.00    +0.004 A 
ATOM     28  C   UNL     1       5.330  -7.151 -10.668  0.00  0.00    +0.028 A 
ENDBRANCH  18  23
ENDBRANCH   2  16
TORSDOF 4
