REMARK  Name = 
REMARK  8 active torsions:
REMARK  status: ('A' for Active; 'I' for Inactive)
REMARK    1  A    between atoms: C_2  and  C_3
REMARK    2  A    between atoms: C_2  and  O_4
REMARK    3  A    between atoms: C_2  and  C_19
REMARK    4  A    between atoms: O_4  and  P_5
REMARK    5  A    between atoms: P_5  and  C_8
REMARK    6  A    between atoms: C_8  and  C_9
REMARK    7  A    between atoms: C_12  and  N_13
REMARK    8  A    between atoms: C_14  and  C_15
REMARK                            x       y       z     vdW  Elec       q    Type
REMARK                         _______ _______ _______ _____ _____    ______ ____
ROOT
ATOM      1  P   UNL     1       2.047   0.365   2.516  0.00  0.00    +0.141 P 
ATOM      2  O   UNL     1       2.624  -0.596   1.198  0.00  0.00    -0.781 OA
ATOM      3  O   UNL     1       2.165  -0.776   3.558  0.00  0.00    -0.307 OA
ENDROOT
BRANCH   1   4
ATOM      4  O   UNL     1       0.468   0.362   1.950  0.00  0.00    -0.329 OA
BRANCH   4   5
ATOM      5  C   UNL     1      -0.122   1.565   1.456  0.00  0.00    +0.152 C 
ATOM      6  C   UNL     1      -1.608   1.313   1.226  0.00  0.00    +0.043 C 
BRANCH   5   7
ATOM      7  C   UNL     1       0.612   2.193   0.298  0.00  0.00    -0.019 A 
ATOM      8  C   UNL     1       0.739   3.593   0.244  0.00  0.00    +0.006 A 
ATOM      9  C   UNL     1       1.589   4.193  -0.682  0.00  0.00    +0.000 A 
ATOM     10  C   UNL     1       2.307   3.403  -1.576  0.00  0.00    +0.000 A 
ATOM     11  C   UNL     1       2.140   2.020  -1.571  0.00  0.00    +0.000 A 
ATOM     12  C   UNL     1       1.280   1.420  -0.652  0.00  0.00    +0.006 A 
ENDBRANCH   5   7
ENDBRANCH   4   5
ENDBRANCH   1   4
BRANCH   1  13
ATOM     13  C   UNL     1       1.437   1.381   3.910  0.00  0.00    +0.117 C 
BRANCH  13  14
ATOM     14  C   UNL     1       2.275   2.632   4.126  0.00  0.00    -0.039 A 
ATOM     15  C   UNL     1       3.644   2.508   4.396  0.00  0.00    +0.006 A 
ATOM     16  C   UNL     1       4.452   3.643   4.514  0.00  0.00    +0.023 A 
ATOM     17  C   UNL     1       3.903   4.923   4.380  0.00  0.00    +0.033 A 
ATOM     18  C   UNL     1       2.529   5.043   4.164  0.00  0.00    +0.023 A 
ATOM     19  C   UNL     1       1.719   3.908   4.040  0.00  0.00    +0.006 A 
BRANCH  17  20
ATOM     20  N   UNL     1       4.786   6.023   4.422  0.00  0.00    -0.286 N 
ATOM     21  H   UNL     1       5.769   5.791   4.463  0.00  0.00    +0.155 HD
ATOM     22  C   UNL     1       4.449   7.364   4.367  0.00  0.00    +0.214 C 
ATOM     23  O   UNL     1       3.323   7.850   4.458  0.00  0.00    -0.276 OA
ATOM     24  C   UNL     1       5.652   8.257   4.215  0.00  0.00    +0.109 C 
ENDBRANCH  17  20
ENDBRANCH  13  14
ENDBRANCH   1  13
TORSDOF 6
