REMARK  Name = 
REMARK  9 active torsions:
REMARK  status: ('A' for Active; 'I' for Inactive)
REMARK    1  A    between atoms: C_2  and  O_30
REMARK    2  A    between atoms: C_14  and  O_15
REMARK    3  A    between atoms: O_15  and  C_16
REMARK    4  A    between atoms: C_17  and  O_18
REMARK    5  A    between atoms: O_18  and  S_19
REMARK    6  A    between atoms: S_19  and  N_20
REMARK    7  A    between atoms: C_28  and  C_29
REMARK    8  A    between atoms: O_30  and  S_31
REMARK    9  A    between atoms: S_31  and  N_32
REMARK                            x       y       z     vdW  Elec       q    Type
REMARK                         _______ _______ _______ _____ _____    ______ ____
ROOT
ATOM      1  C   UNL     1       3.348   0.557  -1.218  0.00  0.00    +0.157 C 
ATOM      2  C   UNL     1       3.692   1.351  -2.648  0.00  0.00    -0.000 C 
ATOM      3  C   UNL     1       4.602   2.394  -1.911  0.00  0.00    +0.014 C 
ATOM      4  C   UNL     1       2.286   1.051  -3.371  0.00  0.00    +0.001 C 
ATOM      5  C   UNL     1       1.546   2.326  -3.679  0.00  0.00    +0.000 C 
ATOM      6  C   UNL     1       2.269   3.285  -4.636  0.00  0.00    +0.023 C 
ATOM      7  C   UNL     1       3.791   3.274  -4.366  0.00  0.00    +0.009 C 
ATOM      8  C   UNL     1       1.496   4.617  -4.528  0.00  0.00    -0.037 A 
ATOM      9  C   UNL     1       2.075   5.854  -4.820  0.00  0.00    +0.053 A 
ATOM     10  C   UNL     1       1.353   7.059  -4.660  0.00  0.00    +0.165 A 
ATOM     11  C   UNL     1       0.029   7.033  -4.182  0.00  0.00    +0.199 A 
ATOM     12  C   UNL     1      -0.555   5.805  -3.906  0.00  0.00    +0.056 A 
ATOM     13  C   UNL     1       0.136   4.612  -4.124  0.00  0.00    -0.040 A 
ATOM     14  C   UNL     1      -0.640   3.350  -3.831  0.00  0.00    +0.036 C 
ATOM     15  C   UNL     1       0.140   2.132  -4.265  0.00  0.00    +0.009 C 
ATOM     16  C   UNL     1       1.474   0.092  -2.503  0.00  0.00    +0.007 C 
ATOM     17  C   UNL     1       4.369   1.784  -4.025  0.00  0.00    +0.010 C 
ATOM     18  C   UNL     1       1.816   0.583  -1.154  0.00  0.00    +0.035 C 
ENDROOT
BRANCH  10  19
ATOM     19  O   UNL     1       1.873   8.301  -4.943  0.00  0.00    -0.491 OA
ATOM     20  C   UNL     1       3.179   8.318  -5.513  0.00  0.00    +0.277 C 
ENDBRANCH  10  19
BRANCH   1  21
ATOM     21  O   UNL     1       3.753   1.224   0.023  0.00  0.00    -0.221 OA
BRANCH  21  22
ATOM     22  S   UNL     1       3.258   0.753   1.476  0.00  0.00    +0.149 S 
ATOM     23  O   UNL     1       3.777  -0.555   1.751  0.00  0.00    -0.130 OA
ATOM     24  O   UNL     1       1.859   1.078   1.672  0.00  0.00    -0.130 OA
BRANCH  22  25
ATOM     25  N   UNL     1       4.089   1.770   2.523  0.00  0.00    -0.183 NA
ATOM     26  H   UNL     1       4.688   1.226   3.141  0.00  0.00    +0.146 HD
ATOM     27  H   UNL     1       4.545   2.527   2.025  0.00  0.00    +0.146 HD
ENDBRANCH  22  25
ENDBRANCH  21  22
ENDBRANCH   1  21
BRANCH  11  28
ATOM     28  O   UNL     1      -0.644   8.225  -3.986  0.00  0.00    -0.330 OA
BRANCH  28  29
ATOM     29  S   UNL     1      -2.281   8.262  -3.929  0.00  0.00    +0.189 S 
ATOM     30  O   UNL     1      -2.752   7.597  -2.732  0.00  0.00    -0.119 OA
ATOM     31  O   UNL     1      -2.813   7.947  -5.238  0.00  0.00    -0.119 OA
BRANCH  29  32
ATOM     32  N   UNL     1      -2.644   9.876  -3.657  0.00  0.00    -0.174 NA
ATOM     33  H   UNL     1      -2.450  10.148  -2.697  0.00  0.00    +0.147 HD
ATOM     34  H   UNL     1      -2.294  10.482  -4.392  0.00  0.00    +0.147 HD
ENDBRANCH  29  32
ENDBRANCH  28  29
ENDBRANCH  11  28
TORSDOF 7
