REMARK  Name = 
REMARK  6 active torsions:
REMARK  status: ('A' for Active; 'I' for Inactive)
REMARK    1  A    between atoms: C_1  and  N_2
REMARK    2  A    between atoms: C_3  and  C_5
REMARK    3  A    between atoms: C_7  and  N_8
REMARK    4  A    between atoms: N_8  and  C_9
REMARK    5  A    between atoms: N_13  and  C_18
REMARK    6  A    between atoms: C_24  and  C_25
REMARK                            x       y       z     vdW  Elec       q    Type
REMARK                         _______ _______ _______ _____ _____    ______ ____
ROOT
ATOM      1  C   UNL     1       6.809   1.595  -2.418  0.00  0.00    +0.137 A 
ATOM      2  N   UNL     1       5.497   1.586  -2.777  0.00  0.00    -0.220 NA
ATOM      3  C   UNL     1       4.990   2.617  -3.466  0.00  0.00    +0.225 A 
ATOM      4  N   UNL     1       5.637   3.702  -3.893  0.00  0.00    -0.216 NA
ATOM      5  C   UNL     1       6.945   3.688  -3.566  0.00  0.00    +0.168 A 
ATOM      6  N   UNL     1       7.914   4.646  -3.858  0.00  0.00    -0.214 N 
ATOM      7  N   UNL     1       9.129   4.294  -3.329  0.00  0.00    -0.172 NA
ATOM      8  C   UNL     1       8.909   3.123  -2.734  0.00  0.00    +0.148 A 
ATOM      9  C   UNL     1       7.579   2.687  -2.846  0.00  0.00    +0.079 A 
ENDROOT
BRANCH   6  10
ATOM     10  C   UNL     1       7.780   5.863  -4.593  0.00  0.00    +0.068 A 
ATOM     11  C   UNL     1       6.567   6.236  -5.186  0.00  0.00    +0.028 A 
ATOM     12  C   UNL     1       6.466   7.435  -5.896  0.00  0.00    +0.002 A 
ATOM     13  C   UNL     1       7.571   8.271  -6.020  0.00  0.00    +0.000 A 
ATOM     14  C   UNL     1       8.784   7.908  -5.438  0.00  0.00    +0.002 A 
ATOM     15  C   UNL     1       8.892   6.710  -4.729  0.00  0.00    +0.028 A 
ENDBRANCH   6  10
BRANCH   1  16
ATOM     16  N   UNL     1       7.352   0.550  -1.652  0.00  0.00    -0.299 N 
ATOM     17  H   UNL     1       8.343   0.639  -1.482  0.00  0.00    +0.154 HD
BRANCH  16  23
ATOM     18  C   UNL     1       4.677  -1.064   0.405  0.00  0.00    +0.038 A 
ATOM     19  C   UNL     1       5.359  -2.148   0.947  0.00  0.00    +0.013 A 
ATOM     20  C   UNL     1       6.696  -2.358   0.607  0.00  0.00    +0.006 A 
ATOM     21  C   UNL     1       7.373  -1.486  -0.271  0.00  0.00    -0.029 A 
ATOM     22  C   UNL     1       8.792  -1.848  -0.622  0.00  0.00    +0.045 C 
ATOM     23  C   UNL     1       6.707  -0.345  -0.769  0.00  0.00    +0.036 A 
ATOM     24  C   UNL     1       5.358  -0.164  -0.417  0.00  0.00    +0.036 A 
BRANCH  18  28
ATOM     25  C   UNL     1       1.055  -0.097  -0.082  0.00  0.00    +0.128 C 
ATOM     26  N   UNL     1       2.477  -0.248  -0.247  0.00  0.00    -0.314 N 
ATOM     27  H   UNL     1       2.874  -0.100  -1.167  0.00  0.00    +0.149 HD
ATOM     28  C   UNL     1       3.237  -0.871   0.723  0.00  0.00    +0.244 C 
ATOM     29  O   UNL     1       2.778  -1.293   1.780  0.00  0.00    -0.270 OA
ENDBRANCH  18  28
ENDBRANCH  16  23
ENDBRANCH   1  16
TORSDOF 4
