REMARK  Name = 
REMARK  25 active torsions:
REMARK  status: ('A' for Active; 'I' for Inactive)
REMARK    1  A    between atoms: C_1  and  C_2
REMARK    2  A    between atoms: C_2  and  C_3
REMARK    3  A    between atoms: C_2  and  C_4
REMARK    4  A    between atoms: C_4  and  C_5
REMARK    5  A    between atoms: C_5  and  N_7
REMARK    6  A    between atoms: C_5  and  C_30
REMARK    7  A    between atoms: C_8  and  C_10
REMARK    8  A    between atoms: C_10  and  C_12
REMARK    9  A    between atoms: C_10  and  N_20
REMARK   10  A    between atoms: C_12  and  C_13
REMARK   11  A    between atoms: C_13  and  C_14
REMARK   12  A    between atoms: C_21  and  C_23
REMARK   13  A    between atoms: C_23  and  N_24
REMARK   14  A    between atoms: N_32  and  C_33
REMARK   15  A    between atoms: C_33  and  C_35
REMARK   16  A    between atoms: C_33  and  C_42
REMARK   17  A    between atoms: C_35  and  C_36
REMARK   18  A    between atoms: N_44  and  C_45
REMARK   19  A    between atoms: C_45  and  C_47
REMARK   20  A    between atoms: C_45  and  C_51
REMARK   21  A    between atoms: C_47  and  C_48
REMARK   22  A    between atoms: C_48  and  C_49
REMARK   23  A    between atoms: C_48  and  C_50
REMARK   24  A    between atoms: C_51  and  C_53
REMARK   25  A    between atoms: C_53  and  C_54
REMARK                            x       y       z     vdW  Elec       q    Type
REMARK                         _______ _______ _______ _____ _____    ______ ____
ROOT
ATOM      1  C   UNL     1       2.163   2.777  -3.006  0.00  0.00    +0.159 C 
ENDROOT
BRANCH   1   2
ATOM      2  C   UNL     1       0.999   1.752  -2.931  0.00  0.00    +0.234 C 
ATOM      3  N   UNL     1       0.328   1.447  -4.089  0.00  0.00    -0.302 N 
ATOM      4  H   UNL     1       0.385   2.042  -4.910  0.00  0.00    +0.150 HD
ATOM      5  O   UNL     1       0.820   1.085  -1.909  0.00  0.00    -0.274 OA
BRANCH   3   6
ATOM      6  C   UNL     1      -0.607   0.314  -4.209  0.00  0.00    +0.163 C 
BRANCH   6   7
ATOM      7  C   UNL     1      -1.135   0.287  -5.670  0.00  0.00    +0.234 C 
ATOM      8  N   UNL     1      -1.906  -0.812  -5.981  0.00  0.00    -0.304 N 
ATOM      9  H   UNL     1      -1.987  -1.572  -5.310  0.00  0.00    +0.149 HD
ATOM     10  O   UNL     1      -0.853   1.167  -6.475  0.00  0.00    -0.274 OA
BRANCH   8  11
ATOM     11  C   UNL     1      -2.477  -1.075  -7.303  0.00  0.00    +0.143 C 
BRANCH  11  12
ATOM     12  C   UNL     1      -3.296  -2.372  -7.184  0.00  0.00    +0.187 C 
ATOM     13  O   UNL     1      -3.031  -3.241  -6.353  0.00  0.00    -0.292 OA
BRANCH  12  14
ATOM     14  C   UNL     1      -4.442  -2.576  -8.119  0.00  0.00    +0.149 C 
ATOM     15  O   UNL     1      -5.375  -1.483  -8.173  0.00  0.00    -0.361 OA
ATOM     16  C   UNL     1      -5.832  -2.666  -7.508  0.00  0.00    +0.203 C 
ATOM     17  C   UNL     1      -4.228  -3.258  -9.436  0.00  0.00    +0.052 C 
ENDBRANCH  12  14
ENDBRANCH  11  12
BRANCH  11  18
ATOM     18  C   UNL     1      -1.421  -1.170  -8.416  0.00  0.00    +0.033 C 
BRANCH  18  19
ATOM     19  C   UNL     1      -0.390  -2.317  -8.308  0.00  0.00    -0.015 C 
ATOM     20  C   UNL     1       0.490  -2.269  -7.057  0.00  0.00    +0.007 C 
ATOM     21  C   UNL     1       0.525  -2.303  -9.539  0.00  0.00    +0.007 C 
ENDBRANCH  18  19
ENDBRANCH  11  18
ENDBRANCH   8  11
ENDBRANCH   6   7
BRANCH   6  22
ATOM     22  C   UNL     1      -1.782   0.312  -3.206  0.00  0.00    +0.067 C 
BRANCH  22  23
ATOM     23  C   UNL     1      -2.686   1.505  -3.398  0.00  0.00    -0.045 A 
ATOM     24  C   UNL     1      -2.357   2.732  -2.809  0.00  0.00    +0.004 A 
ATOM     25  C   UNL     1      -3.067   3.881  -3.144  0.00  0.00    +0.000 A 
ATOM     26  C   UNL     1      -4.123   3.808  -4.052  0.00  0.00    +0.000 A 
ATOM     27  C   UNL     1      -4.491   2.582  -4.602  0.00  0.00    +0.000 A 
ATOM     28  C   UNL     1      -3.783   1.431  -4.268  0.00  0.00    +0.004 A 
ENDBRANCH  22  23
ENDBRANCH   6  22
ENDBRANCH   3   6
ENDBRANCH   1   2
BRANCH   1  29
ATOM     29  N   UNL     1       3.347   1.925  -3.042  0.00  0.00    -0.302 N 
ATOM     30  H   UNL     1       3.340   1.188  -3.734  0.00  0.00    +0.150 HD
ATOM     31  C   UNL     1       4.283   1.854  -2.031  0.00  0.00    +0.234 C 
ATOM     32  O   UNL     1       4.316   2.604  -1.062  0.00  0.00    -0.274 OA
BRANCH  31  33
ATOM     33  C   UNL     1       5.309   0.733  -2.269  0.00  0.00    +0.159 C 
BRANCH  33  34
ATOM     34  N   UNL     1       6.645   1.205  -1.917  0.00  0.00    -0.303 N 
ATOM     35  H   UNL     1       6.754   1.947  -1.227  0.00  0.00    +0.149 HD
ATOM     36  C   UNL     1       7.766   0.529  -2.334  0.00  0.00    +0.228 C 
ATOM     37  O   UNL     1       7.709  -0.416  -3.119  0.00  0.00    -0.274 OA
BRANCH  36  38
ATOM     38  C   UNL     1       9.112   1.047  -1.825  0.00  0.00    +0.180 C 
BRANCH  38  39
ATOM     39  N   UNL     1       9.048   1.727  -0.508  0.00  0.00    -0.290 NA
ATOM     40  C   UNL     1      10.393   2.265  -0.162  0.00  0.00    +0.113 C 
ATOM     41  C   UNL     1      11.429   1.183   0.206  0.00  0.00    +0.175 C 
ATOM     42  O   UNL     1      10.965   0.366   1.286  0.00  0.00    -0.377 OA
ATOM     43  C   UNL     1       9.704  -0.238   0.971  0.00  0.00    +0.175 C 
ATOM     44  C   UNL     1       8.651   0.819   0.597  0.00  0.00    +0.113 C 
ENDBRANCH  38  39
ENDBRANCH  36  38
ENDBRANCH  33  34
BRANCH  33  45
ATOM     45  C   UNL     1       4.958  -0.558  -1.512  0.00  0.00    +0.036 C 
BRANCH  45  46
ATOM     46  C   UNL     1       3.554  -1.119  -1.767  0.00  0.00    +0.037 C 
BRANCH  46  47
ATOM     47  C   UNL     1       3.423  -2.482  -1.124  0.00  0.00    -0.047 A 
ATOM     48  C   UNL     1       3.820  -3.637  -1.812  0.00  0.00    +0.003 A 
ATOM     49  C   UNL     1       3.817  -4.878  -1.172  0.00  0.00    +0.000 A 
ATOM     50  C   UNL     1       3.414  -4.977   0.159  0.00  0.00    +0.000 A 
ATOM     51  C   UNL     1       2.996  -3.838   0.845  0.00  0.00    +0.000 A 
ATOM     52  C   UNL     1       2.997  -2.597   0.206  0.00  0.00    +0.003 A 
ENDBRANCH  46  47
ENDBRANCH  45  46
ENDBRANCH  33  45
ENDBRANCH  31  33
ENDBRANCH   1  29
BRANCH   1  53
ATOM     53  C   UNL     1       2.158   3.744  -4.204  0.00  0.00    +0.034 C 
BRANCH  53  55
ATOM     54  C   UNL     1       3.392   5.505  -5.557  0.00  0.00    +0.007 C 
ATOM     55  C   UNL     1       3.383   4.689  -4.260  0.00  0.00    -0.015 C 
ATOM     56  C   UNL     1       3.452   5.640  -3.064  0.00  0.00    +0.007 C 
ENDBRANCH  53  55
ENDBRANCH   1  53
TORSDOF 20
