REMARK  Name = 
REMARK  7 active torsions:
REMARK  status: ('A' for Active; 'I' for Inactive)
REMARK    1  A    between atoms: C_1  and  N_2
REMARK    2  A    between atoms: C_3  and  C_5
REMARK    3  A    between atoms: C_7  and  O_8
REMARK    4  A    between atoms: O_8  and  C_9
REMARK    5  A    between atoms: C_13  and  N_14
REMARK    6  A    between atoms: N_17  and  C_18
REMARK    7  A    between atoms: C_23  and  C_25
REMARK                            x       y       z     vdW  Elec       q    Type
REMARK                         _______ _______ _______ _____ _____    ______ ____
ROOT
ATOM      1  C   UNL     1       6.705   3.611  -3.145  0.00  0.00    +0.131 A 
ATOM      2  C   UNL     1       7.028   4.939  -2.857  0.00  0.00    +0.048 A 
ATOM      3  C   UNL     1       6.621   5.963  -3.719  0.00  0.00    +0.030 A 
ATOM      4  C   UNL     1       5.867   5.658  -4.854  0.00  0.00    +0.070 A 
ATOM      5  C   UNL     1       5.463   4.339  -5.070  0.00  0.00    +0.148 A 
ATOM      6  F   UNL     1       4.723   4.043  -6.149  0.00  0.00    -0.203 F 
ATOM      7  C   UNL     1       5.876   3.313  -4.228  0.00  0.00    +0.086 A 
ENDROOT
BRANCH   4   8
ATOM      8  N   UNL     1       5.515   6.648  -5.806  0.00  0.00    -0.267 N 
ATOM      9  H   UNL     1       4.840   6.343  -6.501  0.00  0.00    +0.156 HD
ATOM     10  C   UNL     1       6.482   7.482  -6.339  0.00  0.00    +0.308 C 
ATOM     11  N   UNL     1       5.917   8.434  -7.172  0.00  0.00    -0.269 N 
ATOM     12  H   UNL     1       5.046   8.785  -6.798  0.00  0.00    +0.156 HD
ATOM     13  O   UNL     1       7.682   7.404  -6.095  0.00  0.00    -0.252 OA
BRANCH  11  14
ATOM     14  C   UNL     1       6.730   9.365  -7.851  0.00  0.00    +0.035 A 
ATOM     15  C   UNL     1       7.795   8.957  -8.664  0.00  0.00    +0.037 A 
ATOM     16  C   UNL     1       8.616   9.896  -9.332  0.00  0.00    +0.075 A 
ATOM     17  C   UNL     1       8.368  11.256  -9.111  0.00  0.00    +0.053 A 
ATOM     18 CL   UNL     1       9.335  12.520  -9.779  0.00  0.00    -0.083 Cl
ATOM     19  C   UNL     1       7.294  11.661  -8.307  0.00  0.00    +0.022 A 
ATOM     20  C   UNL     1       6.454  10.721  -7.709  0.00  0.00    +0.025 A 
BRANCH  16  21
ATOM     21  C   UNL     1       9.678   9.362 -10.258  0.00  0.00    +0.419 C 
ATOM     22  F   UNL     1       9.131   8.618 -11.265  0.00  0.00    -0.166 F 
ATOM     23  F   UNL     1      10.549   8.527  -9.623  0.00  0.00    -0.166 F 
ATOM     24  F   UNL     1      10.455  10.285 -10.884  0.00  0.00    -0.166 F 
ENDBRANCH  16  21
ENDBRANCH  11  14
ENDBRANCH   4   8
BRANCH   1  25
ATOM     25  O   UNL     1       7.195   2.648  -2.291  0.00  0.00    -0.456 OA
BRANCH  25  30
ATOM     26  C   UNL     1       8.932   0.242  -4.477  0.00  0.00    +0.129 A 
ATOM     27  N   UNL     1       8.960  -0.877  -3.696  0.00  0.00    -0.250 NA
ATOM     28  C   UNL     1       8.418  -0.758  -2.465  0.00  0.00    +0.115 A 
ATOM     29  C   UNL     1       7.832   0.405  -1.989  0.00  0.00    +0.066 A 
ATOM     30  C   UNL     1       7.791   1.521  -2.821  0.00  0.00    +0.132 A 
ATOM     31  C   UNL     1       8.382   1.451  -4.079  0.00  0.00    +0.079 A 
BRANCH  26  35
ATOM     32  C   UNL     1      10.817  -1.289  -7.372  0.00  0.00    +0.128 C 
ATOM     33  N   UNL     1      10.113  -1.082  -6.140  0.00  0.00    -0.313 N 
ATOM     34  H   UNL     1      10.084  -1.798  -5.417  0.00  0.00    +0.149 HD
ATOM     35  C   UNL     1       9.537   0.136  -5.842  0.00  0.00    +0.262 C 
ATOM     36  O   UNL     1       9.517   1.082  -6.621  0.00  0.00    -0.269 OA
ENDBRANCH  26  35
ENDBRANCH  25  30
ENDBRANCH   1  25
TORSDOF 6
