REMARK  Name = 
REMARK  8 active torsions:
REMARK  status: ('A' for Active; 'I' for Inactive)
REMARK    1  A    between atoms: C_2  and  C_3
REMARK    2  A    between atoms: C_2  and  N_14
REMARK    3  A    between atoms: C_2  and  B_18
REMARK    4  A    between atoms: C_3  and  C_4
REMARK    5  A    between atoms: C_15  and  C_16
REMARK    6  A    between atoms: B_18  and  O_19
REMARK    7  A    between atoms: B_18  and  O_20
REMARK    8  A    between atoms: B_18  and  O_21
REMARK                            x       y       z     vdW  Elec       q    Type
REMARK                         _______ _______ _______ _____ _____    ______ ____
ROOT
ATOM      1  C   UNL     1       1.880  -0.315  -0.071  0.00  0.00    +0.000 C 
ENDROOT
BRANCH   1   2
ATOM      2  N   UNL     1       2.678   0.250   1.011  0.00  0.00    +0.000 N 
ATOM      3  H   UNL     1       2.439  -0.010   1.980  0.00  0.00    +0.000 HD
ATOM      4  C   UNL     1       3.728   1.097   0.799  0.00  0.00    +0.000 C 
ATOM      5  O   UNL     1       4.044   1.433  -0.333  0.00  0.00    +0.000 OA
ATOM      6  C   UNL     1       4.528   1.635   1.951  0.00  0.00    +0.000 C 
ENDBRANCH   1   2
BRANCH   1   7
ATOM      7  C   UNL     1       0.389   0.106   0.061  0.00  0.00    +0.000 C 
BRANCH   7   8
ATOM      8  C   UNL     1       0.171   1.611  -0.068  0.00  0.00    +0.000 A 
ATOM      9  C   UNL     1       0.617   2.216  -1.260  0.00  0.00    +0.000 A 
ATOM     10  C   UNL     1       0.468   3.579  -1.485  0.00  0.00    +0.000 A 
ATOM     11  C   UNL     1      -0.140   4.384  -0.533  0.00  0.00    +0.000 A 
ATOM     12  C   UNL     1      -0.619   3.828   0.659  0.00  0.00    +0.000 A 
ATOM     13  C   UNL     1      -1.250   4.665   1.594  0.00  0.00    +0.000 A 
ATOM     14  C   UNL     1      -1.756   4.140   2.779  0.00  0.00    +0.000 A 
ATOM     15  C   UNL     1      -1.638   2.777   3.042  0.00  0.00    +0.000 A 
ATOM     16  C   UNL     1      -1.004   1.928   2.127  0.00  0.00    +0.000 A 
ATOM     17  C   UNL     1      -0.477   2.431   0.913  0.00  0.00    +0.000 A 
ENDBRANCH   7   8
ENDBRANCH   1   7
BRANCH   1  18
ATOM     18  B   UNL     1       2.032  -1.947  -0.116  0.00  0.00    +0.000 B 
BRANCH  18  19
ATOM     19  O   UNL     1       1.237  -2.479  -1.243  0.00  0.00    +0.000 OA
ATOM     20  H   UNL     1       1.592  -2.057  -2.068  0.00  0.00    +0.000 HD
ENDBRANCH  18  19
BRANCH  18  21
ATOM     21  O   UNL     1       1.517  -2.564   1.130  0.00  0.00    +0.000 OA
ATOM     22  H   UNL     1       2.166  -2.379   1.855  0.00  0.00    +0.000 HD
ENDBRANCH  18  21
BRANCH  18  23
ATOM     23  O   UNL     1       3.451  -2.324  -0.337  0.00  0.00    +0.000 OA
ATOM     24  H   UNL     1       3.934  -2.227   0.522  0.00  0.00    +0.000 HD
ENDBRANCH  18  23
ENDBRANCH   1  18
TORSDOF 7
