REMARK  Name = 
REMARK  18 active torsions:
REMARK  status: ('A' for Active; 'I' for Inactive)
REMARK    1  A    between atoms: C_5  and  C_7
REMARK    2  A    between atoms: N_9  and  C_10
REMARK    3  A    between atoms: C_10  and  C_11
REMARK    4  A    between atoms: C_10  and  C_16
REMARK    5  A    between atoms: C_11  and  C_12
REMARK    6  A    between atoms: C_16  and  C_18
REMARK    7  A    between atoms: C_23  and  C_24
REMARK    8  A    between atoms: C_23  and  C_25
REMARK    9  A    between atoms: C_26  and  C_28
REMARK   10  A    between atoms: C_28  and  N_30
REMARK   11  A    between atoms: C_28  and  C_38
REMARK   12  A    between atoms: N_33  and  C_34
REMARK   13  A    between atoms: C_34  and  C_35
REMARK   14  A    between atoms: C_34  and  C_36
REMARK   15  A    between atoms: C_34  and  C_37
REMARK   16  A    between atoms: C_38  and  C_39
REMARK   17  A    between atoms: C_38  and  C_40
REMARK   18  A    between atoms: C_38  and  C_41
REMARK                            x       y       z     vdW  Elec       q    Type
REMARK                         _______ _______ _______ _____ _____    ______ ____
ROOT
ATOM      1  C   UNL     1       2.160  -0.073  -0.269  0.00  0.00    +0.018 C 
ATOM      2  C   UNL     1       3.123  -1.167   0.170  0.00  0.00    -0.025 C 
ATOM      3  C   UNL     1       2.661  -2.582  -0.101  0.00  0.00    +0.011 C 
ATOM      4  C   UNL     1       3.935  -1.052   1.432  0.00  0.00    +0.011 C 
ATOM      5  C   UNL     1       3.434  -0.279  -1.032  0.00  0.00    +0.030 C 
ATOM      6  C   UNL     1       4.240   1.040  -0.980  0.00  0.00    +0.166 C 
ATOM      7  N   UNL     1       3.179   2.002  -0.626  0.00  0.00    -0.288 N 
ATOM      8  C   UNL     1       3.308   3.367  -0.370  0.00  0.00    +0.237 C 
ATOM      9  O   UNL     1       2.734   3.861   0.607  0.00  0.00    -0.274 OA
ATOM     10  C   UNL     1       2.140   1.349   0.163  0.00  0.00    +0.113 C 
ENDROOT
BRANCH   6  11
ATOM     11  C   UNL     1       5.196   1.161  -2.218  0.00  0.00    +0.234 C 
ATOM     12  N   UNL     1       5.686  -0.037  -2.690  0.00  0.00    -0.304 N 
ATOM     13  H   UNL     1       5.353  -0.917  -2.308  0.00  0.00    +0.149 HD
ATOM     14  O   UNL     1       5.640   2.209  -2.680  0.00  0.00    -0.274 OA
BRANCH  12  15
ATOM     15  C   UNL     1       6.648  -0.124  -3.787  0.00  0.00    +0.149 C 
BRANCH  15  16
ATOM     16  C   UNL     1       6.313  -1.398  -4.553  0.00  0.00    +0.237 C 
ATOM     17  O   UNL     1       5.471  -2.221  -4.191  0.00  0.00    -0.285 OA
BRANCH  16  18
ATOM     18  C   UNL     1       7.082  -1.655  -5.847  0.00  0.00    +0.279 C 
ATOM     19  O   UNL     1       7.888  -0.857  -6.288  0.00  0.00    -0.267 OA
ATOM     20  N   UNL     1       6.785  -2.851  -6.440  0.00  0.00    -0.323 N 
ATOM     21  H   UNL     1       7.246  -3.116  -7.299  0.00  0.00    +0.145 HD
ATOM     22  H   UNL     1       6.080  -3.457  -6.033  0.00  0.00    +0.145 HD
ENDBRANCH  16  18
ENDBRANCH  15  16
BRANCH  15  23
ATOM     23  C   UNL     1       8.087  -0.063  -3.258  0.00  0.00    +0.034 C 
BRANCH  23  24
ATOM     24  C   UNL     1       8.361  -1.091  -2.159  0.00  0.00    -0.009 C 
ATOM     25  C   UNL     1       9.858  -1.392  -1.881  0.00  0.00    +0.003 C 
ATOM     26  C   UNL     1       9.393  -2.799  -1.443  0.00  0.00    +0.001 C 
ATOM     27  C   UNL     1       8.228  -2.617  -2.438  0.00  0.00    +0.003 C 
ENDBRANCH  23  24
ENDBRANCH  15  23
ENDBRANCH  12  15
ENDBRANCH   6  11
BRANCH   8  28
ATOM     28  C   UNL     1       4.155   4.250  -1.341  0.00  0.00    +0.166 C 
BRANCH  28  29
ATOM     29  N   UNL     1       3.767   4.008  -2.745  0.00  0.00    -0.288 N 
ATOM     30  H   UNL     1       4.513   3.760  -3.381  0.00  0.00    +0.151 HD
ATOM     31  C   UNL     1       2.471   3.949  -3.161  0.00  0.00    +0.301 C 
ATOM     32  N   UNL     1       2.328   3.801  -4.512  0.00  0.00    -0.295 N 
ATOM     33  H   UNL     1       3.131   4.052  -5.070  0.00  0.00    +0.151 HD
ATOM     34  O   UNL     1       1.522   3.995  -2.386  0.00  0.00    -0.253 OA
BRANCH  32  35
ATOM     35  C   UNL     1       1.013   3.721  -5.169  0.00  0.00    +0.028 C 
ATOM     36  C   UNL     1       0.282   2.436  -4.742  0.00  0.00    +0.031 C 
ATOM     37  C   UNL     1       1.211   3.670  -6.692  0.00  0.00    +0.031 C 
ATOM     38  C   UNL     1       0.141   4.955  -4.853  0.00  0.00    +0.031 C 
ENDBRANCH  32  35
ENDBRANCH  28  29
BRANCH  28  39
ATOM     39  C   UNL     1       4.253   5.782  -1.017  0.00  0.00    -0.011 C 
ATOM     40  C   UNL     1       2.913   6.510  -1.211  0.00  0.00    +0.013 C 
ATOM     41  C   UNL     1       5.293   6.443  -1.958  0.00  0.00    +0.013 C 
ATOM     42  C   UNL     1       4.766   6.024   0.420  0.00  0.00    +0.013 C 
ENDBRANCH  28  39
ENDBRANCH   8  28
TORSDOF 10
