REMARK  Name = 
REMARK  5 active torsions:
REMARK  status: ('A' for Active; 'I' for Inactive)
REMARK    1  A    between atoms: O_1  and  C_2
REMARK    2  A    between atoms: C_2  and  C_4
REMARK    3  A    between atoms: C_4  and  N_5
REMARK    4  A    between atoms: C_7  and  C_8
REMARK    5  A    between atoms: C_8  and  C_9
REMARK                            x       y       z     vdW  Elec       q    Type
REMARK                         _______ _______ _______ _____ _____    ______ ____
ROOT
ATOM      1  N   UNL     1       4.627  -0.974  -0.296  0.00  0.00    -0.321 N 
ATOM      2  C   UNL     1       5.624  -1.910  -0.230  0.00  0.00    +0.141 A 
ATOM      3  C   UNL     1       6.837  -1.231  -0.139  0.00  0.00    +0.022 A 
ATOM      4  C   UNL     1       8.001  -2.009  -0.027  0.00  0.00    +0.013 A 
ATOM      5  C   UNL     1       7.859  -3.397  -0.021  0.00  0.00    +0.020 A 
ATOM      6  C   UNL     1       6.585  -3.943  -0.135  0.00  0.00    +0.113 A 
ATOM      7  C   UNL     1       6.546   0.169  -0.197  0.00  0.00    -0.014 A 
ATOM      8  N   UNL     1       5.426  -3.246  -0.260  0.00  0.00    -0.237 NA
ATOM      9  C   UNL     1       5.171   0.281  -0.343  0.00  0.00    +0.093 A 
ENDROOT
BRANCH   1  10
ATOM     10  C   UNL     1       3.210  -1.279  -0.255  0.00  0.00    +0.243 C 
BRANCH  10  11
ATOM     11  C   UNL     1       2.662  -1.682  -1.594  0.00  0.00    +0.325 C 
ATOM     12  O   UNL     1       1.752  -1.086  -2.156  0.00  0.00    -0.249 OA
BRANCH  11  13
ATOM     13  O   UNL     1       3.212  -2.806  -2.118  0.00  0.00    -0.479 OA
ATOM     14  H   UNL     1       3.943  -3.180  -1.570  0.00  0.00    +0.295 HD
ENDBRANCH  11  13
ENDBRANCH  10  11
ENDBRANCH   1  10
BRANCH   7  15
ATOM     15  C   UNL     1       7.532   1.297  -0.150  0.00  0.00    +0.100 C 
BRANCH  15  16
ATOM     16  C   UNL     1       7.227   2.300   0.928  0.00  0.00    +0.084 A 
ATOM     17  S   UNL     1       7.870   2.107   2.510  0.00  0.00    -0.069 S 
ATOM     18  C   UNL     1       7.121   3.578   3.000  0.00  0.00    +0.077 A 
ATOM     19  C   UNL     1       7.147   4.227   4.244  0.00  0.00    +0.142 A 
ATOM     20  C   UNL     1       6.457   5.424   4.415  0.00  0.00    +0.081 A 
ATOM     21  C   UNL     1       5.748   5.961   3.354  0.00  0.00    +0.163 A 
ATOM     22  C   UNL     1       5.715   5.327   2.113  0.00  0.00    +0.185 A 
ATOM     23  F   UNL     1       5.020   5.880   1.107  0.00  0.00    -0.200 F 
ATOM     24  F   UNL     1       5.087   7.114   3.532  0.00  0.00    -0.202 F 
ATOM     25  F   UNL     1       7.833   3.715   5.275  0.00  0.00    -0.204 F 
ATOM     26  C   UNL     1       6.413   4.116   1.921  0.00  0.00    +0.119 A 
ATOM     27  N   UNL     1       6.489   3.376   0.748  0.00  0.00    -0.241 NA
ENDBRANCH  15  16
ENDBRANCH   7  15
TORSDOF 5
