REMARK  Name = 
REMARK  5 active torsions:
REMARK  status: ('A' for Active; 'I' for Inactive)
REMARK    1  A    between atoms: C_5  and  N_8
REMARK    2  A    between atoms: C_10  and  C_24
REMARK    3  A    between atoms: C_12  and  N_13
REMARK    4  A    between atoms: N_13  and  S_14
REMARK    5  A    between atoms: S_14  and  C_17
REMARK                            x       y       z     vdW  Elec       q    Type
REMARK                         _______ _______ _______ _____ _____    ______ ____
ROOT
ATOM      1  N   UNL     1       6.498   0.017  -0.524  0.00  0.00    -0.217 N 
ATOM      2  C   UNL     1       7.299  -1.097  -0.787  0.00  0.00    +0.142 A 
ATOM      3  C   UNL     1       8.553  -0.626  -1.090  0.00  0.00    +0.075 A 
ATOM      4  C   UNL     1       8.464   0.776  -0.989  0.00  0.00    +0.102 A 
ATOM      5  N   UNL     1       7.233   1.166  -0.645  0.00  0.00    -0.164 NA
ENDROOT
BRANCH   1  10
ATOM      6  F   UNL     1       0.983   0.416   0.197  0.00  0.00    -0.205 F 
ATOM      7  C   UNL     1       2.309   0.317   0.053  0.00  0.00    +0.124 A 
ATOM      8  C   UNL     1       2.895  -0.936  -0.033  0.00  0.00    +0.040 A 
ATOM      9  C   UNL     1       4.277  -1.046  -0.218  0.00  0.00    +0.030 A 
ATOM     10  C   UNL     1       5.086   0.096  -0.295  0.00  0.00    +0.068 A 
ATOM     11  C   UNL     1       4.472   1.358  -0.184  0.00  0.00    +0.030 A 
ATOM     12  C   UNL     1       3.085   1.465  -0.020  0.00  0.00    +0.040 A 
ENDBRANCH   1  10
BRANCH   4  13
ATOM     13  C   UNL     1       9.591   1.737  -1.264  0.00  0.00    +0.039 A 
ATOM     14  S   UNL     1      11.193   1.239  -1.625  0.00  0.00    -0.095 S 
ATOM     15  C   UNL     1      11.733   2.851  -1.797  0.00  0.00    +0.046 A 
ATOM     16  C   UNL     1      10.715   3.756  -1.587  0.00  0.00    +0.008 A 
ATOM     17  C   UNL     1       9.478   3.112  -1.274  0.00  0.00    +0.018 A 
ENDBRANCH   4  13
BRANCH   2  18
ATOM     18  N   UNL     1       6.983  -2.446  -0.886  0.00  0.00    -0.199 N 
ATOM     19  H   UNL     1       7.188  -2.912  -1.756  0.00  0.00    +0.175 HD
BRANCH  18  20
ATOM     20  S   UNL     1       6.896  -3.421   0.427  0.00  0.00    +0.074 S 
ATOM     21  O   UNL     1       5.714  -4.250   0.328  0.00  0.00    -0.150 OA
ATOM     22  O   UNL     1       7.178  -2.690   1.646  0.00  0.00    -0.150 OA
BRANCH  20  23
ATOM     23  C   UNL     1       8.286  -4.502   0.135  0.00  0.00    +0.111 A 
ATOM     24  C   UNL     1       8.102  -5.669  -0.613  0.00  0.00    +0.067 A 
ATOM     25  C   UNL     1       9.194  -6.504  -0.826  0.00  0.00    +0.125 A 
ATOM     26  F   UNL     1       9.030  -7.621  -1.547  0.00  0.00    -0.205 F 
ATOM     27  C   UNL     1      10.444  -6.201  -0.304  0.00  0.00    +0.038 A 
ATOM     28  C   UNL     1      10.619  -5.040   0.452  0.00  0.00    +0.005 A 
ATOM     29  C   UNL     1       9.537  -4.186   0.677  0.00  0.00    +0.029 A 
ENDBRANCH  20  23
ENDBRANCH  18  20
ENDBRANCH   2  18
TORSDOF 5
