REMARK  Name = 
REMARK  8 active torsions:
REMARK  status: ('A' for Active; 'I' for Inactive)
REMARK    1  A    between atoms: N_7  and  C_8
REMARK    2  A    between atoms: C_9  and  C_11
REMARK    3  A    between atoms: C_11  and  O_13
REMARK    4  A    between atoms: O_13  and  C_14
REMARK    5  A    between atoms: C_15  and  O_18
REMARK    6  A    between atoms: O_18  and  P_19
REMARK    7  A    between atoms: P_19  and  O_20
REMARK    8  A    between atoms: P_19  and  C_22
REMARK                            x       y       z     vdW  Elec       q    Type
REMARK                         _______ _______ _______ _____ _____    ______ ____
ROOT
ATOM      1  C   UNL     1       7.744   0.066   1.923  0.00  0.00    +0.059 C 
ATOM      2  C   UNL     1       8.204  -1.399   1.729  0.00  0.00    +0.052 C 
ATOM      3  C   UNL     1       7.163  -2.430   2.130  0.00  0.00    +0.145 C 
ATOM      4  C   UNL     1       6.550  -2.018   3.511  0.00  0.00    +0.144 C 
ATOM      5  C   UNL     1       6.525  -0.486   3.804  0.00  0.00    +0.073 C 
ATOM      6  C   UNL     1       7.882   0.084   4.315  0.00  0.00    +0.021 C 
ATOM      7  N   UNL     1       6.470   0.297   2.590  0.00  0.00    -0.299 NA
ATOM      8  C   UNL     1       5.207   0.352   1.906  0.00  0.00    +0.105 C 
ATOM      9  C   UNL     1       8.600   0.624   3.060  0.00  0.00    +0.020 C 
ENDROOT
BRANCH   4  10
ATOM     10  C   UNL     1       5.203  -2.672   3.775  0.00  0.00    +0.314 C 
ATOM     11  O   UNL     1       4.173  -2.080   4.085  0.00  0.00    -0.250 OA
BRANCH  10  12
ATOM     12  O   UNL     1       5.324  -4.028   3.715  0.00  0.00    -0.468 OA
ATOM     13  C   UNL     1       4.161  -4.789   4.021  0.00  0.00    +0.280 C 
ENDBRANCH  10  12
ENDBRANCH   4  10
BRANCH   3  14
ATOM     14  O   UNL     1       6.220  -2.628   1.075  0.00  0.00    -0.300 OA
BRANCH  14  15
ATOM     15  P   UNL     1       6.552  -3.320  -0.415  0.00  0.00    +0.361 P 
ATOM     16  O   UNL     1       7.924  -2.884  -0.943  0.00  0.00    -0.253 OA
BRANCH  15  17
ATOM     17  C   UNL     1       5.656  -1.947  -1.230  0.00  0.00    +0.064 A 
ATOM     18  C   UNL     1       6.252  -0.676  -1.344  0.00  0.00    +0.016 A 
ATOM     19  C   UNL     1       5.791   0.274  -2.254  0.00  0.00    +0.001 A 
ATOM     20  C   UNL     1       4.723  -0.037  -3.085  0.00  0.00    +0.000 A 
ATOM     21  C   UNL     1       4.111  -1.287  -2.989  0.00  0.00    +0.001 A 
ATOM     22  C   UNL     1       4.570  -2.239  -2.068  0.00  0.00    +0.016 A 
ENDBRANCH  15  17
BRANCH  15  23
ATOM     23  O   UNL     1       7.398  -4.617   0.355  0.00  0.00    -0.321 OA
ATOM     24  H   UNL     1       8.325  -4.300   0.356  0.00  0.00    +0.220 HD
ENDBRANCH  15  23
ENDBRANCH  14  15
ENDBRANCH   3  14
TORSDOF 6
