REMARK  Name = 
REMARK  8 active torsions:
REMARK  status: ('A' for Active; 'I' for Inactive)
REMARK    1  A    between atoms: C_2  and  C_3
REMARK    2  A    between atoms: C_3  and  O_4
REMARK    3  A    between atoms: C_6  and  O_8
REMARK    4  A    between atoms: O_8  and  C_9
REMARK    5  A    between atoms: C_10  and  N_18
REMARK    6  A    between atoms: C_12  and  N_15
REMARK    7  A    between atoms: C_24  and  O_26
REMARK    8  A    between atoms: C_27  and  O_29
REMARK                            x       y       z     vdW  Elec       q    Type
REMARK                         _______ _______ _______ _____ _____    ______ ____
ROOT
ATOM      1  C   UNL     1       2.045   0.192   0.049  0.00  0.00    +0.179 C 
ATOM      2  C   UNL     1       2.490   1.287  -0.932  0.00  0.00    +0.177 C 
ATOM      3  C   UNL     1       2.035   0.978  -2.365  0.00  0.00    +0.185 C 
ATOM      4  C   UNL     1       2.528  -0.412  -2.764  0.00  0.00    +0.265 C 
ATOM      5  F   UNL     1       2.077  -0.733  -4.005  0.00  0.00    -0.236 F 
ATOM      6  C   UNL     1       2.123  -1.486  -1.747  0.00  0.00    +0.345 C 
ATOM      7  O   UNL     1       2.504  -1.096  -0.412  0.00  0.00    -0.331 OA
ENDROOT
BRANCH   2   8
ATOM      8  O   UNL     1       3.926   1.375  -0.906  0.00  0.00    -0.386 OA
ATOM      9  H   UNL     1       4.284   0.528  -0.579  0.00  0.00    +0.210 HD
ENDBRANCH   2   8
BRANCH   3  10
ATOM     10  O   UNL     1       0.619   1.134  -2.456  0.00  0.00    -0.386 OA
ATOM     11  H   UNL     1       0.198   0.281  -2.685  0.00  0.00    +0.210 HD
ENDBRANCH   3  10
BRANCH   1  12
ATOM     12  C   UNL     1       0.554   0.257   0.427  0.00  0.00    +0.190 C 
BRANCH  12  13
ATOM     13  O   UNL     1       0.233  -0.699   1.441  0.00  0.00    -0.392 OA
ATOM     14  H   UNL     1       0.858  -0.575   2.175  0.00  0.00    +0.210 HD
ENDBRANCH  12  13
ENDBRANCH   1  12
BRANCH   6  15
ATOM     15  O   UNL     1       0.739  -1.863  -1.887  0.00  0.00    -0.454 OA
BRANCH  15  16
ATOM     16  C   UNL     1       0.249  -2.759  -0.966  0.00  0.00    +0.201 A 
ATOM     17  C   UNL     1       1.074  -3.534  -0.139  0.00  0.00    +0.059 A 
ATOM     18  C   UNL     1       0.549  -4.234   0.950  0.00  0.00    +0.088 A 
ATOM     19  C   UNL     1      -0.826  -4.206   1.196  0.00  0.00    +0.280 A 
ATOM     20  C   UNL     1      -1.692  -3.560   0.310  0.00  0.00    +0.172 A 
ATOM     21  C   UNL     1      -1.138  -2.854  -0.772  0.00  0.00    +0.321 A 
BRANCH  19  22
ATOM     22  N   UNL     1      -1.348  -4.838   2.413  0.00  0.00    +0.080 N 
ATOM     23  O   UNL     1      -0.532  -5.354   3.190  0.00  0.00    +0.041 OA
ATOM     24  O   UNL     1      -2.573  -4.808   2.593  0.00  0.00    -0.576 OA
ENDBRANCH  19  22
BRANCH  21  25
ATOM     25  N   UNL     1      -2.063  -2.233  -1.706  0.00  0.00    +0.084 N 
ATOM     26  O   UNL     1      -2.952  -2.956  -2.165  0.00  0.00    +0.042 OA
ATOM     27  O   UNL     1      -1.918  -1.029  -1.958  0.00  0.00    -0.576 OA
ENDBRANCH  21  25
ENDBRANCH  15  16
ENDBRANCH   6  15
TORSDOF 8
