REMARK  Name = 
REMARK  9 active torsions:
REMARK  status: ('A' for Active; 'I' for Inactive)
REMARK    1  A    between atoms: C_2  and  C_3
REMARK    2  A    between atoms: C_2  and  C_7
REMARK    3  A    between atoms: C_2  and  C_12
REMARK    4  A    between atoms: C_3  and  C_4
REMARK    5  A    between atoms: C_4  and  C_5
REMARK    6  A    between atoms: C_4  and  C_6
REMARK    7  A    between atoms: C_7  and  C_8
REMARK    8  A    between atoms: N_10  and  O_11
REMARK    9  A    between atoms: N_14  and  C_15
REMARK                            x       y       z     vdW  Elec       q    Type
REMARK                         _______ _______ _______ _____ _____    ______ ____
ROOT
ATOM      1  C   UNL     1       4.826   3.355   3.765  0.00  0.00    +0.163 C 
ATOM      2  C   UNL     1       4.855   5.103   4.299  0.00  0.00    +0.234 C 
ATOM      3  O   UNL     1       4.091   5.904   3.740  0.00  0.00    -0.274 OA
ATOM      4  N   UNL     1       5.722   5.593   5.389  0.00  0.00    -0.314 N 
ATOM      5  H   UNL     1       5.637   4.996   6.202  0.00  0.00    +0.149 HD
ATOM      6  C   UNL     1       5.877   7.118   5.831  0.00  0.00    +0.104 C 
ATOM      7  C   UNL     1       6.989   7.743   6.907  0.00  0.00    +0.019 C 
ATOM      8  C   UNL     1       8.505   8.113   6.669  0.00  0.00    +0.002 C 
ATOM      9  C   UNL     1       9.385   6.876   6.514  0.00  0.00    +0.002 C 
ATOM     10  C   UNL     1       9.203   6.524   5.075  0.00  0.00    +0.022 C 
ATOM     11  C   UNL     1       8.949   5.107   4.757  0.00  0.00    +0.122 C 
ATOM     12  N   UNL     1       8.455   5.001   3.385  0.00  0.00    -0.346 N 
ATOM     13  C   UNL     1       7.655   5.881   2.624  0.00  0.00    +0.049 A 
ATOM     14  C   UNL     1       7.385   7.270   2.623  0.00  0.00    +0.026 A 
ATOM     15  C   UNL     1       6.342   7.776   1.828  0.00  0.00    +0.002 A 
ATOM     16  C   UNL     1       5.648   6.957   0.955  0.00  0.00    +0.001 A 
ATOM     17  C   UNL     1       5.900   5.587   0.947  0.00  0.00    +0.010 A 
ATOM     18  C   UNL     1       6.858   5.051   1.832  0.00  0.00    +0.003 A 
ATOM     19  C   UNL     1       6.991   3.821   2.485  0.00  0.00    -0.020 A 
ATOM     20  C   UNL     1       8.281   3.711   2.935  0.00  0.00    +0.090 A 
ATOM     21  C   UNL     1       5.950   2.884   2.807  0.00  0.00    +0.069 C 
ENDROOT
BRANCH   1  23
ATOM     22  C   UNL     1       3.435   1.433   2.401  0.00  0.00    +0.217 C 
ATOM     23  N   UNL     1       3.600   2.682   3.053  0.00  0.00    -0.303 N 
ATOM     24  H   UNL     1       3.047   3.365   2.545  0.00  0.00    +0.149 HD
ATOM     25  O   UNL     1       2.635   1.402   1.472  0.00  0.00    -0.275 OA
BRANCH  22  26
ATOM     26  C   UNL     1       4.177   0.041   2.773  0.00  0.00    +0.084 C 
BRANCH  26  27
ATOM     27  C   UNL     1       3.237  -1.208   2.609  0.00  0.00    +0.110 C 
BRANCH  27  28
ATOM     28  C   UNL     1       3.627  -2.348   3.574  0.00  0.00    +0.236 C 
ATOM     29  N   UNL     1       2.969  -3.535   3.361  0.00  0.00    -0.197 N 
ATOM     30  H   UNL     1       2.220  -3.715   2.745  0.00  0.00    +0.182 HD
ATOM     31  O   UNL     1       4.455  -2.218   4.466  0.00  0.00    -0.274 OA
BRANCH  29  32
ATOM     32  O   UNL     1       3.336  -4.581   4.258  0.00  0.00    -0.295 OA
ATOM     33  H   UNL     1       4.035  -4.183   4.816  0.00  0.00    +0.241 HD
ENDBRANCH  29  32
ENDBRANCH  27  28
ENDBRANCH  26  27
BRANCH  26  34
ATOM     34  C   UNL     1       5.596  -0.310   2.162  0.00  0.00    +0.016 C 
BRANCH  34  35
ATOM     35  C   UNL     1       5.823  -1.387   1.044  0.00  0.00    -0.016 C 
ATOM     36  C   UNL     1       7.296  -1.852   1.033  0.00  0.00    +0.007 C 
ATOM     37  C   UNL     1       5.492  -0.879  -0.360  0.00  0.00    +0.007 C 
ENDBRANCH  34  35
ENDBRANCH  26  34
ENDBRANCH  22  26
ENDBRANCH   1  23
TORSDOF 7
