REMARK  Name = 
REMARK  5 active torsions:
REMARK  status: ('A' for Active; 'I' for Inactive)
REMARK    1  A    between atoms: O_1  and  C_2
REMARK    2  A    between atoms: C_2  and  CA_4
REMARK    3  A    between atoms: CA_4  and  N_5
REMARK    4  A    between atoms: C_6  and  CA_8
REMARK    5  A    between atoms: C_9  and  O_10
REMARK                            x       y       z     vdW  Elec       q    Type
REMARK                         _______ _______ _______ _____ _____    ______ ____
ROOT
ATOM      1  CA  UNL     1       7.058  -0.446   1.906  0.00  0.00    +0.169 A 
ATOM      2  N   UNL     1       7.668  -1.648   1.760  0.00  0.00    -0.226 NA
ATOM      3  C   UNL     1       8.984  -1.598   1.449  0.00  0.00    +0.138 A 
ATOM      4 CL   UNL     1       9.656  -3.179   1.286  0.00  0.00    -0.061 Cl
ATOM      5  C   UNL     1       9.742  -0.425   1.257  0.00  0.00    +0.022 A 
ATOM      6  C   UNL     1       9.060   0.803   1.431  0.00  0.00    +0.029 A 
ATOM      7  C   UNL     1       9.767   2.009   1.247  0.00  0.00    +0.012 A 
ATOM      8  C   UNL     1      11.114   2.015   0.890  0.00  0.00    +0.001 A 
ATOM      9  C   UNL     1      11.787   0.814   0.712  0.00  0.00    +0.001 A 
ATOM     10  C   UNL     1      11.113  -0.394   0.897  0.00  0.00    +0.011 A 
ATOM     11  C   UNL     1       7.695   0.787   1.763  0.00  0.00    +0.155 A 
ENDROOT
BRANCH   1  14
ATOM     12  N   UNL     1       5.048  -1.779   2.206  0.00  0.00    -0.299 N 
ATOM     13  H   UNL     1       5.700  -2.563   2.236  0.00  0.00    +0.150 HD
ATOM     14  C   UNL     1       5.586  -0.510   2.152  0.00  0.00    +0.267 C 
ATOM     15  O   UNL     1       4.919   0.516   2.236  0.00  0.00    -0.268 OA
BRANCH  12  16
ATOM     16  CA  UNL     1       3.620  -2.002   2.418  0.00  0.00    +0.225 C 
BRANCH  16  17
ATOM     17  C   UNL     1       2.855  -2.120   1.101  0.00  0.00    +0.322 C 
ATOM     18  OXT UNL     1       1.648  -2.295   1.024  0.00  0.00    -0.249 OA
BRANCH  17  19
ATOM     19  O   UNL     1       3.650  -2.056   0.003  0.00  0.00    -0.480 OA
ATOM     20  H   UNL     1       4.576  -1.903   0.280  0.00  0.00    +0.295 HD
ENDBRANCH  17  19
ENDBRANCH  16  17
ENDBRANCH  12  16
ENDBRANCH   1  14
BRANCH  11  21
ATOM     21  O   UNL     1       7.038   1.985   1.907  0.00  0.00    -0.504 OA
ATOM     22  H   UNL     1       6.083   1.817   2.081  0.00  0.00    +0.292 HD
ENDBRANCH  11  21
TORSDOF 5
