REMARK  Name = 
REMARK  6 active torsions:
REMARK  status: ('A' for Active; 'I' for Inactive)
REMARK    1  A    between atoms: O_1  and  C_2
REMARK    2  A    between atoms: C_4  and  O_5
REMARK    3  A    between atoms: C_6  and  C_9
REMARK    4  A    between atoms: N_11  and  C_12
REMARK    5  A    between atoms: C_12  and  C_13
REMARK    6  A    between atoms: C_20  and  C_21
REMARK                            x       y       z     vdW  Elec       q    Type
REMARK                         _______ _______ _______ _____ _____    ______ ____
ROOT
ATOM      1  C   UNL     1       6.668   0.314  -0.764  0.00  0.00    +0.104 A 
ATOM      2  C   UNL     1       7.531   1.456  -0.830  0.00  0.00    +0.028 A 
ATOM      3  C   UNL     1       7.345   2.838  -0.614  0.00  0.00    +0.012 A 
ATOM      4  C   UNL     1       8.359   3.741  -0.887  0.00  0.00    +0.001 A 
ATOM      5  C   UNL     1       9.589   3.271  -1.308  0.00  0.00    +0.014 A 
ATOM      6  C   UNL     1       9.885   1.886  -1.447  0.00  0.00    +0.080 A 
ATOM      7  C   UNL     1       8.807   0.981  -1.203  0.00  0.00    +0.081 A 
ATOM      8  N   UNL     1       8.644  -0.394  -1.220  0.00  0.00    -0.259 N 
ATOM      9  N   UNL     1       7.379  -0.802  -0.974  0.00  0.00    -0.170 NA
ENDROOT
BRANCH   1  13
ATOM     10  C   UNL     1       2.465  -0.100   0.055  0.00  0.00    +0.120 A 
ATOM     11  C   UNL     1       3.358  -1.098   0.415  0.00  0.00    +0.046 A 
ATOM     12  C   UNL     1       4.723  -0.938   0.148  0.00  0.00    +0.017 A 
ATOM     13  C   UNL     1       5.218   0.219  -0.492  0.00  0.00    +0.044 A 
ATOM     14  C   UNL     1       4.278   1.197  -0.866  0.00  0.00    +0.130 A 
ATOM     15  C   UNL     1       2.912   1.050  -0.581  0.00  0.00    +0.091 A 
BRANCH  10  16
ATOM     16  O   UNL     1       1.144  -0.292   0.330  0.00  0.00    -0.507 OA
ATOM     17  H   UNL     1       0.633   0.457  -0.017  0.00  0.00    +0.292 HD
ENDBRANCH  10  16
BRANCH  14  18
ATOM     18  O   UNL     1       4.660   2.306  -1.572  0.00  0.00    -0.506 OA
ATOM     19  H   UNL     1       3.913   2.921  -1.645  0.00  0.00    +0.292 HD
ENDBRANCH  14  18
ENDBRANCH   1  13
BRANCH   6  20
ATOM     20  C   UNL     1      11.324   1.605  -1.840  0.00  0.00    +0.419 C 
ATOM     21  F   UNL     1      12.199   2.109  -0.920  0.00  0.00    -0.166 F 
ATOM     22  F   UNL     1      11.659   2.202  -3.020  0.00  0.00    -0.166 F 
ATOM     23  F   UNL     1      11.666   0.305  -1.984  0.00  0.00    -0.166 F 
ENDBRANCH   6  20
BRANCH   8  24
ATOM     24  C   UNL     1       9.614  -1.471  -1.406  0.00  0.00    +0.171 C 
BRANCH  24  25
ATOM     25  C   UNL     1       9.600  -2.022  -2.806  0.00  0.00    -0.012 C 
ATOM     26  C   UNL     1      10.669  -2.200  -3.593  0.00  0.00    +0.006 C 
ENDBRANCH  24  25
ENDBRANCH   8  24
TORSDOF 6
