REMARK  Name = 
REMARK  6 active torsions:
REMARK  status: ('A' for Active; 'I' for Inactive)
REMARK    1  A    between atoms: C_2  and  C_3
REMARK    2  A    between atoms: C_2  and  O_10
REMARK    3  A    between atoms: C_2  and  C_18
REMARK    4  A    between atoms: C_3  and  C_4
REMARK    5  A    between atoms: O_10  and  C_11
REMARK    6  A    between atoms: C_18  and  O_19
REMARK                            x       y       z     vdW  Elec       q    Type
REMARK                         _______ _______ _______ _____ _____    ______ ____
ROOT
ATOM      1  C   UNL     1       2.021  -0.072   0.028  0.00  0.00    +0.285 C 
ENDROOT
BRANCH   1   2
ATOM      2  C   UNL     1       2.592  -1.186  -0.857  0.00  0.00    +0.346 C 
ATOM      3  O   UNL     1       2.022  -1.670  -1.822  0.00  0.00    -0.247 OA
BRANCH   2   4
ATOM      4  O   UNL     1       3.830  -1.598  -0.476  0.00  0.00    -0.478 OA
ATOM      5  H   UNL     1       4.078  -1.173   0.372  0.00  0.00    +0.295 HD
ENDBRANCH   2   4
ENDBRANCH   1   2
BRANCH   1   6
ATOM      6  O   UNL     1       2.616  -0.340   1.323  0.00  0.00    -0.477 OA
BRANCH   6   7
ATOM      7  C   UNL     1       1.863  -0.066   2.433  0.00  0.00    +0.122 A 
ATOM      8  C   UNL     1       1.027   1.038   2.570  0.00  0.00    +0.047 A 
ATOM      9  C   UNL     1       0.395   1.292   3.791  0.00  0.00    +0.023 A 
ATOM     10  C   UNL     1       0.579   0.426   4.866  0.00  0.00    +0.041 A 
ATOM     11 CL   UNL     1      -0.195   0.750   6.366  0.00  0.00    -0.084 Cl
ATOM     12  C   UNL     1       1.397  -0.692   4.729  0.00  0.00    +0.023 A 
ATOM     13  C   UNL     1       2.049  -0.931   3.515  0.00  0.00    +0.047 A 
ENDBRANCH   6   7
ENDBRANCH   1   6
BRANCH   1  14
ATOM     14  C   UNL     1       2.497   1.296  -0.481  0.00  0.00    +0.091 C 
BRANCH  14  15
ATOM     15  C   UNL     1       1.939   1.876  -1.761  0.00  0.00    -0.043 A 
ATOM     16  C   UNL     1       2.402   3.149  -2.144  0.00  0.00    +0.004 A 
ATOM     17  C   UNL     1       2.004   3.732  -3.347  0.00  0.00    +0.000 A 
ATOM     18  C   UNL     1       1.132   3.054  -4.191  0.00  0.00    +0.000 A 
ATOM     19  C   UNL     1       0.639   1.807  -3.815  0.00  0.00    +0.000 A 
ATOM     20  C   UNL     1       1.028   1.227  -2.602  0.00  0.00    +0.004 A 
ENDBRANCH  14  15
ENDBRANCH   1  14
TORSDOF 6
