REMARK  Name = 
REMARK  8 active torsions:
REMARK  status: ('A' for Active; 'I' for Inactive)
REMARK    1  A    between atoms: C_2  and  C_3
REMARK    2  A    between atoms: C_2  and  N_11
REMARK    3  A    between atoms: C_2  and  B_15
REMARK    4  A    between atoms: C_3  and  C_4
REMARK    5  A    between atoms: C_12  and  C_13
REMARK    6  A    between atoms: B_15  and  O_16
REMARK    7  A    between atoms: B_15  and  O_17
REMARK    8  A    between atoms: B_15  and  O_18
REMARK                            x       y       z     vdW  Elec       q    Type
REMARK                         _______ _______ _______ _____ _____    ______ ____
ROOT
ATOM      1  C   UNL     1       2.124   0.013  -0.095  0.00  0.00    +0.000 C 
ENDROOT
BRANCH   1   2
ATOM      2  N   UNL     1       2.439   0.223  -1.504  0.00  0.00    +0.000 N 
ATOM      3  H   UNL     1       2.089   1.081  -1.957  0.00  0.00    +0.000 HD
ATOM      4  C   UNL     1       3.171  -0.658  -2.247  0.00  0.00    +0.000 C 
ATOM      5  O   UNL     1       3.605  -1.687  -1.750  0.00  0.00    +0.000 OA
ATOM      6  C   UNL     1       3.464  -0.383  -3.693  0.00  0.00    +0.000 C 
ENDBRANCH   1   2
BRANCH   1   7
ATOM      7  C   UNL     1       0.593  -0.036   0.108  0.00  0.00    +0.000 C 
BRANCH   7   8
ATOM      8  C   UNL     1      -0.095  -1.124  -0.685  0.00  0.00    +0.000 A 
ATOM      9  C   UNL     1      -1.083  -0.786  -1.627  0.00  0.00    +0.000 A 
ATOM     10  C   UNL     1      -1.754  -1.784  -2.341  0.00  0.00    +0.000 A 
ATOM     11  C   UNL     1      -1.445  -3.129  -2.125  0.00  0.00    +0.000 A 
ATOM     12 CL   UNL     1      -2.298  -4.377  -3.016  0.00  0.00    +0.000 Cl
ATOM     13  C   UNL     1      -0.461  -3.477  -1.194  0.00  0.00    +0.000 A 
ATOM     14  C   UNL     1       0.212  -2.480  -0.475  0.00  0.00    +0.000 A 
ENDBRANCH   7   8
ENDBRANCH   1   7
BRANCH   1  15
ATOM     15  B   UNL     1       2.786   1.198   0.821  0.00  0.00    +0.000 B 
BRANCH  15  16
ATOM     16  O   UNL     1       2.481   0.937   2.244  0.00  0.00    +0.000 OA
ATOM     17  H   UNL     1       3.033   0.161   2.517  0.00  0.00    +0.000 HD
ENDBRANCH  15  16
BRANCH  15  18
ATOM     18  O   UNL     1       2.206   2.517   0.471  0.00  0.00    +0.000 OA
ATOM     19  H   UNL     1       2.618   2.819  -0.378  0.00  0.00    +0.000 HD
ENDBRANCH  15  18
BRANCH  15  20
ATOM     20  O   UNL     1       4.261   1.222   0.655  0.00  0.00    +0.000 OA
ATOM     21  H   UNL     1       4.458   1.558  -0.256  0.00  0.00    +0.000 HD
ENDBRANCH  15  20
ENDBRANCH   1  15
TORSDOF 7
