REMARK  Name = 
REMARK  9 active torsions:
REMARK  status: ('A' for Active; 'I' for Inactive)
REMARK    1  A    between atoms: C_1  and  N_2
REMARK    2  A    between atoms: N_5  and  C_6
REMARK    3  A    between atoms: C_6  and  C_7
REMARK    4  A    between atoms: C_10  and  N_11
REMARK    5  A    between atoms: C_12  and  C_14
REMARK    6  A    between atoms: C_16  and  C_17
REMARK    7  A    between atoms: C_18  and  C_19
REMARK    8  A    between atoms: C_28  and  C_29
REMARK    9  A    between atoms: C_33  and  C_34
REMARK                            x       y       z     vdW  Elec       q    Type
REMARK                         _______ _______ _______ _____ _____    ______ ____
ROOT
ATOM      1  N   UNL     1       5.543   2.891  -7.046  0.00  0.00    -0.281 N 
ATOM      2  H   UNL     1       5.625   2.464  -7.958  0.00  0.00    +0.155 HD
ATOM      3  C   UNL     1       5.349   4.264  -6.990  0.00  0.00    +0.248 C 
ATOM      4  O   UNL     1       5.112   4.931  -5.990  0.00  0.00    -0.270 OA
ENDROOT
BRANCH   3   5
ATOM      5  C   UNL     1       5.382   4.989  -8.286  0.00  0.00    +0.038 A 
ATOM      6  C   UNL     1       6.200   4.592  -9.344  0.00  0.00    +0.013 A 
ATOM      7  C   UNL     1       6.202   5.333 -10.526  0.00  0.00    +0.005 A 
ATOM      8  C   UNL     1       5.392   6.476 -10.669  0.00  0.00    -0.035 A 
ATOM      9  C   UNL     1       5.452   7.216 -11.978  0.00  0.00    +0.045 C 
ATOM     10  C   UNL     1       4.585   6.880  -9.593  0.00  0.00    +0.029 A 
ATOM     11  C   UNL     1       4.586   6.138  -8.410  0.00  0.00    +0.030 A 
BRANCH  10  12
ATOM     12  C   UNL     1       3.732   8.034  -9.669  0.00  0.00    -0.059 C 
ATOM     13  C   UNL     1       2.998   8.975  -9.777  0.00  0.00    -0.040 C 
BRANCH  13  14
ATOM     14  C   UNL     1       2.096  10.048 -10.018  0.00  0.00    +0.136 A 
ATOM     15  N   UNL     1       1.761  11.079  -9.170  0.00  0.00    -0.205 N 
ATOM     16  C   UNL     1       0.845  11.869  -9.854  0.00  0.00    +0.155 A 
ATOM     17  C   UNL     1       0.338  13.007  -9.187  0.00  0.00    +0.050 A 
ATOM     18  C   UNL     1       0.754  13.277  -7.944  0.00  0.00    +0.025 A 
ATOM     19  C   UNL     1       1.736  12.343  -7.342  0.00  0.00    +0.133 A 
ATOM     20  N   UNL     1       0.595  11.403 -11.059  0.00  0.00    -0.233 NA
ATOM     21  N   UNL     1       2.236  11.285  -7.900  0.00  0.00    -0.172 NA
ATOM     22  C   UNL     1       1.366  10.274 -11.164  0.00  0.00    +0.150 A 
ENDBRANCH  13  14
ENDBRANCH  10  12
ENDBRANCH   3   5
BRANCH   1  26
ATOM     23  C   UNL     1       4.998   0.135  -3.878  0.00  0.00    -0.022 A 
ATOM     24  C   UNL     1       5.285  -0.330  -5.176  0.00  0.00    +0.061 A 
ATOM     25  C   UNL     1       5.514   0.625  -6.199  0.00  0.00    +0.036 A 
ATOM     26  C   UNL     1       5.447   2.003  -5.951  0.00  0.00    +0.034 A 
ATOM     27  C   UNL     1       5.243   2.433  -4.645  0.00  0.00    +0.023 A 
ATOM     28  C   UNL     1       5.020   1.516  -3.626  0.00  0.00    +0.007 A 
BRANCH  24  29
ATOM     29  C   UNL     1       5.332  -1.793  -5.571  0.00  0.00    +0.418 C 
ATOM     30  F   UNL     1       6.565  -2.163  -6.023  0.00  0.00    -0.166 F 
ATOM     31  F   UNL     1       4.481  -2.047  -6.611  0.00  0.00    -0.166 F 
ATOM     32  F   UNL     1       4.992  -2.702  -4.621  0.00  0.00    -0.166 F 
ENDBRANCH  24  29
BRANCH  23  33
ATOM     33  C   UNL     1       4.613  -0.763  -2.725  0.00  0.00    +0.120 C 
BRANCH  33  38
ATOM     34  C   UNL     1       7.044  -1.828   1.274  0.00  0.00    +0.105 C 
ATOM     35  N   UNL     1       6.035  -0.958   0.672  0.00  0.00    -0.303 NA
ATOM     36  C   UNL     1       4.896  -1.752   0.166  0.00  0.00    +0.099 C 
ATOM     37  C   UNL     1       5.169  -2.501  -1.164  0.00  0.00    +0.100 C 
ATOM     38  N   UNL     1       5.691  -1.638  -2.250  0.00  0.00    -0.296 NA
ATOM     39  C   UNL     1       6.864  -0.904  -1.738  0.00  0.00    +0.100 C 
ATOM     40  C   UNL     1       6.618  -0.143  -0.414  0.00  0.00    +0.099 C 
ENDBRANCH  33  38
ENDBRANCH  23  33
ENDBRANCH   1  26
TORSDOF 7
