REMARK  Name = 
REMARK  3 active torsions:
REMARK  status: ('A' for Active; 'I' for Inactive)
REMARK    1  A    between atoms: C_2  and  C_16
REMARK    2  A    between atoms: N_7  and  C_8
REMARK    3  A    between atoms: C_14  and  O_15
REMARK                            x       y       z     vdW  Elec       q    Type
REMARK                         _______ _______ _______ _____ _____    ______ ____
ROOT
ATOM      1  C   UNL     1       2.051  -0.094   0.080  0.00  0.00    +0.170 C 
ATOM      2  N   UNL     1       2.599  -1.249   0.782  0.00  0.00    -0.251 N 
ATOM      3  C   UNL     1       3.763  -0.973   1.523  0.00  0.00    +0.231 C 
ATOM      4  O   UNL     1       4.463  -1.774   2.135  0.00  0.00    -0.274 OA
ATOM      5  C   UNL     1       4.139   0.495   1.501  0.00  0.00    +0.167 C 
ATOM      6  S   UNL     1       2.690   1.380   0.945  0.00  0.00    -0.124 S 
ENDROOT
BRANCH   1   7
ATOM      7  C   UNL     1       2.456  -0.008  -1.389  0.00  0.00    -0.016 A 
ATOM      8  C   UNL     1       1.655   0.730  -2.281  0.00  0.00    +0.021 A 
ATOM      9  C   UNL     1       2.057   0.919  -3.605  0.00  0.00    +0.018 A 
ATOM     10 BR   UNL     1       0.977   1.942  -4.773  0.00  0.00    -0.050 Br
ATOM     11  C   UNL     1       3.255   0.382  -4.067  0.00  0.00    +0.015 A 
ATOM     12  C   UNL     1       4.054  -0.360  -3.203  0.00  0.00    +0.001 A 
ATOM     13  C   UNL     1       3.658  -0.555  -1.878  0.00  0.00    +0.006 A 
ENDBRANCH   1   7
BRANCH   2  14
ATOM     14  C   UNL     1       2.052  -2.577   0.602  0.00  0.00    +0.081 A 
ATOM     15  C   UNL     1       0.722  -2.825   0.190  0.00  0.00    +0.138 A 
ATOM     16  C   UNL     1       0.226  -4.129   0.030  0.00  0.00    +0.049 A 
ATOM     17  C   UNL     1       1.048  -5.225   0.261  0.00  0.00    +0.023 A 
ATOM     18  C   UNL     1       2.360  -5.012   0.656  0.00  0.00    +0.043 A 
ATOM     19 CL   UNL     1       3.394  -6.364   0.917  0.00  0.00    -0.083 Cl
ATOM     20  C   UNL     1       2.853  -3.713   0.828  0.00  0.00    +0.047 A 
BRANCH  15  21
ATOM     21  O   UNL     1      -0.161  -1.802  -0.022  0.00  0.00    -0.505 OA
ATOM     22  H   UNL     1      -1.037  -2.165  -0.237  0.00  0.00    +0.292 HD
ENDBRANCH  15  21
ENDBRANCH   2  14
TORSDOF 3
