REMARK  Name = 
REMARK  4 active torsions:
REMARK  status: ('A' for Active; 'I' for Inactive)
REMARK    1  A    between atoms: O_1  and  C_2
REMARK    2  A    between atoms: C_3  and  O_4
REMARK    3  A    between atoms: C_12  and  O_13
REMARK    4  A    between atoms: C_16  and  O_17
REMARK                            x       y       z     vdW  Elec       q    Type
REMARK                         _______ _______ _______ _____ _____    ______ ____
ROOT
ATOM      1  C   UNL     1       2.361   0.137   0.095  0.00  0.00    +0.159 A 
ATOM      2  C   UNL     1       3.120   1.297   0.131  0.00  0.00    +0.050 A 
ATOM      3  C   UNL     1       4.508   1.208   0.113  0.00  0.00    +0.016 A 
ATOM      4  C   UNL     1       5.139  -0.048   0.091  0.00  0.00    +0.037 A 
ATOM      5  C   UNL     1       6.608  -0.101   0.098  0.00  0.00    +0.198 C 
ATOM      6  C   UNL     1       7.305  -1.394   0.082  0.00  0.00    +0.078 A 
ATOM      7  C   UNL     1       6.572  -2.585   0.080  0.00  0.00    +0.078 A 
ATOM      8  C   UNL     1       5.081  -2.534   0.124  0.00  0.00    +0.202 C 
ATOM      9  O   UNL     1       4.430  -3.558   0.272  0.00  0.00    -0.286 OA
ATOM     10  C   UNL     1       7.280  -3.804   0.067  0.00  0.00    +0.129 A 
ATOM     11  C   UNL     1       8.677  -3.833   0.068  0.00  0.00    +0.050 A 
ATOM     12  C   UNL     1       9.395  -2.643   0.075  0.00  0.00    +0.050 A 
ATOM     13  C   UNL     1       8.712  -1.432   0.078  0.00  0.00    +0.129 A 
ATOM     14  O   UNL     1       7.267   0.945   0.109  0.00  0.00    -0.286 OA
ATOM     15  C   UNL     1       4.379  -1.225   0.063  0.00  0.00    +0.078 A 
ATOM     16  C   UNL     1       2.974  -1.119   0.037  0.00  0.00    +0.170 A 
ENDROOT
BRANCH   1  17
ATOM     17  O   UNL     1       1.002   0.291   0.109  0.00  0.00    -0.503 OA
ATOM     18  H   UNL     1       0.587  -0.522  -0.218  0.00  0.00    +0.292 HD
ENDBRANCH   1  17
BRANCH  10  19
ATOM     19  O   UNL     1       6.621  -5.002   0.038  0.00  0.00    -0.506 OA
ATOM     20  H   UNL     1       7.247  -5.739   0.084  0.00  0.00    +0.292 HD
ENDBRANCH  10  19
BRANCH  13  21
ATOM     21  O   UNL     1       9.497  -0.309   0.081  0.00  0.00    -0.506 OA
ATOM     22  H   UNL     1       8.907   0.479   0.089  0.00  0.00    +0.292 HD
ENDBRANCH  13  21
BRANCH  16  23
ATOM     23  O   UNL     1       2.176  -2.223  -0.102  0.00  0.00    -0.503 OA
ATOM     24  H   UNL     1       1.431  -2.168   0.518  0.00  0.00    +0.292 HD
ENDBRANCH  16  23
TORSDOF 4
