REMARK  Name = 
REMARK  4 active torsions:
REMARK  status: ('A' for Active; 'I' for Inactive)
REMARK    1  A    between atoms: C_1  and  C_2
REMARK    2  A    between atoms: C_2  and  N_3
REMARK    3  A    between atoms: C_9  and  N_12
REMARK    4  A    between atoms: C_15  and  C_16
REMARK                            x       y       z     vdW  Elec       q    Type
REMARK                         _______ _______ _______ _____ _____    ______ ____
ROOT
ATOM      1  N   UNL     1       6.114  -4.840   3.972  0.00  0.00    -0.311 N 
ATOM      2  H   UNL     1       5.290  -5.192   4.446  0.00  0.00    +0.149 HD
ATOM      3  C   UNL     1       7.205  -5.375   4.629  0.00  0.00    +0.216 A 
ATOM      4  N   UNL     1       7.007  -5.707   5.904  0.00  0.00    -0.221 NA
ATOM      5  C   UNL     1       8.098  -6.070   6.610  0.00  0.00    +0.136 A 
ATOM      6  C   UNL     1       9.375  -6.139   6.094  0.00  0.00    +0.085 A 
ATOM      7 CL   UNL     1      10.673  -6.415   7.181  0.00  0.00    -0.080 Cl
ATOM      8  C   UNL     1       9.469  -5.874   4.742  0.00  0.00    +0.096 A 
ATOM      9  N   UNL     1       8.384  -5.490   4.016  0.00  0.00    -0.213 NA
ENDROOT
BRANCH   1  16
ATOM     10  N   UNL     1       3.166  -1.173   0.688  0.00  0.00    -0.300 N 
ATOM     11  H   UNL     1       2.598  -1.408   1.486  0.00  0.00    +0.150 HD
ATOM     12  C   UNL     1       4.514  -1.239   0.939  0.00  0.00    +0.302 C 
ATOM     13  N   UNL     1       4.907  -2.285   1.756  0.00  0.00    -0.286 N 
ATOM     14  C   UNL     1       6.289  -2.321   2.226  0.00  0.00    +0.111 C 
ATOM     15  C   UNL     1       6.934  -3.671   1.941  0.00  0.00    +0.041 C 
ATOM     16  C   UNL     1       6.113  -4.837   2.513  0.00  0.00    +0.076 C 
ATOM     17  C   UNL     1       4.667  -4.734   2.004  0.00  0.00    +0.041 C 
ATOM     18  C   UNL     1       4.053  -3.359   2.262  0.00  0.00    +0.111 C 
ATOM     19  O   UNL     1       5.301  -0.427   0.461  0.00  0.00    -0.253 OA
BRANCH  10  21
ATOM     20  C   UNL     1       1.171  -0.251  -0.397  0.00  0.00    +0.024 C 
ATOM     21  C   UNL     1       2.658  -0.101  -0.145  0.00  0.00    +0.102 C 
ENDBRANCH  10  21
ENDBRANCH   1  16
BRANCH   8  22
ATOM     22  C   UNL     1      10.708  -5.879   3.956  0.00  0.00    +0.027 A 
ATOM     23  C   UNL     1      11.889  -6.703   3.974  0.00  0.00    +0.009 A 
ATOM     24  C   UNL     1      12.764  -6.195   3.007  0.00  0.00    +0.047 A 
ATOM     25  C   UNL     1      14.052  -6.701   2.792  0.00  0.00    +0.026 A 
ATOM     26  C   UNL     1      14.470  -7.771   3.581  0.00  0.00    +0.002 A 
ATOM     27  C   UNL     1      13.614  -8.341   4.516  0.00  0.00    +0.001 A 
ATOM     28  N   UNL     1      12.112  -5.176   2.358  0.00  0.00    -0.360 N 
ATOM     29  H   UNL     1      12.489  -4.656   1.578  0.00  0.00    +0.165 HD
ATOM     30  C   UNL     1      12.321  -7.835   4.704  0.00  0.00    +0.010 A 
ATOM     31  C   UNL     1      10.884  -4.979   2.916  0.00  0.00    +0.093 A 
ENDBRANCH   8  22
TORSDOF 3
