REMARK  Name = 
REMARK  8 active torsions:
REMARK  status: ('A' for Active; 'I' for Inactive)
REMARK    1  A    between atoms: C_1  and  C_2
REMARK    2  A    between atoms: C_2  and  C_3
REMARK    3  A    between atoms: C_3  and  C_4
REMARK    4  A    between atoms: C_4  and  N_20
REMARK    5  A    between atoms: C_5  and  C_6
REMARK    6  A    between atoms: C_9  and  C_11
REMARK    7  A    between atoms: C_13  and  C_17
REMARK    8  A    between atoms: C_17  and  O_18
REMARK                            x       y       z     vdW  Elec       q    Type
REMARK                         _______ _______ _______ _____ _____    ______ ____
ROOT
ATOM      1  C   UNL     1       6.898  -0.345  -0.018  0.00  0.00    +0.135 A 
ATOM      2  O   UNL     1       7.656   0.780  -0.260  0.00  0.00    -0.455 OA
ATOM      3  C   UNL     1       8.974   0.457  -0.106  0.00  0.00    +0.136 A 
ATOM      4  C   UNL     1       9.087  -0.881   0.197  0.00  0.00    +0.050 A 
ATOM      5  C   UNL     1       7.771  -1.380   0.286  0.00  0.00    +0.050 A 
ENDROOT
BRANCH   3   6
ATOM      6  C   UNL     1       9.941   1.545  -0.188  0.00  0.00    +0.018 A 
ATOM      7  C   UNL     1       9.678   2.728  -0.892  0.00  0.00    +0.011 A 
ATOM      8  C   UNL     1      10.602   3.780  -0.891  0.00  0.00    +0.001 A 
ATOM      9  C   UNL     1      11.797   3.669  -0.178  0.00  0.00    +0.015 A 
ATOM     10  C   UNL     1      12.072   2.493   0.526  0.00  0.00    +0.060 A 
ATOM     11  C   UNL     1      11.160   1.432   0.498  0.00  0.00    +0.026 A 
BRANCH  10  12
ATOM     12  C   UNL     1      13.317   2.309   1.312  0.00  0.00    +0.337 C 
ATOM     13  O   UNL     1      13.871   1.230   1.434  0.00  0.00    -0.245 OA
BRANCH  12  14
ATOM     14  O   UNL     1      13.733   3.430   1.937  0.00  0.00    -0.477 OA
ATOM     15  H   UNL     1      13.092   4.165   1.921  0.00  0.00    +0.295 HD
ENDBRANCH  12  14
ENDBRANCH  10  12
ENDBRANCH   3   6
BRANCH   1  17
ATOM     16  C   UNL     1       4.633   0.354  -0.733  0.00  0.00    +0.254 C 
ATOM     17  C   UNL     1       5.479  -0.405  -0.022  0.00  0.00    +0.125 C 
BRANCH  16  18
ATOM     18  N   UNL     1       5.138   1.349  -1.658  0.00  0.00    +0.075 N 
ATOM     19  O   UNL     1       4.761   2.515  -1.478  0.00  0.00    +0.041 OA
ATOM     20  O   UNL     1       5.821   0.950  -2.609  0.00  0.00    -0.576 OA
ENDBRANCH  16  18
BRANCH  16  21
ATOM     21  C   UNL     1       3.132   0.255  -0.703  0.00  0.00    +0.113 C 
BRANCH  21  23
ATOM     22  C   UNL     1       2.941  -1.603  -2.453  0.00  0.00    +0.004 C 
ATOM     23  C   UNL     1       2.490  -0.215  -2.017  0.00  0.00    +0.007 C 
ENDBRANCH  21  23
ENDBRANCH  16  21
ENDBRANCH   1  17
TORSDOF 7
