REMARK  Name = 
REMARK  3 active torsions:
REMARK  status: ('A' for Active; 'I' for Inactive)
REMARK    1  A    between atoms: C_7  and  C_24
REMARK    2  A    between atoms: C_11  and  N_12
REMARK    3  A    between atoms: N_12  and  C_13
REMARK                            x       y       z     vdW  Elec       q    Type
REMARK                         _______ _______ _______ _____ _____    ______ ____
ROOT
ATOM      1  O   UNL     1       1.335   0.313  -0.078  0.00  0.00    -0.270 OA
ATOM      2  C   UNL     1       2.527   0.072  -0.081  0.00  0.00    +0.250 C 
ATOM      3  C   UNL     1       3.178  -1.274  -0.085  0.00  0.00    +0.060 C 
ATOM      4  C   UNL     1       2.624  -2.488  -0.087  0.00  0.00    +0.085 C 
ATOM      5  C   UNL     1       4.620  -1.063  -0.087  0.00  0.00    +0.010 A 
ATOM      6  C   UNL     1       4.821   0.312  -0.083  0.00  0.00    +0.042 A 
ATOM      7  C   UNL     1       6.092   0.845  -0.082  0.00  0.00    +0.024 A 
ATOM      8  C   UNL     1       7.178  -0.054  -0.083  0.00  0.00    +0.013 A 
ATOM      9  C   UNL     1       6.985  -1.456  -0.087  0.00  0.00    +0.020 A 
ATOM     10  C   UNL     1       5.678  -1.953  -0.089  0.00  0.00    +0.022 A 
ATOM     11  N   UNL     1       3.591   0.975  -0.081  0.00  0.00    -0.281 N 
ATOM     12  H   UNL     1       3.459   1.975  -0.078  0.00  0.00    +0.155 HD
ENDROOT
BRANCH   9  13
ATOM     13  C   UNL     1       8.099  -2.393  -0.088  0.00  0.00    +0.155 A 
ATOM     14  O   UNL     1       7.779  -3.731  -0.092  0.00  0.00    -0.442 OA
ATOM     15  C   UNL     1       8.978  -4.368  -0.092  0.00  0.00    +0.308 A 
ATOM     16  N   UNL     1      10.025  -3.577  -0.088  0.00  0.00    -0.224 NA
ATOM     17  C   UNL     1       9.475  -2.317  -0.085  0.00  0.00    +0.160 A 
ENDBRANCH   9  13
BRANCH   4  18
ATOM     18  N   UNL     1       1.319  -2.890  -0.083  0.00  0.00    -0.320 N 
ATOM     19  H   UNL     1       0.628  -2.141  -0.074  0.00  0.00    +0.152 HD
BRANCH  18  20
ATOM     20  C   UNL     1       0.842  -4.214  -0.084  0.00  0.00    +0.031 A 
ATOM     21  C   UNL     1       1.682  -5.345  -0.090  0.00  0.00    +0.023 A 
ATOM     22  C   UNL     1       1.173  -6.646  -0.089  0.00  0.00    +0.007 A 
ATOM     23  C   UNL     1      -0.202  -6.835  -0.085  0.00  0.00    -0.022 A 
ATOM     24  C   UNL     1      -0.843  -8.183  -0.078  0.00  0.00    +0.201 C 
ATOM     25  S   UNL     1      -2.591  -7.807  -0.103  0.00  0.00    -0.023 S 
ATOM     26  C   UNL     1      -2.521  -6.019  -0.089  0.00  0.00    +0.201 C 
ATOM     27  O   UNL     1      -3.136  -8.236  -1.378  0.00  0.00    -0.174 OA
ATOM     28  O   UNL     1      -3.176  -8.255   1.148  0.00  0.00    -0.174 OA
ATOM     29  C   UNL     1      -1.056  -5.728  -0.084  0.00  0.00    -0.020 A 
ATOM     30  C   UNL     1      -0.541  -4.430  -0.082  0.00  0.00    +0.028 A 
ENDBRANCH  18  20
ENDBRANCH   4  18
TORSDOF 3
