REMARK  Name = 
REMARK  9 active torsions:
REMARK  status: ('A' for Active; 'I' for Inactive)
REMARK    1  A    between atoms: C_1  and  C_2
REMARK    2  A    between atoms: C_2  and  C_3
REMARK    3  A    between atoms: C_2  and  C_4
REMARK    4  A    between atoms: C_4  and  C_5
REMARK    5  A    between atoms: C_8  and  C_11
REMARK    6  A    between atoms: C_11  and  C_12
REMARK    7  A    between atoms: C_11  and  C_13
REMARK    8  A    between atoms: C_13  and  O_14
REMARK    9  A    between atoms: N_15  and  O_16
REMARK                            x       y       z     vdW  Elec       q    Type
REMARK                         _______ _______ _______ _____ _____    ______ ____
ROOT
ATOM      1  C   UNL     1       4.562   0.267   1.287  0.00  0.00    -0.047 A 
ATOM      2  C   UNL     1       5.253   1.407   1.717  0.00  0.00    +0.004 A 
ATOM      3  C   UNL     1       6.649   1.396   1.831  0.00  0.00    +0.004 A 
ATOM      4  C   UNL     1       7.379   0.233   1.535  0.00  0.00    -0.036 A 
ATOM      5  C   UNL     1       6.685  -0.889   1.062  0.00  0.00    +0.004 A 
ATOM      6  C   UNL     1       5.296  -0.868   0.926  0.00  0.00    +0.004 A 
ENDROOT
BRANCH   4   7
ATOM      7  C   UNL     1       8.886   0.138   1.742  0.00  0.00    +0.104 C 
ATOM      8  C   UNL     1       9.631   1.210   0.943  0.00  0.00    +0.022 C 
BRANCH   7   9
ATOM      9  C   UNL     1       9.360   0.110   3.192  0.00  0.00    +0.231 C 
ATOM     10  N   UNL     1      10.620  -0.057   3.461  0.00  0.00    -0.053 NA
BRANCH  10  11
ATOM     11  O   UNL     1      10.845  -0.094   4.845  0.00  0.00    -0.407 OA
ATOM     12  H   UNL     1      11.794  -0.307   4.900  0.00  0.00    +0.328 HD
ENDBRANCH  10  11
BRANCH   9  13
ATOM     13  O   UNL     1       8.444   0.215   4.174  0.00  0.00    -0.493 OA
ATOM     14  H   UNL     1       7.529   0.232   3.858  0.00  0.00    +0.294 HD
ENDBRANCH   9  13
ENDBRANCH   7   9
ENDBRANCH   4   7
BRANCH   1  15
ATOM     15  C   UNL     1       3.049   0.243   1.256  0.00  0.00    +0.038 C 
BRANCH  15  17
ATOM     16  C   UNL     1       2.813  -0.633   3.642  0.00  0.00    +0.007 C 
ATOM     17  C   UNL     1       2.435  -0.840   2.172  0.00  0.00    -0.013 C 
ATOM     18  C   UNL     1       0.912  -0.862   2.030  0.00  0.00    +0.007 C 
ENDBRANCH  15  17
ENDBRANCH   1  15
TORSDOF 6
