REMARK  Name = 
REMARK  8 active torsions:
REMARK  status: ('A' for Active; 'I' for Inactive)
REMARK    1  A    between atoms: C_2  and  N_3
REMARK    2  A    between atoms: C_2  and  C_4
REMARK    3  A    between atoms: C_2  and  C_22
REMARK    4  A    between atoms: C_4  and  O_5
REMARK    5  A    between atoms: O_5  and  C_6
REMARK    6  A    between atoms: C_8  and  C_12
REMARK    7  A    between atoms: C_18  and  C_19
REMARK    8  A    between atoms: C_22  and  C_23
REMARK                            x       y       z     vdW  Elec       q    Type
REMARK                         _______ _______ _______ _____ _____    ______ ____
ROOT
ATOM      1  C   UNL     1       2.211   3.429   1.509  0.00  0.00    +0.139 A 
ATOM      2  C   UNL     1       2.747   3.363   2.788  0.00  0.00    +0.156 A 
ATOM      3  N   UNL     1       2.971   4.444   3.567  0.00  0.00    -0.259 NA
ATOM      4  C   UNL     1       2.655   5.653   3.036  0.00  0.00    +0.119 A 
ATOM      5  C   UNL     1       2.143   5.862   1.751  0.00  0.00    +0.004 A 
ATOM      6  C   UNL     1       1.943   4.695   0.992  0.00  0.00    +0.057 A 
ENDROOT
BRANCH   5   7
ATOM      7  C   UNL     1       1.826   7.208   1.220  0.00  0.00    -0.016 A 
ATOM      8  C   UNL     1       0.793   7.383   0.272  0.00  0.00    +0.020 A 
ATOM      9  C   UNL     1       0.526   8.654  -0.275  0.00  0.00    +0.023 A 
ATOM     10  C   UNL     1       1.264   9.740   0.163  0.00  0.00    +0.066 A 
ATOM     11  N   UNL     1       0.774  10.812  -0.538  0.00  0.00    -0.277 N 
ATOM     12  H   UNL     1       1.072  11.777  -0.480  0.00  0.00    +0.189 HD
ATOM     13  N   UNL     1      -0.209  10.502  -1.402  0.00  0.00    -0.178 NA
ATOM     14  C   UNL     1       2.275   9.635   1.116  0.00  0.00    +0.028 A 
ATOM     15  C   UNL     1      -0.364   9.179  -1.248  0.00  0.00    +0.067 A 
ATOM     16  C   UNL     1      -1.355   8.436  -2.062  0.00  0.00    +0.068 C 
ATOM     17  C   UNL     1       2.543   8.352   1.621  0.00  0.00    +0.010 A 
ENDBRANCH   5   7
BRANCH   1  18
ATOM     18  O   UNL     1       1.932   2.376   0.688  0.00  0.00    -0.489 OA
BRANCH  18  19
ATOM     19  C   UNL     1       1.642   1.138   1.356  0.00  0.00    +0.247 C 
BRANCH  19  20
ATOM     20  C   UNL     1       1.193   0.094   0.311  0.00  0.00    +0.093 C 
BRANCH  20  21
ATOM     21  N   UNL     1       2.279  -0.184  -0.648  0.00  0.00    -0.324 NA
ATOM     22  H   UNL     1       1.925  -0.733  -1.427  0.00  0.00    +0.119 HD
ATOM     23  H   UNL     1       2.608   0.704  -1.031  0.00  0.00    +0.119 HD
ENDBRANCH  20  21
BRANCH  20  24
ATOM     24  C   UNL     1       0.654  -1.196   0.973  0.00  0.00    +0.057 C 
BRANCH  24  25
ATOM     25  C   UNL     1       1.651  -1.966   1.810  0.00  0.00    -0.046 A 
ATOM     26  C   UNL     1       2.461  -2.946   1.220  0.00  0.00    +0.004 A 
ATOM     27  C   UNL     1       3.417  -3.627   1.975  0.00  0.00    +0.000 A 
ATOM     28  C   UNL     1       3.576  -3.334   3.328  0.00  0.00    +0.000 A 
ATOM     29  C   UNL     1       2.769  -2.370   3.929  0.00  0.00    +0.000 A 
ATOM     30  C   UNL     1       1.806  -1.694   3.177  0.00  0.00    +0.004 A 
ENDBRANCH  24  25
ENDBRANCH  20  24
ENDBRANCH  19  20
ENDBRANCH  18  19
ENDBRANCH   1  18
TORSDOF 7
