REMARK  Name = 
REMARK  2 active torsions:
REMARK  status: ('A' for Active; 'I' for Inactive)
REMARK    1  A    between atoms: C_5  and  C_7
REMARK    2  A    between atoms: C_7  and  C_9
REMARK                            x       y       z     vdW  Elec       q    Type
REMARK                         _______ _______ _______ _____ _____    ______ ____
ROOT
ATOM      1  C   UNL     1       5.540  -1.375   0.189  0.00  0.00    +0.230 C 
ATOM      2  O   UNL     1       5.366  -2.508   0.634  0.00  0.00    -0.283 OA
ENDROOT
BRANCH   1   8
ATOM      3  N   UNL     1       3.347   2.365  -1.651  0.00  0.00    -0.313 N 
ATOM      4  H   UNL     1       4.107   2.997  -1.438  0.00  0.00    +0.147 HD
ATOM      5  H   UNL     1       2.429   2.796  -1.647  0.00  0.00    +0.147 HD
ATOM      6  C   UNL     1       3.414   1.133  -1.147  0.00  0.00    +0.285 A 
ATOM      7  O   UNL     1       4.654   0.693  -0.814  0.00  0.00    -0.421 OA
ATOM      8  C   UNL     1       4.448  -0.556  -0.283  0.00  0.00    +0.197 A 
ATOM      9  C   UNL     1       3.092  -0.792  -0.352  0.00  0.00    +0.166 A 
ATOM     10  N   UNL     1       2.445   0.294  -0.893  0.00  0.00    -0.203 NA
ENDBRANCH   1   8
BRANCH   1  11
ATOM     11  C   UNL     1       6.949  -0.881   0.094  0.00  0.00    +0.026 A 
ATOM     12  C   UNL     1       7.965  -1.819  -0.145  0.00  0.00    +0.012 A 
ATOM     13  C   UNL     1       9.288  -1.401  -0.316  0.00  0.00    +0.002 A 
ATOM     14  C   UNL     1       9.603  -0.044  -0.249  0.00  0.00    +0.015 A 
ATOM     15  C   UNL     1       8.602   0.884   0.026  0.00  0.00    +0.019 A 
ATOM     16 BR   UNL     1       9.023   2.725   0.106  0.00  0.00    -0.050 Br
ATOM     17  C   UNL     1       7.285   0.472   0.224  0.00  0.00    +0.027 A 
ENDBRANCH   1  11
TORSDOF 2
