REMARK  Name = 
REMARK  2 active torsions:
REMARK  status: ('A' for Active; 'I' for Inactive)
REMARK    1  A    between atoms: C_2  and  C_4
REMARK    2  A    between atoms: C_4  and  C_5
REMARK                            x       y       z     vdW  Elec       q    Type
REMARK                         _______ _______ _______ _____ _____    ______ ____
ROOT
ATOM      1  C   UNL     1       4.659  -0.750   0.793  0.00  0.00    -0.014 A 
ATOM      2  C   UNL     1       5.625  -1.801   0.661  0.00  0.00    +0.003 A 
ATOM      3  C   UNL     1       6.878  -1.203   0.521  0.00  0.00    +0.047 A 
ATOM      4  C   UNL     1       8.057  -1.942   0.373  0.00  0.00    +0.026 A 
ATOM      5  C   UNL     1       7.954  -3.336   0.376  0.00  0.00    +0.002 A 
ATOM      6  C   UNL     1       6.719  -3.963   0.520  0.00  0.00    +0.001 A 
ATOM      7  N   UNL     1       6.683   0.158   0.557  0.00  0.00    -0.360 N 
ATOM      8  H   UNL     1       7.420   0.844   0.472  0.00  0.00    +0.165 HD
ATOM      9  C   UNL     1       5.548  -3.209   0.660  0.00  0.00    +0.010 A 
ATOM     10  C   UNL     1       5.356   0.442   0.728  0.00  0.00    +0.087 A 
ENDROOT
BRANCH   1  11
ATOM     11  C   UNL     1       3.179  -0.908   0.964  0.00  0.00    +0.132 C 
BRANCH  11  15
ATOM     12  N   UNL     1       3.514  -1.669   3.289  0.00  0.00    -0.329 N 
ATOM     13  H   UNL     1       4.486  -1.860   3.084  0.00  0.00    +0.145 HD
ATOM     14  H   UNL     1       3.232  -1.659   4.260  0.00  0.00    +0.145 HD
ATOM     15  C   UNL     1       2.724  -0.985   2.412  0.00  0.00    +0.215 C 
ATOM     16  O   UNL     1       1.642  -0.537   2.789  0.00  0.00    -0.276 OA
ENDBRANCH  11  15
ENDBRANCH   1  11
TORSDOF 2
