REMARK  Name = 
REMARK  5 active torsions:
REMARK  status: ('A' for Active; 'I' for Inactive)
REMARK    1  A    between atoms: C_5  and  C_7
REMARK    2  A    between atoms: C_8  and  S_9
REMARK    3  A    between atoms: S_9  and  N_12
REMARK    4  A    between atoms: N_15  and  C_16
REMARK    5  A    between atoms: C_16  and  C_17
REMARK                            x       y       z     vdW  Elec       q    Type
REMARK                         _______ _______ _______ _____ _____    ______ ____
ROOT
ATOM      1  N   UNL     1       6.963  -5.720  -0.135  0.00  0.00    -0.167 NA
ATOM      2  C   UNL     1       6.499  -6.481   1.047  0.00  0.00    +0.205 C 
ATOM      3  C   UNL     1       6.328  -7.985   0.827  0.00  0.00    +0.232 C 
ATOM      4  O   UNL     1       6.324  -8.764   1.781  0.00  0.00    -0.274 OA
ATOM      5  N   UNL     1       6.016  -8.388  -0.468  0.00  0.00    -0.293 N 
ATOM      6  C   UNL     1       6.433  -7.570  -1.607  0.00  0.00    +0.125 C 
ATOM      7  C   UNL     1       6.223  -6.075  -1.362  0.00  0.00    +0.129 C 
ENDROOT
BRANCH   1   8
ATOM      8  S   UNL     1       7.397  -4.108   0.111  0.00  0.00    +0.055 S 
ATOM      9  O   UNL     1       8.315  -4.103   1.231  0.00  0.00    -0.153 OA
ATOM     10  O   UNL     1       7.817  -3.583  -1.172  0.00  0.00    -0.153 OA
BRANCH   8  12
ATOM     11  C   UNL     1       5.091  -2.799  -0.261  0.00  0.00    +0.035 C 
ATOM     12  C   UNL     1       5.969  -3.277   0.633  0.00  0.00    +0.154 C 
BRANCH  11  16
ATOM     13 CL   UNL     1       0.405   0.032  -0.451  0.00  0.00    -0.076 Cl
ATOM     14  C   UNL     1       1.823  -0.792   0.059  0.00  0.00    +0.079 A 
ATOM     15  S   UNL     1       2.842  -1.504  -1.083  0.00  0.00    -0.077 S 
ATOM     16  C   UNL     1       3.933  -2.071   0.142  0.00  0.00    +0.015 A 
ATOM     17  C   UNL     1       3.475  -1.691   1.391  0.00  0.00    +0.017 A 
ATOM     18  C   UNL     1       2.253  -0.951   1.348  0.00  0.00    +0.028 A 
ENDBRANCH  11  16
ENDBRANCH   8  12
ENDBRANCH   1   8
BRANCH   5  19
ATOM     19  C   UNL     1       5.565  -9.747  -0.723  0.00  0.00    +0.161 C 
BRANCH  19  20
ATOM     20  C   UNL     1       4.097  -9.680  -0.997  0.00  0.00    +0.035 A 
ATOM     21  N   UNL     1       3.164  -9.776   0.012  0.00  0.00    -0.357 N 
ATOM     22  H   UNL     1       3.382  -9.923   0.990  0.00  0.00    +0.166 HD
ATOM     23  C   UNL     1       1.895  -9.591  -0.491  0.00  0.00    +0.050 A 
ATOM     24  C   UNL     1       0.656  -9.553   0.148  0.00  0.00    +0.046 A 
ATOM     25  C   UNL     1      -0.430  -9.322  -0.687  0.00  0.00    +0.113 A 
ATOM     26  N   UNL     1      -0.358  -9.153  -2.025  0.00  0.00    -0.263 NA
ATOM     27  C   UNL     1       0.856  -9.210  -2.626  0.00  0.00    +0.120 A 
ATOM     28  C   UNL     1       2.016  -9.423  -1.870  0.00  0.00    +0.018 A 
ATOM     29  C   UNL     1       3.401  -9.508  -2.179  0.00  0.00    +0.034 A 
ENDBRANCH  19  20
ENDBRANCH   5  19
TORSDOF 5
