REMARK  Name = 
REMARK  8 active torsions:
REMARK  status: ('A' for Active; 'I' for Inactive)
REMARK    1  A    between atoms: C_2  and  S_3
REMARK    2  A    between atoms: C_5  and  N_16
REMARK    3  A    between atoms: C_8  and  C_10
REMARK    4  A    between atoms: C_10  and  O_11
REMARK    5  A    between atoms: O_11  and  P_12
REMARK    6  A    between atoms: P_12  and  O_13
REMARK    7  A    between atoms: P_12  and  O_14
REMARK    8  A    between atoms: C_18  and  C_19
REMARK                            x       y       z     vdW  Elec       q    Type
REMARK                         _______ _______ _______ _____ _____    ______ ____
ROOT
ATOM      1  C   UNL     1       1.996   0.046   0.059  0.00  0.00    +0.079 C 
ATOM      2  C   UNL     1       2.618  -1.179   0.722  0.00  0.00    +0.160 C 
ATOM      3  O   UNL     1       3.801  -0.717   1.424  0.00  0.00    -0.350 OA
ATOM      4  C   UNL     1       3.974   0.690   1.152  0.00  0.00    +0.225 C 
ATOM      5  C   UNL     1       2.543   1.161   0.917  0.00  0.00    +0.071 C 
ENDROOT
BRANCH   4   6
ATOM      6  N   UNL     1       4.968   0.832   0.067  0.00  0.00    -0.274 N 
ATOM      7  C   UNL     1       4.982   1.968  -0.734  0.00  0.00    +0.331 A 
ATOM      8  O   UNL     1       4.159   2.879  -0.681  0.00  0.00    -0.246 OA
ATOM      9  N   UNL     1       6.001   2.055  -1.640  0.00  0.00    -0.275 N 
ATOM     10  H   UNL     1       6.025   2.891  -2.203  0.00  0.00    +0.173 HD
ATOM     11  C   UNL     1       7.107   1.259  -1.687  0.00  0.00    +0.257 A 
ATOM     12  O   UNL     1       8.067   1.518  -2.402  0.00  0.00    -0.267 OA
ATOM     13  C   UNL     1       7.079   0.077  -0.803  0.00  0.00    +0.030 A 
ATOM     14  C   UNL     1       8.232  -0.867  -0.882  0.00  0.00    +0.051 C 
ATOM     15  C   UNL     1       6.034  -0.061   0.026  0.00  0.00    +0.101 A 
ENDBRANCH   4   6
BRANCH   1  16
ATOM     16  S   UNL     1       0.180   0.010   0.014  0.00  0.00    -0.172 S 
ATOM     17  H   UNL     1      -0.020  -0.083   1.338  0.00  0.00    +0.102 HD
ENDBRANCH   1  16
BRANCH   2  18
ATOM     18  C   UNL     1       3.004  -2.258  -0.288  0.00  0.00    +0.205 C 
BRANCH  18  19
ATOM     19  O   UNL     1       3.476  -3.386   0.429  0.00  0.00    -0.284 OA
BRANCH  19  20
ATOM     20  P   UNL     1       4.055  -4.612  -0.410  0.00  0.00    +0.472 P 
ATOM     21  O   UNL     1       3.258  -5.032  -1.595  0.00  0.00    -0.228 OA
BRANCH  20  22
ATOM     22  O   UNL     1       4.248  -5.738   0.700  0.00  0.00    -0.303 OA
ATOM     23  H   UNL     1       3.395  -6.025   1.067  0.00  0.00    +0.222 HD
ENDBRANCH  20  22
BRANCH  20  24
ATOM     24  O   UNL     1       5.548  -4.162  -0.744  0.00  0.00    -0.303 OA
ATOM     25  H   UNL     1       5.621  -3.791  -1.640  0.00  0.00    +0.222 HD
ENDBRANCH  20  24
ENDBRANCH  19  20
ENDBRANCH  18  19
ENDBRANCH   2  18
TORSDOF 7
