REMARK  Name = 
REMARK  7 active torsions:
REMARK  status: ('A' for Active; 'I' for Inactive)
REMARK    1  A    between atoms: C_18  and  C_19
REMARK    2  A    between atoms: C_26  and  C_27
REMARK    3  A    between atoms: C_28  and  C_34
REMARK    4  A    between atoms: C_30  and  C_31
REMARK    5  A    between atoms: C_30  and  C_32
REMARK    6  A    between atoms: C_34  and  C_36
REMARK    7  A    between atoms: C_36  and  O_37
REMARK                            x       y       z     vdW  Elec       q    Type
REMARK                         _______ _______ _______ _____ _____    ______ ____
ROOT
ATOM      1  C   UNL     1       0.000   0.000   0.000  0.00  0.00    +0.162 C 
ATOM      2  O   UNL     1       0.000   0.000   0.000  0.00  0.00    -0.343 OA
ATOM      3  C   UNL     1       0.000   0.000   0.000  0.00  0.00    +0.166 C 
ATOM      4  C   UNL     1       0.000   0.000   0.000  0.00  0.00    +0.074 C 
ATOM      5  C   UNL     1       0.000   0.000   0.000  0.00  0.00    +0.074 C 
ATOM      6  O   UNL     1       0.000   0.000   0.000  0.00  0.00    -0.332 OA
ATOM      7  C   UNL     1       0.000   0.000   0.000  0.00  0.00    +0.164 C 
ATOM      8  C   UNL     1       0.000   0.000   0.000  0.00  0.00    +0.011 C 
ATOM      9  C   UNL     1       0.000   0.000   0.000  0.00  0.00    +0.015 C 
ATOM     10  C   UNL     1       0.000   0.000   0.000  0.00  0.00    +0.006 C 
ATOM     11  C   UNL     1       0.000   0.000   0.000  0.00  0.00    +0.019 C 
ATOM     12  C   UNL     1       0.000   0.000   0.000  0.00  0.00    +0.077 C 
ATOM     13  C   UNL     1       0.000   0.000   0.000  0.00  0.00    +0.103 C 
ATOM     14 CL   UNL     1       0.000   0.000   0.000  0.00  0.00    -0.120 Cl
ATOM     15 CL   UNL     1       0.000   0.000   0.000  0.00  0.00    -0.115 Cl
ATOM     16  C   UNL     1       0.000   0.000   0.000  0.00  0.00    +0.031 C 
ATOM     17  C   UNL     1       0.000   0.000   0.000  0.00  0.00    +0.022 C 
ATOM     18  C   UNL     1       0.000   0.000   0.000  0.00  0.00    -0.021 C 
ATOM     19  C   UNL     1       0.000   0.000   0.000  0.00  0.00    +0.054 C 
ATOM     20  C   UNL     1       0.000   0.000   0.000  0.00  0.00    +0.179 C 
ATOM     21  C   UNL     1       0.000   0.000   0.000  0.00  0.00    +0.047 C 
ATOM     22  O   UNL     1       0.000   0.000   0.000  0.00  0.00    -0.288 OA
ATOM     23  C   UNL     1       0.000   0.000   0.000  0.00  0.00    +0.193 C 
ATOM     24  F   UNL     1       0.000   0.000   0.000  0.00  0.00    -0.241 F 
ATOM     25  C   UNL     1       0.000   0.000   0.000  0.00  0.00    -0.010 C 
ATOM     26  C   UNL     1       0.000   0.000   0.000  0.00  0.00    +0.047 C 
ATOM     27  C   UNL     1       0.000   0.000   0.000  0.00  0.00    +0.031 C 
ATOM     28  C   UNL     1       0.000   0.000   0.000  0.00  0.00    +0.039 C 
ENDROOT
BRANCH   7  29
ATOM     29  C   UNL     1       0.000   0.000   0.000  0.00  0.00    +0.193 C 
ATOM     30  O   UNL     1       0.000   0.000   0.000  0.00  0.00    -0.292 OA
BRANCH  29  31
ATOM     31  C   UNL     1       0.000   0.000   0.000  0.00  0.00    +0.233 C 
BRANCH  31  32
ATOM     32  O   UNL     1       0.000   0.000   0.000  0.00  0.00    -0.387 OA
ATOM     33  H   UNL     1       0.000   0.00050311482201876953595219280997965725476951152748925462665672269918535566977639856451283036149181559399549498124402559345336093169360999712046788296801019710707746419250038833152.000  0.00  0.00    +0.210 HD
ENDBRANCH  31  32
ENDBRANCH  29  31
ENDBRANCH   7  29
TORSDOF 3
