REMARK  Name = 
REMARK  5 active torsions:
REMARK  status: ('A' for Active; 'I' for Inactive)
REMARK    1  A    between atoms: N_3  and  C_4
REMARK    2  A    between atoms: N_7  and  C_8
REMARK    3  A    between atoms: C_12  and  C_13
REMARK    4  A    between atoms: C_18  and  C_19
REMARK    5  A    between atoms: C_19  and  N_20
REMARK                            x       y       z     vdW  Elec       q    Type
REMARK                         _______ _______ _______ _____ _____    ______ ____
ROOT
ATOM      1  C   UNL     1       4.861  -1.470  -2.188  0.00  0.00    +0.161 A 
ATOM      2  N   UNL     1       4.958  -2.631  -2.920  0.00  0.00    -0.337 N 
ATOM      3  H   UNL     1       5.360  -3.487  -2.562  0.00  0.00    +0.167 HD
ATOM      4  C   UNL     1       4.348  -2.420  -4.138  0.00  0.00    +0.067 A 
ATOM      5  C   UNL     1       3.931  -1.095  -4.067  0.00  0.00    +0.090 A 
ATOM      6  C   UNL     1       3.214  -0.540  -5.131  0.00  0.00    +0.030 A 
ATOM      7  C   UNL     1       2.922  -1.341  -6.239  0.00  0.00    +0.011 A 
ATOM      8  C   UNL     1       3.391  -2.664  -6.328  0.00  0.00    -0.001 A 
ATOM      9  C   UNL     1       4.109  -3.237  -5.254  0.00  0.00    +0.036 A 
ATOM     10  N   UNL     1       4.282  -0.513  -2.883  0.00  0.00    -0.226 NA
ENDROOT
BRANCH   1  12
ATOM     11  C   UNL     1       5.161  -0.177   0.036  0.00  0.00    +0.083 A 
ATOM     12  C   UNL     1       5.311  -1.336  -0.773  0.00  0.00    +0.149 A 
ATOM     13  N   UNL     1       5.896  -2.348  -0.115  0.00  0.00    -0.169 NA
ATOM     14  N   UNL     1       6.118  -1.831   1.111  0.00  0.00    -0.282 N 
ATOM     15  H   UNL     1       6.573  -2.405   1.812  0.00  0.00    +0.188 HD
ATOM     16  C   UNL     1       5.681  -0.549   1.254  0.00  0.00    +0.129 A 
BRANCH  11  19
ATOM     17  O   UNL     1       5.129   2.258   1.581  0.00  0.00    -0.252 OA
ATOM     18  C   UNL     1       4.610   2.173   0.471  0.00  0.00    +0.304 C 
ATOM     19  N   UNL     1       4.599   1.043  -0.322  0.00  0.00    -0.266 N 
ATOM     20  H   UNL     1       4.294   1.116  -1.287  0.00  0.00    +0.156 HD
ATOM     21  N   UNL     1       3.987   3.248  -0.136  0.00  0.00    -0.296 N 
ATOM     22  H   UNL     1       3.296   3.054  -0.846  0.00  0.00    +0.151 HD
BRANCH  21  23
ATOM     23  C   UNL     1       3.935   4.521   0.524  0.00  0.00    +0.075 C 
ATOM     24  C   UNL     1       3.583   5.788  -0.201  0.00  0.00    +0.024 C 
ATOM     25  C   UNL     1       4.999   5.543   0.229  0.00  0.00    +0.024 C 
ENDBRANCH  21  23
ENDBRANCH  11  19
ENDBRANCH   1  12
BRANCH   8  26
ATOM     26  C   UNL     1       3.122  -3.449  -7.595  0.00  0.00    +0.168 C 
BRANCH  26  27
ATOM     27  N   UNL     1       3.676  -2.773  -8.839  0.00  0.00    +0.242 N 
ATOM     28  C   UNL     1       3.178  -3.439 -10.116  0.00  0.00    +0.160 C 
ATOM     29  C   UNL     1       3.848  -2.817 -11.348  0.00  0.00    +0.210 C 
ATOM     30  O   UNL     1       5.273  -2.862 -11.235  0.00  0.00    -0.369 OA
ATOM     31  C   UNL     1       5.727  -2.096 -10.116  0.00  0.00    +0.210 C 
ATOM     32  C   UNL     1       5.200  -2.689  -8.807  0.00  0.00    +0.160 C 
ATOM     33  H   UNL     1       3.325  -1.809  -8.846  0.00  0.00    +0.204 HD
ENDBRANCH  26  27
ENDBRANCH   8  26
TORSDOF 5
