REMARK  Name = 
REMARK  6 active torsions:
REMARK  status: ('A' for Active; 'I' for Inactive)
REMARK    1  A    between atoms: N_1  and  C_2
REMARK    2  A    between atoms: C_7  and  C_8
REMARK    3  A    between atoms: C_8  and  C_10
REMARK    4  A    between atoms: C_10  and  C_11
REMARK    5  A    between atoms: C_11  and  C_12
REMARK    6  A    between atoms: C_12  and  O_13
REMARK                            x       y       z     vdW  Elec       q    Type
REMARK                         _______ _______ _______ _____ _____    ______ ____
ROOT
ATOM      1  C   UNL     1       2.443   0.039  -0.012  0.00  0.00    +0.035 A 
ATOM      2  C   UNL     1       3.140  -1.187  -0.096  0.00  0.00    +0.038 A 
ATOM      3  C   UNL     1       4.535  -1.190  -0.259  0.00  0.00    +0.013 A 
ATOM      4  C   UNL     1       5.247   0.008  -0.273  0.00  0.00    +0.001 A 
ATOM      5  C   UNL     1       4.574   1.215  -0.121  0.00  0.00    +0.002 A 
ATOM      6  C   UNL     1       3.186   1.228   0.019  0.00  0.00    +0.023 A 
ENDROOT
BRANCH   1   7
ATOM      7  N   UNL     1       1.072   0.112   0.294  0.00  0.00    -0.357 N 
ATOM      8  H   UNL     1       0.556  -0.712  -0.031  0.00  0.00    +0.142 HD
ATOM      9  H   UNL     1       0.621   0.978   0.016  0.00  0.00    +0.142 HD
ENDBRANCH   1   7
BRANCH   2  10
ATOM     10  C   UNL     1       2.400  -2.483   0.031  0.00  0.00    +0.165 C 
ATOM     11  O   UNL     1       1.185  -2.555  -0.175  0.00  0.00    -0.292 OA
BRANCH  10  12
ATOM     12  C   UNL     1       3.106  -3.713   0.562  0.00  0.00    +0.091 C 
BRANCH  12  13
ATOM     13  C   UNL     1       3.431  -3.563   2.037  0.00  0.00    +0.128 C 
BRANCH  13  14
ATOM     14  C   UNL     1       2.278  -3.457   3.013  0.00  0.00    +0.305 C 
ATOM     15  O   UNL     1       2.482  -3.394   4.220  0.00  0.00    -0.251 OA
BRANCH  14  16
ATOM     16  O   UNL     1       1.027  -3.443   2.522  0.00  0.00    -0.481 OA
ATOM     17  H   UNL     1       0.887  -3.380   1.553  0.00  0.00    +0.295 HD
ENDBRANCH  14  16
ENDBRANCH  13  14
ENDBRANCH  12  13
ENDBRANCH  10  12
ENDBRANCH   2  10
TORSDOF 6
