REMARK  Name = 
REMARK  5 active torsions:
REMARK  status: ('A' for Active; 'I' for Inactive)
REMARK    1  A    between atoms: C_1  and  N_2
REMARK    2  A    between atoms: C_6  and  S_7
REMARK    3  A    between atoms: S_7  and  C_8
REMARK    4  A    between atoms: C_10  and  C_11
REMARK    5  A    between atoms: C_19  and  N_20
REMARK                            x       y       z     vdW  Elec       q    Type
REMARK                         _______ _______ _______ _____ _____    ______ ____
ROOT
ATOM      1  C   UNL     1       0.952  -3.040  -0.007  0.00  0.00    +0.052 A 
ATOM      2  C   UNL     1       0.234  -1.869  -0.288  0.00  0.00    +0.139 A 
ATOM      3  F   UNL     1       0.872  -0.701  -0.467  0.00  0.00    -0.204 F 
ATOM      4  C   UNL     1      -1.153  -1.870  -0.410  0.00  0.00    +0.063 A 
ATOM      5  C   UNL     1      -1.866  -3.067  -0.358  0.00  0.00    +0.040 A 
ATOM      6  C   UNL     1      -1.160  -4.283  -0.164  0.00  0.00    +0.059 A 
ATOM      7  C   UNL     1       0.241  -4.257   0.021  0.00  0.00    +0.033 A 
ENDROOT
BRANCH   6   8
ATOM      8  C   UNL     1      -1.918  -5.566  -0.374  0.00  0.00    +0.252 C 
ATOM      9  N   UNL     1      -1.382  -6.737   0.115  0.00  0.00    -0.261 N 
ATOM     10  H   UNL     1      -0.659  -6.720   0.821  0.00  0.00    +0.157 HD
ATOM     11  C   UNL     1      -1.917  -7.989  -0.114  0.00  0.00    +0.165 A 
ATOM     12  S   UNL     1      -3.015  -8.297  -1.397  0.00  0.00    -0.061 S 
ATOM     13  C   UNL     1      -3.119  -9.935  -0.922  0.00  0.00    +0.068 A 
ATOM     14  C   UNL     1      -2.282 -10.149   0.150  0.00  0.00    +0.120 A 
ATOM     15  N   UNL     1      -1.568  -9.043   0.587  0.00  0.00    -0.233 NA
ATOM     16  O   UNL     1      -2.989  -5.486  -0.978  0.00  0.00    -0.270 OA
ENDBRANCH   6   8
BRANCH   5  17
ATOM     17  N   UNL     1      -3.276  -2.998  -0.275  0.00  0.00    -0.357 N 
ATOM     18  H   UNL     1      -3.699  -2.230  -0.779  0.00  0.00    +0.142 HD
ATOM     19  H   UNL     1      -3.705  -3.896  -0.541  0.00  0.00    +0.142 HD
ENDBRANCH   5  17
BRANCH   1  20
ATOM     20  S   UNL     1       2.742  -2.920   0.157  0.00  0.00    -0.049 S 
BRANCH  20  23
ATOM     21  C   UNL     1       5.512  -3.136   1.912  0.00  0.00    +0.151 C 
ATOM     22  N   UNL     1       4.323  -3.913   2.175  0.00  0.00    -0.328 N 
ATOM     23  C   UNL     1       3.090  -3.877   1.566  0.00  0.00    +0.173 A 
ATOM     24  N   UNL     1       2.254  -4.716   2.149  0.00  0.00    -0.230 NA
ATOM     25  C   UNL     1       2.969  -5.330   3.136  0.00  0.00    +0.131 A 
ATOM     26  C   UNL     1       4.261  -4.874   3.157  0.00  0.00    +0.107 A 
ENDBRANCH  20  23
ENDBRANCH   1  20
TORSDOF 4
