REMARK  Name = 
REMARK  6 active torsions:
REMARK  status: ('A' for Active; 'I' for Inactive)
REMARK    1  A    between atoms: C_2  and  C_3
REMARK    2  A    between atoms: C_2  and  C_4
REMARK    3  A    between atoms: C_2  and  C_7
REMARK    4  A    between atoms: C_4  and  O_5
REMARK    5  A    between atoms: C_12  and  O_13
REMARK    6  A    between atoms: O_13  and  C_14
REMARK                            x       y       z     vdW  Elec       q    Type
REMARK                         _______ _______ _______ _____ _____    ______ ____
ROOT
ATOM      1  C   UNL     1       2.337  -0.588   1.347  0.00  0.00    -0.033 A 
ATOM      2  C   UNL     1       2.119  -1.978   1.407  0.00  0.00    +0.013 A 
ATOM      3  C   UNL     1       2.479  -2.741   2.532  0.00  0.00    -0.017 A 
ATOM      4  C   UNL     1       3.052  -2.099   3.647  0.00  0.00    -0.014 A 
ATOM      5  C   UNL     1       3.425  -2.868   4.763  0.00  0.00    +0.054 A 
ATOM      6  C   UNL     1       3.242  -4.255   4.784  0.00  0.00    +0.121 A 
ATOM      7  C   UNL     1       2.676  -4.884   3.678  0.00  0.00    +0.046 A 
ATOM      8  C   UNL     1       3.242  -0.709   3.605  0.00  0.00    +0.009 A 
ATOM      9  C   UNL     1       2.295  -4.132   2.563  0.00  0.00    +0.012 A 
ATOM     10  C   UNL     1       2.895   0.036   2.470  0.00  0.00    +0.005 A 
ENDROOT
BRANCH   1  11
ATOM     11  C   UNL     1       1.987   0.157   0.065  0.00  0.00    +0.124 C 
ATOM     12  C   UNL     1       2.841  -0.321  -1.116  0.00  0.00    +0.024 C 
BRANCH  11  13
ATOM     13  C   UNL     1       2.079   1.677   0.160  0.00  0.00    +0.312 C 
ATOM     14  O   UNL     1       3.033   2.349  -0.204  0.00  0.00    -0.250 OA
BRANCH  13  15
ATOM     15  O   UNL     1       0.982   2.248   0.716  0.00  0.00    -0.480 OA
ATOM     16  H   UNL     1       0.305   1.606   1.004  0.00  0.00    +0.295 HD
ENDBRANCH  13  15
ENDBRANCH  11  13
ENDBRANCH   1  11
BRANCH   6  17
ATOM     17  O   UNL     1       3.656  -4.874   5.933  0.00  0.00    -0.495 OA
ATOM     18  C   UNL     1       3.499  -6.287   5.997  0.00  0.00    +0.277 C 
ENDBRANCH   6  17
TORSDOF 4
