REMARK  Name = 
REMARK  12 active torsions:
REMARK  status: ('A' for Active; 'I' for Inactive)
REMARK    1  A    between atoms: C_1  and  C_2
REMARK    2  A    between atoms: C_2  and  O_3
REMARK    3  A    between atoms: O_3  and  C_4
REMARK    4  A    between atoms: N_8  and  C_9
REMARK    5  A    between atoms: C_9  and  C_10
REMARK    6  A    between atoms: C_13  and  C_16
REMARK    7  A    between atoms: C_21  and  C_22
REMARK    8  A    between atoms: C_28  and  C_32
REMARK    9  A    between atoms: C_32  and  O_34
REMARK   10  A    between atoms: O_34  and  C_35
REMARK   11  A    between atoms: C_35  and  C_36
REMARK   12  A    between atoms: C_37  and  C_38
REMARK                            x       y       z     vdW  Elec       q    Type
REMARK                         _______ _______ _______ _____ _____    ______ ____
ROOT
ATOM      1  C   UNL     1       4.524  -1.248   0.738  0.00  0.00    +0.299 A 
ATOM      2  N   UNL     1       5.327  -0.164   1.038  0.00  0.00    -0.289 N 
ATOM      3  C   UNL     1       6.621  -0.630   1.193  0.00  0.00    +0.086 A 
ATOM      4  C   UNL     1       7.900  -0.064   1.446  0.00  0.00    +0.085 A 
ATOM      5  C   UNL     1       8.985  -0.953   1.631  0.00  0.00    +0.017 A 
ATOM      6  C   UNL     1       8.816  -2.337   1.572  0.00  0.00    +0.003 A 
ATOM      7  C   UNL     1       7.560  -2.880   1.300  0.00  0.00    +0.030 A 
ATOM      8  C   UNL     1       6.470  -2.025   1.103  0.00  0.00    +0.094 A 
ATOM      9  N   UNL     1       5.176  -2.381   0.812  0.00  0.00    -0.195 NA
ENDROOT
BRANCH   4  10
ATOM     10  C   UNL     1       8.159   1.395   1.374  0.00  0.00    +0.342 C 
ATOM     11  O   UNL     1       7.559   2.123   0.597  0.00  0.00    -0.245 OA
BRANCH  10  12
ATOM     12  O   UNL     1       9.190   1.779   2.179  0.00  0.00    -0.453 OA
BRANCH  12  13
ATOM     13  C   UNL     1       9.628   3.143   2.025  0.00  0.00    +0.310 C 
BRANCH  13  14
ATOM     14  C   UNL     1       9.551   3.889   3.319  0.00  0.00    +0.187 A 
ATOM     15  O   UNL     1       8.284   4.209   3.754  0.00  0.00    -0.392 OA
ATOM     16  C   UNL     1       8.542   5.134   4.745  0.00  0.00    +0.521 A 
ATOM     17  O   UNL     1       7.671   5.811   5.279  0.00  0.00    -0.202 OA
ATOM     18  O   UNL     1       9.872   5.237   5.076  0.00  0.00    -0.396 OA
ATOM     19  C   UNL     1      10.451   4.516   4.052  0.00  0.00    +0.151 A 
ATOM     20  C   UNL     1      11.900   4.747   3.870  0.00  0.00    +0.090 C 
ENDBRANCH  13  14
ENDBRANCH  12  13
ENDBRANCH  10  12
ENDBRANCH   4  10
BRANCH   1  21
ATOM     21  O   UNL     1       3.229  -1.128   0.467  0.00  0.00    -0.464 OA
BRANCH  21  23
ATOM     22  C   UNL     1       1.090  -2.148   0.082  0.00  0.00    +0.048 C 
ATOM     23  C   UNL     1       2.491  -2.340   0.630  0.00  0.00    +0.229 C 
ENDBRANCH  21  23
ENDBRANCH   1  21
BRANCH   2  24
ATOM     24  C   UNL     1       4.776   1.162   1.329  0.00  0.00    +0.162 C 
BRANCH  24  25
ATOM     25  C   UNL     1       4.957   1.555   2.783  0.00  0.00    -0.028 A 
ATOM     26  C   UNL     1       4.803   0.642   3.824  0.00  0.00    +0.006 A 
ATOM     27  C   UNL     1       5.300   0.920   5.103  0.00  0.00    +0.009 A 
ATOM     28  C   UNL     1       6.003   2.099   5.360  0.00  0.00    -0.017 A 
ATOM     29  C   UNL     1       5.768   3.129   4.434  0.00  0.00    +0.009 A 
ATOM     30  C   UNL     1       5.301   2.858   3.135  0.00  0.00    +0.006 A 
BRANCH  28  31
ATOM     31  C   UNL     1       7.075   2.170   6.419  0.00  0.00    -0.007 A 
ATOM     32  C   UNL     1       7.966   1.096   6.722  0.00  0.00    +0.028 A 
ATOM     33  C   UNL     1       9.059   1.266   7.606  0.00  0.00    +0.012 A 
ATOM     34  C   UNL     1       9.337   2.499   8.171  0.00  0.00    +0.001 A 
ATOM     35  C   UNL     1       8.488   3.560   7.904  0.00  0.00    +0.001 A 
ATOM     36  C   UNL     1       7.355   3.383   7.087  0.00  0.00    +0.009 A 
BRANCH  32  37
ATOM     37  C   UNL     1       7.941  -0.236   6.083  0.00  0.00    +0.183 A 
ATOM     38  N   UNL     1       8.196  -1.332   6.815  0.00  0.00    -0.271 N 
ATOM     39  H   UNL     1       8.442  -1.410   7.785  0.00  0.00    +0.174 HD
ATOM     40  C   UNL     1       8.212  -2.369   5.966  0.00  0.00    +0.440 A 
ATOM     41  O   UNL     1       8.524  -3.514   6.249  0.00  0.00    -0.221 OA
ATOM     42  O   UNL     1       7.870  -1.915   4.722  0.00  0.00    -0.295 OA
ATOM     43  N   UNL     1       7.748  -0.495   4.835  0.00  0.00    -0.054 NA
ENDBRANCH  32  37
ENDBRANCH  28  31
ENDBRANCH  24  25
ENDBRANCH   2  24
TORSDOF 10
