REMARK  Name = 
REMARK  5 active torsions:
REMARK  status: ('A' for Active; 'I' for Inactive)
REMARK    1  A    between atoms: C_2  and  O_3
REMARK    2  A    between atoms: C_6  and  C_17
REMARK    3  A    between atoms: C_8  and  C_14
REMARK    4  A    between atoms: C_14  and  O_15
REMARK    5  A    between atoms: C_17  and  O_18
REMARK                            x       y       z     vdW  Elec       q    Type
REMARK                         _______ _______ _______ _____ _____    ______ ____
ROOT
ATOM      1  C   UNL     1       2.484   0.083   0.184  0.00  0.00    +0.166 C 
ATOM      2  C   UNL     1       2.642  -1.088  -0.826  0.00  0.00    +0.153 C 
ATOM      3  C   UNL     1       3.888  -1.916  -0.510  0.00  0.00    +0.057 C 
ATOM      4  C   UNL     1       3.685  -2.552   0.873  0.00  0.00    +0.091 C 
ATOM      5  C   UNL     1       2.481  -3.506   0.754  0.00  0.00    +0.065 C 
ATOM      6  C   UNL     1       1.230  -2.834   0.181  0.00  0.00    +0.228 C 
ATOM      7  C   UNL     1       3.391  -1.484   1.914  0.00  0.00    -0.011 C 
ATOM      8  O   UNL     1       1.480  -1.937  -0.913  0.00  0.00    -0.359 OA
ATOM      9  C   UNL     1       2.873  -0.288   1.589  0.00  0.00    +0.003 C 
ENDROOT
BRANCH   4  10
ATOM     10  C   UNL     1       4.944  -3.338   1.266  0.00  0.00    +0.315 C 
ATOM     11  O   UNL     1       4.994  -4.555   1.381  0.00  0.00    -0.250 OA
BRANCH  10  12
ATOM     12  O   UNL     1       6.037  -2.564   1.487  0.00  0.00    -0.480 OA
ATOM     13  H   UNL     1       5.872  -1.606   1.397  0.00  0.00    +0.295 HD
ENDBRANCH  10  12
ENDBRANCH   4  10
BRANCH   6  14
ATOM     14  C   UNL     1       0.316  -2.193   1.236  0.00  0.00    +0.334 C 
ATOM     15  O   UNL     1       0.254  -2.500   2.415  0.00  0.00    -0.248 OA
BRANCH  14  16
ATOM     16  O   UNL     1      -0.471  -1.231   0.684  0.00  0.00    -0.479 OA
ATOM     17  H   UNL     1      -0.274  -1.162  -0.277  0.00  0.00    +0.295 HD
ENDBRANCH  14  16
ENDBRANCH   6  14
BRANCH   1  18
ATOM     18  O   UNL     1       3.340   1.154  -0.199  0.00  0.00    -0.385 OA
ATOM     19  H   UNL     1       2.976   1.963   0.207  0.00  0.00    +0.210 HD
ENDBRANCH   1  18
TORSDOF 5
