REMARK  Name = 
REMARK  9 active torsions:
REMARK  status: ('A' for Active; 'I' for Inactive)
REMARK    1  A    between atoms: C_1  and  C_2
REMARK    2  A    between atoms: C_2  and  O_3
REMARK    3  A    between atoms: O_3  and  C_4
REMARK    4  A    between atoms: C_4  and  N_5
REMARK    5  A    between atoms: C_9  and  C_25
REMARK    6  A    between atoms: C_10  and  C_11
REMARK    7  A    between atoms: C_15  and  O_16
REMARK    8  A    between atoms: O_16  and  C_17
REMARK    9  A    between atoms: C_22  and  O_23
REMARK                            x       y       z     vdW  Elec       q    Type
REMARK                         _______ _______ _______ _____ _____    ______ ____
ROOT
ATOM      1  N   UNL     1       4.851  -0.149   2.920  0.00  0.00    -0.176 N 
ATOM      2  C   UNL     1       5.143  -1.324   3.570  0.00  0.00    +0.118 A 
ATOM      3  C   UNL     1       5.481  -1.102   4.852  0.00  0.00    +0.097 A 
ATOM      4  C   UNL     1       5.431   0.395   4.985  0.00  0.00    +0.367 A 
ATOM      5  O   UNL     1       5.681   1.036   5.994  0.00  0.00    -0.243 OA
ATOM      6  O   UNL     1       5.070   0.931   3.766  0.00  0.00    -0.332 OA
ENDROOT
BRANCH   3   7
ATOM      7  C   UNL     1       5.761  -2.042   5.948  0.00  0.00    -0.009 A 
ATOM      8  C   UNL     1       5.292  -1.757   7.244  0.00  0.00    +0.011 A 
ATOM      9  C   UNL     1       5.434  -2.678   8.284  0.00  0.00    +0.039 A 
ATOM     10  C   UNL     1       6.051  -3.896   8.041  0.00  0.00    +0.123 A 
ATOM     11  F   UNL     1       6.145  -4.800   9.024  0.00  0.00    -0.205 F 
ATOM     12  C   UNL     1       6.571  -4.186   6.788  0.00  0.00    +0.039 A 
ATOM     13  C   UNL     1       6.443  -3.255   5.753  0.00  0.00    +0.011 A 
ENDBRANCH   3   7
BRANCH   2  14
ATOM     14  C   UNL     1       5.082  -2.612   2.882  0.00  0.00    +0.098 A 
ATOM     15  N   UNL     1       6.254  -3.038   2.362  0.00  0.00    -0.193 NA
ATOM     16  C   UNL     1       6.297  -4.273   1.848  0.00  0.00    +0.324 A 
ATOM     17  N   UNL     1       5.245  -5.103   1.806  0.00  0.00    -0.203 NA
ATOM     18  C   UNL     1       4.081  -4.623   2.302  0.00  0.00    +0.118 A 
ATOM     19  C   UNL     1       3.944  -3.386   2.877  0.00  0.00    +0.050 A 
BRANCH  16  20
ATOM     20  O   UNL     1       7.533  -4.861   1.607  0.00  0.00    -0.420 OA
BRANCH  20  21
ATOM     21  C   UNL     1       8.553  -4.144   1.022  0.00  0.00    +0.173 A 
ATOM     22  C   UNL     1       9.011  -2.869   1.368  0.00  0.00    +0.159 A 
ATOM     23  C   UNL     1      10.045  -2.259   0.655  0.00  0.00    +0.049 A 
ATOM     24  C   UNL     1      10.690  -2.938  -0.365  0.00  0.00    +0.004 A 
ATOM     25  C   UNL     1      10.342  -4.257  -0.637  0.00  0.00    +0.004 A 
ATOM     26  C   UNL     1       9.272  -4.851   0.045  0.00  0.00    +0.050 A 
BRANCH  22  27
ATOM     27  O   UNL     1       8.572  -2.131   2.429  0.00  0.00    -0.503 OA
ATOM     28  H   UNL     1       7.633  -2.364   2.556  0.00  0.00    +0.292 HD
ENDBRANCH  22  27
ENDBRANCH  20  21
ENDBRANCH  16  20
ENDBRANCH   2  14
BRANCH   1  29
ATOM     29  C   UNL     1       4.609   0.165   1.534  0.00  0.00    +0.321 C 
BRANCH  29  30
ATOM     30  O   UNL     1       3.310  -0.288   1.145  0.00  0.00    -0.357 OA
BRANCH  30  32
ATOM     31  C   UNL     1       1.636  -0.364  -0.586  0.00  0.00    +0.034 C 
ATOM     32  C   UNL     1       3.030   0.090  -0.203  0.00  0.00    +0.159 C 
ENDBRANCH  30  32
ENDBRANCH  29  30
ENDBRANCH   1  29
TORSDOF 8
