REMARK  Name = 
REMARK  1 active torsions:
REMARK  status: ('A' for Active; 'I' for Inactive)
REMARK    1  A    between atoms: C_14  and  C_27
REMARK                            x       y       z     vdW  Elec       q    Type
REMARK                         _______ _______ _______ _____ _____    ______ ____
ROOT
ATOM      1  C   UNL     1       2.621  -2.220  -1.183  0.00  0.00    +0.143 C 
ATOM      2  N   UNL     1       2.788  -3.295  -2.276  0.00  0.00    -0.300 NA
ATOM      3  H   UNL     1       2.722  -2.830  -3.180  0.00  0.00    +0.123 HD
ATOM      4  C   UNL     1       3.703  -4.478  -2.428  0.00  0.00    +0.136 C 
ATOM      5  C   UNL     1       3.283  -5.517  -3.577  0.00  0.00    +0.052 A 
ATOM      6  N   UNL     1       2.807  -6.874  -3.586  0.00  0.00    -0.328 N 
ATOM      7  C   UNL     1       2.290  -7.092  -4.855  0.00  0.00    +0.199 A 
ATOM      8  N   UNL     1       2.756  -6.221  -5.712  0.00  0.00    -0.244 NA
ATOM      9  C   UNL     1       3.199  -8.127  -2.874  0.00  0.00    +0.158 C 
ATOM     10  C   UNL     1       2.773  -8.295  -1.446  0.00  0.00    -0.024 A 
ATOM     11  C   UNL     1       2.471  -7.168  -0.729  0.00  0.00    +0.053 A 
ATOM     12  C   UNL     1       2.524  -7.197   0.643  0.00  0.00    +0.146 A 
ATOM     13  C   UNL     1       2.427  -8.389   1.346  0.00  0.00    +0.094 A 
ATOM     14  C   UNL     1       2.588  -9.547   0.630  0.00  0.00    +0.023 A 
ATOM     15  O   UNL     1       2.774  -6.012   1.248  0.00  0.00    -0.455 OA
ATOM     16  C   UNL     1       4.120  -5.735   1.469  0.00  0.00    +0.129 A 
ATOM     17  C   UNL     1       4.830  -6.335   2.481  0.00  0.00    +0.047 A 
ATOM     18  C   UNL     1       5.619  -5.538   3.302  0.00  0.00    +0.012 A 
ATOM     19  C   UNL     1       5.586  -4.141   3.166  0.00  0.00    -0.016 A 
ATOM     20  C   UNL     1       6.141  -3.278   4.100  0.00  0.00    +0.008 A 
ATOM     21  C   UNL     1       6.006  -1.885   3.936  0.00  0.00    +0.002 A 
ATOM     22  C   UNL     1       5.270  -1.354   2.853  0.00  0.00    +0.024 A 
ATOM     23  C   UNL     1       4.665  -2.204   1.920  0.00  0.00    +0.044 A 
ATOM     24  N   UNL     1       3.782  -1.747   0.875  0.00  0.00    -0.269 N 
ATOM     25  C   UNL     1       4.029  -0.576   0.095  0.00  0.00    +0.116 C 
ATOM     26  C   UNL     1       4.920  -3.588   2.054  0.00  0.00    +0.007 A 
ATOM     27  C   UNL     1       4.497  -4.477   1.091  0.00  0.00    +0.056 A 
ATOM     28  C   UNL     1       2.831  -9.527  -0.749  0.00  0.00    +0.007 A 
ATOM     29  C   UNL     1       3.418  -5.296  -4.948  0.00  0.00    +0.135 A 
ATOM     30  C   UNL     1       2.723  -2.521   0.310  0.00  0.00    +0.237 C 
ATOM     31  O   UNL     1       1.970  -3.269   0.919  0.00  0.00    -0.274 OA
ATOM     32  C   UNL     1       3.173  -0.759  -1.173  0.00  0.00    +0.047 C 
ENDROOT
BRANCH  13  33
ATOM     33  C   UNL     1       2.198  -8.361   2.757  0.00  0.00    +0.103 C 
ATOM     34  N   UNL     1       2.023  -8.316   3.900  0.00  0.00    -0.191 NA
ENDBRANCH  13  33
TORSDOF 1
