REMARK  Name = 
REMARK  14 active torsions:
REMARK  status: ('A' for Active; 'I' for Inactive)
REMARK    1  A    between atoms: C_8  and  C_10
REMARK    2  A    between atoms: C_11  and  C_12
REMARK    3  A    between atoms: C_12  and  C_13
REMARK    4  A    between atoms: C_13  and  C_14
REMARK    5  A    between atoms: C_14  and  C_15
REMARK    6  A    between atoms: C_15  and  C_16
REMARK    7  A    between atoms: C_16  and  O_17
REMARK    8  A    between atoms: C_19  and  C_21
REMARK    9  A    between atoms: C_22  and  C_23
REMARK   10  A    between atoms: C_23  and  C_24
REMARK   11  A    between atoms: C_24  and  C_25
REMARK   12  A    between atoms: C_25  and  C_26
REMARK   13  A    between atoms: C_26  and  C_27
REMARK   14  A    between atoms: C_27  and  C_28
REMARK                            x       y       z     vdW  Elec       q    Type
REMARK                         _______ _______ _______ _____ _____    ______ ____
ROOT
ATOM      1  C   UNL     1       2.070   0.029  -0.023  0.00  0.00    +0.137 C 
ATOM      2  C   UNL     1       2.657   1.245   0.739  0.00  0.00    +0.047 C 
ATOM      3  C   UNL     1       4.150   1.181   0.283  0.00  0.00    +0.047 C 
ATOM      4  C   UNL     1       4.140  -0.105  -0.585  0.00  0.00    +0.137 C 
ATOM      5  N   UNL     1       3.847  -1.264   0.299  0.00  0.00    -0.188 NA
ATOM      6  N   UNL     1       2.627  -1.186   0.631  0.00  0.00    -0.188 NA
ATOM      7  C   UNL     1       2.827   0.007  -1.340  0.00  0.00    +0.058 C 
ENDROOT
BRANCH   2   8
ATOM      8  C   UNL     1       1.995   2.546   0.346  0.00  0.00    -0.025 C 
ATOM      9  C   UNL     1       1.436   3.393   1.223  0.00  0.00    -0.031 C 
BRANCH   9  10
ATOM     10  C   UNL     1       0.794   4.693   0.830  0.00  0.00    +0.027 C 
BRANCH  10  11
ATOM     11  C   UNL     1       1.519   5.874   1.478  0.00  0.00    +0.004 C 
BRANCH  11  12
ATOM     12  C   UNL     1       0.876   7.204   1.087  0.00  0.00    +0.000 C 
BRANCH  12  13
ATOM     13  C   UNL     1       1.600   8.380   1.744  0.00  0.00    -0.000 C 
BRANCH  13  14
ATOM     14  C   UNL     1       0.961   9.712   1.357  0.00  0.00    -0.003 C 
ATOM     15  C   UNL     1       1.680  10.882   2.010  0.00  0.00    +0.004 C 
ENDBRANCH  13  14
ENDBRANCH  12  13
ENDBRANCH  11  12
ENDBRANCH  10  11
ENDBRANCH   9  10
ENDBRANCH   2   8
BRANCH   3  16
ATOM     16  C   UNL     1       5.125   1.147   1.435  0.00  0.00    -0.025 C 
ATOM     17  C   UNL     1       6.140   2.012   1.592  0.00  0.00    -0.031 C 
BRANCH  17  18
ATOM     18  C   UNL     1       7.086   1.980   2.759  0.00  0.00    +0.027 C 
BRANCH  18  19
ATOM     19  C   UNL     1       7.043   3.300   3.532  0.00  0.00    +0.005 C 
BRANCH  19  20
ATOM     20  C   UNL     1       7.999   3.280   4.725  0.00  0.00    +0.011 C 
BRANCH  20  21
ATOM     21  C   UNL     1       7.956   4.599   5.495  0.00  0.00    +0.120 C 
BRANCH  21  22
ATOM     22  C   UNL     1       8.898   4.593   6.677  0.00  0.00    +0.305 C 
ATOM     23  O   UNL     1       9.623   3.666   6.998  0.00  0.00    -0.251 OA
BRANCH  22  24
ATOM     24  O   UNL     1       8.862   5.756   7.366  0.00  0.00    -0.481 OA
ATOM     25  H   UNL     1       8.239   6.412   7.002  0.00  0.00    +0.295 HD
ENDBRANCH  22  24
ENDBRANCH  21  22
ENDBRANCH  20  21
ENDBRANCH  19  20
ENDBRANCH  18  19
ENDBRANCH  17  18
ENDBRANCH   3  16
TORSDOF 13
