REMARK  Name = 
REMARK  9 active torsions:
REMARK  status: ('A' for Active; 'I' for Inactive)
REMARK    1  A    between atoms: C_1  and  C_2
REMARK    2  A    between atoms: C_2  and  C_3
REMARK    3  A    between atoms: C_4  and  C_5
REMARK    4  A    between atoms: C_5  and  O_6
REMARK    5  A    between atoms: O_6  and  C_7
REMARK    6  A    between atoms: C_12  and  N_13
REMARK    7  A    between atoms: N_13  and  C_14
REMARK    8  A    between atoms: C_14  and  C_16
REMARK    9  A    between atoms: C_17  and  C_18
REMARK                            x       y       z     vdW  Elec       q    Type
REMARK                         _______ _______ _______ _____ _____    ______ ____
ROOT
ATOM      1  C   UNL     1       6.617  -0.962   2.680  0.00  0.00    +0.141 A 
ATOM      2  C   UNL     1       7.162  -2.259   2.696  0.00  0.00    +0.070 A 
ATOM      3  C   UNL     1       8.545  -2.468   2.796  0.00  0.00    +0.035 A 
ATOM      4  C   UNL     1       9.379  -1.350   2.857  0.00  0.00    +0.025 A 
ATOM      5  C   UNL     1       8.856  -0.057   2.776  0.00  0.00    +0.025 A 
ATOM      6  C   UNL     1       7.481   0.140   2.685  0.00  0.00    +0.083 A 
ATOM      7 CL   UNL     1       6.889   1.762   2.629  0.00  0.00    -0.080 Cl
ENDROOT
BRANCH   3   8
ATOM      8  N   UNL     1       8.996  -3.808   2.929  0.00  0.00    -0.308 N 
ATOM      9  H   UNL     1       8.271  -4.489   3.111  0.00  0.00    +0.153 HD
BRANCH   8  10
ATOM     10  C   UNL     1      10.277  -4.326   2.846  0.00  0.00    +0.087 C 
ATOM     11  S   UNL     1      11.575  -3.690   1.993  0.00  0.00    -0.035 S 
BRANCH  10  12
ATOM     12  C   UNL     1      10.510  -5.621   3.509  0.00  0.00    +0.044 A 
ATOM     13  C   UNL     1      11.546  -6.585   3.232  0.00  0.00    +0.051 A 
ATOM     14  C   UNL     1      11.437  -7.590   4.156  0.00  0.00    +0.196 A 
ATOM     15  O   UNL     1      10.387  -7.355   4.969  0.00  0.00    -0.467 OA
ATOM     16  C   UNL     1       9.824  -6.170   4.594  0.00  0.00    +0.111 A 
ATOM     17  C   UNL     1       8.687  -5.776   5.458  0.00  0.00    +0.087 C 
ENDBRANCH  10  12
ENDBRANCH   8  10
ENDBRANCH   3   8
BRANCH   1  18
ATOM     18  O   UNL     1       5.267  -0.709   2.664  0.00  0.00    -0.486 OA
BRANCH  18  19
ATOM     19  C   UNL     1       4.451  -1.725   3.242  0.00  0.00    +0.256 C 
BRANCH  19  22
ATOM     20  C   UNL     1       1.507  -0.551   5.514  0.00  0.00    +0.038 C 
ATOM     21  C   UNL     1       2.838  -1.109   5.099  0.00  0.00    -0.076 C 
ATOM     22  C   UNL     1       3.201  -1.113   3.798  0.00  0.00    +0.012 C 
ATOM     23  C   UNL     1       3.721  -1.648   6.191  0.00  0.00    +0.038 C 
ENDBRANCH  19  22
ENDBRANCH  18  19
ENDBRANCH   1  18
TORSDOF 6
