REMARK  Name = 
REMARK  14 active torsions:
REMARK  status: ('A' for Active; 'I' for Inactive)
REMARK    1  A    between atoms: C_2  and  O_3
REMARK    2  A    between atoms: N_5  and  C_6
REMARK    3  A    between atoms: C_6  and  C_7
REMARK    4  A    between atoms: C_7  and  C_8
REMARK    5  A    between atoms: C_8  and  C_9
REMARK    6  A    between atoms: C_9  and  C_10
REMARK    7  A    between atoms: C_10  and  C_11
REMARK    8  A    between atoms: C_11  and  C_12
REMARK    9  A    between atoms: C_12  and  C_13
REMARK   10  A    between atoms: C_13  and  C_14
REMARK   11  A    between atoms: C_15  and  C_17
REMARK   12  A    between atoms: C_17  and  O_18
REMARK   13  A    between atoms: C_19  and  O_21
REMARK   14  A    between atoms: C_22  and  O_24
REMARK                            x       y       z     vdW  Elec       q    Type
REMARK                         _______ _______ _______ _____ _____    ______ ____
ROOT
ATOM      1  C   UNL     1       0.269  -0.092  -1.641  0.00  0.00    +0.159 C 
ATOM      2  C   UNL     1       0.864   0.529  -0.366  0.00  0.00    +0.174 C 
ATOM      3  C   UNL     1       2.359   0.190  -0.184  0.00  0.00    +0.165 C 
ATOM      4  C   UNL     1       2.690  -1.312  -0.412  0.00  0.00    +0.113 C 
ATOM      5  N   UNL     1       2.144  -1.747  -1.735  0.00  0.00    -0.292 NA
ATOM      6  C   UNL     1       0.679  -1.566  -1.808  0.00  0.00    +0.118 C 
ENDROOT
BRANCH   1   7
ATOM      7  O   UNL     1       0.658   0.634  -2.812  0.00  0.00    -0.388 OA
ATOM      8  H   UNL     1       1.561   0.348  -3.037  0.00  0.00    +0.210 HD
ENDBRANCH   1   7
BRANCH   2   9
ATOM      9  O   UNL     1       0.105   0.153   0.791  0.00  0.00    -0.387 OA
ATOM     10  H   UNL     1      -0.130  -0.786   0.746  0.00  0.00    +0.210 HD
ENDBRANCH   2   9
BRANCH   3  11
ATOM     11  O   UNL     1       3.145   0.966  -1.112  0.00  0.00    -0.388 OA
ATOM     12  H   UNL     1       3.293   0.407  -1.896  0.00  0.00    +0.210 HD
ENDBRANCH   3  11
BRANCH   4  13
ATOM     13  C   UNL     1       2.341  -2.212   0.799  0.00  0.00    +0.177 C 
BRANCH  13  14
ATOM     14  O   UNL     1       2.869  -1.705   2.017  0.00  0.00    -0.393 OA
ATOM     15  H   UNL     1       3.840  -1.695   1.948  0.00  0.00    +0.209 HD
ENDBRANCH  13  14
ENDBRANCH   4  13
BRANCH   5  16
ATOM     16  C   UNL     1       2.542  -3.132  -2.057  0.00  0.00    +0.085 C 
BRANCH  16  17
ATOM     17  C   UNL     1       2.216  -3.586  -3.485  0.00  0.00    +0.015 C 
BRANCH  17  18
ATOM     18  C   UNL     1       2.833  -2.688  -4.556  0.00  0.00    +0.001 C 
BRANCH  18  19
ATOM     19  C   UNL     1       2.391  -3.135  -5.948  0.00  0.00    +0.000 C 
BRANCH  19  20
ATOM     20  C   UNL     1       3.024  -2.266  -7.031  0.00  0.00    +0.000 C 
BRANCH  20  21
ATOM     21  C   UNL     1       2.572  -2.712  -8.420  0.00  0.00    -0.000 C 
BRANCH  21  22
ATOM     22  C   UNL     1       3.215  -1.853  -9.505  0.00  0.00    -0.000 C 
BRANCH  22  23
ATOM     23  C   UNL     1       2.772  -2.296 -10.897  0.00  0.00    -0.003 C 
ATOM     24  C   UNL     1       3.415  -1.441 -11.975  0.00  0.00    +0.004 C 
ENDBRANCH  22  23
ENDBRANCH  21  22
ENDBRANCH  20  21
ENDBRANCH  19  20
ENDBRANCH  18  19
ENDBRANCH  17  18
ENDBRANCH  16  17
ENDBRANCH   5  16
TORSDOF 13
