REMARK  Name = 
REMARK  6 active torsions:
REMARK  status: ('A' for Active; 'I' for Inactive)
REMARK    1  A    between atoms: C_8  and  C_21
REMARK    2  A    between atoms: C_14  and  O_15
REMARK    3  A    between atoms: C_17  and  C_18
REMARK    4  A    between atoms: C_18  and  O_19
REMARK    5  A    between atoms: O_19  and  C_20
REMARK    6  A    between atoms: C_24  and  O_25
REMARK                            x       y       z     vdW  Elec       q    Type
REMARK                         _______ _______ _______ _____ _____    ______ ____
ROOT
ATOM      1  C   UNL     1       2.073   0.035  -0.135  0.00  0.00    +0.030 C 
ATOM      2  C   UNL     1       2.479  -1.421  -0.132  0.00  0.00    +0.002 A 
ATOM      3  C   UNL     1       2.201  -2.225  -1.251  0.00  0.00    +0.053 A 
ATOM      4  C   UNL     1       2.617  -3.550  -1.282  0.00  0.00    +0.118 A 
ATOM      5  C   UNL     1       3.300  -4.101  -0.209  0.00  0.00    +0.055 A 
ATOM      6  C   UNL     1       3.567  -3.328   0.932  0.00  0.00    +0.023 A 
ATOM      7  C   UNL     1       3.120  -1.996   0.979  0.00  0.00    +0.130 A 
ATOM      8  O   UNL     1       3.395  -1.290   2.124  0.00  0.00    -0.483 OA
ATOM      9  C   UNL     1       2.612  -0.102   2.310  0.00  0.00    +0.207 C 
ATOM     10  C   UNL     1       2.642   0.791   1.067  0.00  0.00    +0.042 C 
ATOM     11  C   UNL     1       4.046   1.211   0.606  0.00  0.00    +0.008 C 
ATOM     12  C   UNL     1       3.918   1.477  -0.886  0.00  0.00    +0.001 C 
ATOM     13  C   UNL     1       2.600   0.844  -1.330  0.00  0.00    +0.009 C 
ENDROOT
BRANCH   9  14
ATOM     14  C   UNL     1       3.098   0.660   3.537  0.00  0.00    -0.007 A 
ATOM     15  C   UNL     1       4.453   0.669   3.907  0.00  0.00    +0.011 A 
ATOM     16  C   UNL     1       4.894   1.446   4.980  0.00  0.00    +0.046 A 
ATOM     17  C   UNL     1       3.985   2.216   5.693  0.00  0.00    +0.117 A 
ATOM     18  C   UNL     1       2.634   2.209   5.363  0.00  0.00    +0.046 A 
ATOM     19  C   UNL     1       2.193   1.434   4.285  0.00  0.00    +0.011 A 
BRANCH  17  20
ATOM     20  O   UNL     1       4.466   2.982   6.714  0.00  0.00    -0.507 OA
ATOM     21  H   UNL     1       3.740   3.525   7.062  0.00  0.00    +0.292 HD
ENDBRANCH  17  20
ENDBRANCH   9  14
BRANCH   4  22
ATOM     22  O   UNL     1       2.391  -4.342  -2.367  0.00  0.00    -0.507 OA
ATOM     23  H   UNL     1       1.952  -3.815  -3.055  0.00  0.00    +0.292 HD
ENDBRANCH   4  22
BRANCH   6  24
ATOM     24  C   UNL     1       4.358  -3.947   2.058  0.00  0.00    +0.198 C 
BRANCH  24  25
ATOM     25  O   UNL     1       5.623  -4.444   1.604  0.00  0.00    -0.378 OA
ATOM     26  C   UNL     1       6.524  -3.398   1.249  0.00  0.00    +0.194 C 
ENDBRANCH  24  25
ENDBRANCH   6  24
TORSDOF 5
