REMARK  Name = 
REMARK  5 active torsions:
REMARK  status: ('A' for Active; 'I' for Inactive)
REMARK    1  A    between atoms: N_2  and  C_4
REMARK    2  A    between atoms: C_8  and  N_10
REMARK    3  A    between atoms: C_15  and  C_17
REMARK    4  A    between atoms: C_21  and  C_22
REMARK    5  A    between atoms: C_22  and  N_23
REMARK                            x       y       z     vdW  Elec       q    Type
REMARK                         _______ _______ _______ _____ _____    ______ ____
ROOT
ATOM      1  N   UNL     1       2.547  -4.779   0.805  0.00  0.00    -0.067 NA
ATOM      2  C   UNL     1       1.435  -5.014   0.181  0.00  0.00    +0.467 C 
ATOM      3  N   UNL     1       1.138  -6.342  -0.023  0.00  0.00    -0.070 NA
ATOM      4  C   UNL     1       0.333  -6.635  -1.000  0.00  0.00    +0.133 C 
ATOM      5  C   UNL     1      -0.230  -5.559  -1.890  0.00  0.00    +0.140 C 
ATOM      6  C   UNL     1      -0.142  -4.227  -1.234  0.00  0.00    +0.189 C 
ATOM      7  N   UNL     1       0.630  -3.985  -0.233  0.00  0.00    -0.079 NA
ENDROOT
BRANCH   1  10
ATOM      8  C   UNL     1       3.527  -1.172   0.475  0.00  0.00    +0.277 A 
ATOM      9  C   UNL     1       2.970  -2.420   0.161  0.00  0.00    +0.130 A 
ATOM     10  C   UNL     1       3.029  -3.481   1.072  0.00  0.00    +0.149 A 
ATOM     11  C   UNL     1       3.709  -3.268   2.280  0.00  0.00    +0.046 A 
ATOM     12  C   UNL     1       4.292  -2.031   2.587  0.00  0.00    +0.010 A 
ATOM     13  C   UNL     1       4.197  -0.972   1.686  0.00  0.00    +0.084 A 
BRANCH   8  15
ATOM     14  O   UNL     1       4.006   0.981  -0.235  0.00  0.00    -0.576 OA
ATOM     15  N   UNL     1       3.414  -0.073  -0.490  0.00  0.00    +0.080 N 
ATOM     16  O   UNL     1       2.727  -0.261  -1.505  0.00  0.00    +0.041 OA
ENDBRANCH   8  15
ENDBRANCH   1  10
BRANCH   4  17
ATOM     17  C   UNL     1      -0.086  -8.053  -1.247  0.00  0.00    +0.013 A 
ATOM     18  C   UNL     1       0.218  -9.033  -0.292  0.00  0.00    +0.016 A 
ATOM     19  C   UNL     1      -0.311 -10.333  -0.401  0.00  0.00    -0.025 A 
ATOM     20  C   UNL     1      -1.101 -10.656  -1.512  0.00  0.00    +0.005 A 
ATOM     21  C   UNL     1      -1.355  -9.703  -2.497  0.00  0.00    +0.001 A 
ATOM     22  C   UNL     1      -0.854  -8.407  -2.364  0.00  0.00    +0.011 A 
BRANCH  19  23
ATOM     23  C   UNL     1      -0.116 -11.339   0.709  0.00  0.00    +0.180 C 
BRANCH  23  24
ATOM     24  N   UNL     1      -1.142 -11.200   1.728  0.00  0.00    -0.248 N 
ATOM     25  N   UNL     1      -2.045 -12.178   1.952  0.00  0.00    -0.158 NA
ATOM     26  C   UNL     1      -2.757 -11.652   2.953  0.00  0.00    +0.245 A 
ATOM     27  N   UNL     1      -2.351 -10.418   3.374  0.00  0.00    -0.223 NA
ATOM     28  C   UNL     1      -1.329 -10.162   2.590  0.00  0.00    +0.219 A 
ENDBRANCH  23  24
ENDBRANCH  19  23
ENDBRANCH   4  17
TORSDOF 5
