REMARK  Name = 
REMARK  4 active torsions:
REMARK  status: ('A' for Active; 'I' for Inactive)
REMARK    1  A    between atoms: C_2  and  C_3
REMARK    2  A    between atoms: N_5  and  C_9
REMARK    3  A    between atoms: N_15  and  C_16
REMARK    4  A    between atoms: C_17  and  C_18
REMARK                            x       y       z     vdW  Elec       q    Type
REMARK                         _______ _______ _______ _____ _____    ______ ____
ROOT
ATOM      1  C   UNL     1       1.383  -2.766  -2.134  0.00  0.00    +0.032 A 
ATOM      2  C   UNL     1       0.078  -2.613  -2.634  0.00  0.00    +0.051 A 
ATOM      3  C   UNL     1      -0.660  -3.730  -3.046  0.00  0.00    +0.075 A 
ATOM      4  C   UNL     1      -0.124  -5.019  -2.999  0.00  0.00    +0.090 A 
ATOM      5  N   UNL     1      -0.849  -6.175  -3.325  0.00  0.00    -0.228 NA
ATOM      6  C   UNL     1      -2.117  -6.109  -3.631  0.00  0.00    +0.149 A 
ATOM      7  C   UNL     1      -2.706  -4.799  -3.776  0.00  0.00    +0.106 A 
ATOM      8  C   UNL     1      -3.963  -4.353  -4.116  0.00  0.00    +0.142 A 
ATOM      9  N   UNL     1      -4.030  -2.983  -4.045  0.00  0.00    -0.243 NA
ATOM     10  C   UNL     1      -2.833  -2.598  -3.652  0.00  0.00    +0.204 A 
ATOM     11  N   UNL     1      -2.864  -7.256  -3.771  0.00  0.00    -0.296 N 
ATOM     12  H   UNL     1      -3.581  -7.259  -4.486  0.00  0.00    +0.154 HD
ATOM     13  C   UNL     1       1.160  -5.184  -2.505  0.00  0.00    +0.032 A 
ATOM     14  N   UNL     1      -1.990  -3.662  -3.483  0.00  0.00    -0.294 N 
ATOM     15  C   UNL     1       1.887  -4.077  -2.063  0.00  0.00    +0.025 A 
ENDROOT
BRANCH   1  22
ATOM     16  C   UNL     1       2.081   0.742  -2.195  0.00  0.00    +0.068 C 
ATOM     17  C   UNL     1       1.352   0.714  -3.541  0.00  0.00    +0.025 C 
ATOM     18  N   UNL     1       3.552   0.775  -2.373  0.00  0.00    -0.311 NA
ATOM     19  H   UNL     1       3.796   1.456  -3.088  0.00  0.00    +0.122 HD
ATOM     20  C   UNL     1       4.072  -0.546  -2.771  0.00  0.00    +0.100 C 
ATOM     21  C   UNL     1       3.620  -1.710  -1.865  0.00  0.00    +0.120 C 
ATOM     22  N   UNL     1       2.154  -1.701  -1.715  0.00  0.00    -0.327 N 
ATOM     23  C   UNL     1       1.611  -0.410  -1.268  0.00  0.00    +0.123 C 
ENDBRANCH   1  22
BRANCH  11  24
ATOM     24  C   UNL     1      -2.561  -8.538  -3.248  0.00  0.00    +0.054 A 
ATOM     25  C   UNL     1      -2.857  -9.679  -4.031  0.00  0.00    +0.062 A 
ATOM     26 CL   UNL     1      -3.655  -9.514  -5.562  0.00  0.00    -0.082 Cl
ATOM     27  C   UNL     1      -2.532 -10.971  -3.607  0.00  0.00    +0.022 A 
ATOM     28  C   UNL     1      -1.875 -11.156  -2.397  0.00  0.00    +0.002 A 
ATOM     29  C   UNL     1      -1.576 -10.055  -1.602  0.00  0.00    +0.005 A 
ATOM     30  C   UNL     1      -1.941  -8.750  -1.992  0.00  0.00    -0.028 A 
ATOM     31  C   UNL     1      -1.658  -7.663  -0.985  0.00  0.00    +0.046 C 
ENDBRANCH  11  24
TORSDOF 2
