REMARK  Name = 
REMARK  2 active torsions:
REMARK  status: ('A' for Active; 'I' for Inactive)
REMARK    1  A    between atoms: N_1  and  C_2
REMARK    2  A    between atoms: N_10  and  C_11
REMARK                            x       y       z     vdW  Elec       q    Type
REMARK                         _______ _______ _______ _____ _____    ______ ____
ROOT
ATOM      1  C   UNL     1       2.527  -0.298  -0.041  0.00  0.00    +0.038 A 
ATOM      2  C   UNL     1       3.311  -1.444  -0.027  0.00  0.00    +0.070 A 
ATOM      3  C   UNL     1       2.944  -2.864  -0.056  0.00  0.00    +0.256 C 
ATOM      4  N   UNL     1       4.112  -3.576  -0.019  0.00  0.00    -0.222 N 
ATOM      5  C   UNL     1       5.200  -2.749   0.013  0.00  0.00    +0.255 C 
ATOM      6  O   UNL     1       6.381  -3.041   0.033  0.00  0.00    -0.270 OA
ATOM      7  O   UNL     1       1.803  -3.283  -0.146  0.00  0.00    -0.269 OA
ATOM      8  C   UNL     1       4.695  -1.381  -0.012  0.00  0.00    +0.051 A 
ATOM      9  C   UNL     1       5.386  -0.186  -0.013  0.00  0.00    +0.014 A 
ATOM     10  C   UNL     1       4.626   0.983  -0.002  0.00  0.00    +0.003 A 
ATOM     11  C   UNL     1       3.215   0.923   0.009  0.00  0.00    +0.023 A 
ENDROOT
BRANCH   4  12
ATOM     12  C   UNL     1       4.230  -5.023   0.039  0.00  0.00    +0.171 C 
ATOM     13  C   UNL     1       3.819  -5.565   1.409  0.00  0.00    +0.240 C 
ATOM     14  O   UNL     1       3.635  -4.870   2.405  0.00  0.00    -0.273 OA
ATOM     15  N   UNL     1       3.708  -6.939   1.475  0.00  0.00    -0.255 N 
ATOM     16  H   UNL     1       3.482  -7.320   2.385  0.00  0.00    +0.158 HD
ATOM     17  C   UNL     1       3.588  -7.814   0.423  0.00  0.00    +0.219 C 
ATOM     18  O   UNL     1       3.339  -9.001   0.612  0.00  0.00    -0.275 OA
ATOM     19  C   UNL     1       3.827  -7.250  -0.963  0.00  0.00    +0.098 C 
ATOM     20  C   UNL     1       3.460  -5.773  -1.042  0.00  0.00    +0.041 C 
ENDBRANCH   4  12
BRANCH   1  21
ATOM     21  N   UNL     1       1.143  -0.330   0.131  0.00  0.00    -0.357 N 
ATOM     22  H   UNL     1       0.713  -1.222  -0.122  0.00  0.00    +0.142 HD
ATOM     23  H   UNL     1       0.633   0.473  -0.221  0.00  0.00    +0.142 HD
ENDBRANCH   1  21
TORSDOF 2
