REMARK  Name = 
REMARK  11 active torsions:
REMARK  status: ('A' for Active; 'I' for Inactive)
REMARK    1  A    between atoms: O_1  and  C_2
REMARK    2  A    between atoms: C_2  and  C_4
REMARK    3  A    between atoms: C_4  and  N_5
REMARK    4  A    between atoms: C_6  and  C_8
REMARK    5  A    between atoms: C_8  and  C_9
REMARK    6  A    between atoms: C_9  and  C_10
REMARK    7  A    between atoms: C_10  and  P_11
REMARK    8  A    between atoms: P_11  and  O_12
REMARK    9  A    between atoms: P_11  and  O_14
REMARK   10  A    between atoms: O_14  and  C_15
REMARK   11  A    between atoms: C_18  and  N_21
REMARK                            x       y       z     vdW  Elec       q    Type
REMARK                         _______ _______ _______ _____ _____    ______ ____
ROOT
ATOM      1  P   UNL     1      10.320  -3.641  -2.559  0.00  0.00    +0.379 P 
ATOM      2  O   UNL     1      10.383  -2.232  -1.963  0.00  0.00    -0.244 OA
ENDROOT
BRANCH   1   3
ATOM      3  O   UNL     1       9.176  -4.036  -1.323  0.00  0.00    -0.315 OA
ATOM      4  H   UNL     1       9.593  -3.866  -0.455  0.00  0.00    +0.221 HD
ENDBRANCH   1   3
BRANCH   1   5
ATOM      5  C   UNL     1       8.939  -3.683  -3.844  0.00  0.00    +0.141 C 
BRANCH   5   6
ATOM      6  C   UNL     1       8.878  -5.007  -4.611  0.00  0.00    +0.022 C 
BRANCH   6   7
ATOM      7  C   UNL     1       8.603  -6.203  -3.704  0.00  0.00    +0.096 C 
BRANCH   7  10
ATOM      8  N   UNL     1       7.337  -7.756  -5.097  0.00  0.00    -0.305 N 
ATOM      9  H   UNL     1       6.524  -7.208  -4.841  0.00  0.00    +0.149 HD
ATOM     10  C   UNL     1       8.533  -7.498  -4.485  0.00  0.00    +0.213 C 
ATOM     11  O   UNL     1       9.464  -8.300  -4.535  0.00  0.00    -0.276 OA
BRANCH   8  12
ATOM     12  C   UNL     1       7.115  -8.971  -5.873  0.00  0.00    +0.224 C 
BRANCH  12  13
ATOM     13  C   UNL     1       6.855 -10.194  -4.999  0.00  0.00    +0.322 C 
ATOM     14  O   UNL     1       5.880 -10.923  -5.121  0.00  0.00    -0.249 OA
BRANCH  13  15
ATOM     15  O   UNL     1       7.846 -10.452  -4.111  0.00  0.00    -0.480 OA
ATOM     16  H   UNL     1       8.609  -9.833  -4.207  0.00  0.00    +0.295 HD
ENDBRANCH  13  15
ENDBRANCH  12  13
ENDBRANCH   8  12
ENDBRANCH   7  10
ENDBRANCH   6   7
ENDBRANCH   5   6
ENDBRANCH   1   5
BRANCH   1  17
ATOM     17  O   UNL     1      11.463  -3.246  -3.795  0.00  0.00    -0.424 OA
BRANCH  17  18
ATOM     18  C   UNL     1      12.806  -3.258  -3.496  0.00  0.00    +0.130 A 
ATOM     19  C   UNL     1      13.673  -2.862  -4.517  0.00  0.00    +0.053 A 
ATOM     20  C   UNL     1      15.054  -2.811  -4.293  0.00  0.00    +0.088 A 
ATOM     21  C   UNL     1      15.563  -3.163  -3.037  0.00  0.00    +0.273 A 
ATOM     22  C   UNL     1      14.700  -3.574  -2.014  0.00  0.00    +0.088 A 
ATOM     23  C   UNL     1      13.321  -3.620  -2.248  0.00  0.00    +0.053 A 
BRANCH  21  24
ATOM     24  N   UNL     1      17.006  -3.093  -2.782  0.00  0.00    +0.080 N 
ATOM     25  O   UNL     1      17.740  -2.724  -3.710  0.00  0.00    +0.041 OA
ATOM     26  O   UNL     1      17.409  -3.411  -1.651  0.00  0.00    -0.576 OA
ENDBRANCH  21  24
ENDBRANCH  17  18
ENDBRANCH   1  17
TORSDOF 11
