REMARK  Name = 
REMARK  5 active torsions:
REMARK  status: ('A' for Active; 'I' for Inactive)
REMARK    1  A    between atoms: C_2  and  C_25
REMARK    2  A    between atoms: C_6  and  C_7
REMARK    3  A    between atoms: C_8  and  S_15
REMARK    4  A    between atoms: S_15  and  N_18
REMARK    5  A    between atoms: N_21  and  C_22
REMARK                            x       y       z     vdW  Elec       q    Type
REMARK                         _______ _______ _______ _____ _____    ______ ____
ROOT
ATOM      1  C   UNL     1       2.085   0.043   0.064  0.00  0.00    +0.163 C 
ATOM      2  N   UNL     1       2.475  -1.107   0.851  0.00  0.00    -0.170 NA
ATOM      3  H   UNL     1       2.219  -1.038   1.834  0.00  0.00    +0.150 HD
ATOM      4  S   UNL     1       4.095  -1.479   0.683  0.00  0.00    +0.062 S 
ATOM      5  O   UNL     1       4.334  -1.868  -0.688  0.00  0.00    -0.153 OA
ATOM      6  O   UNL     1       4.442  -2.323   1.802  0.00  0.00    -0.153 OA
ATOM      7  C   UNL     1       4.856   0.089   0.917  0.00  0.00    +0.128 A 
ATOM      8  C   UNL     1       4.063   1.234   0.844  0.00  0.00    +0.055 A 
ATOM      9  C   UNL     1       4.705   2.460   1.064  0.00  0.00    +0.030 A 
ATOM     10  C   UNL     1       6.095   2.559   1.325  0.00  0.00    -0.022 A 
ATOM     11  C   UNL     1       6.851   1.375   1.428  0.00  0.00    +0.110 A 
ATOM     12  C   UNL     1       6.671   3.941   1.471  0.00  0.00    +0.046 C 
ATOM     13  C   UNL     1       6.225   0.140   1.214  0.00  0.00    +0.059 A 
ATOM     14  N   UNL     1       2.661   1.200   0.729  0.00  0.00    -0.326 N 
ATOM     15  H   UNL     1       2.292   2.083   0.389  0.00  0.00    +0.148 HD
ENDROOT
BRANCH   1  16
ATOM     16  C   UNL     1       0.536   0.109   0.050  0.00  0.00    +0.025 C 
ATOM     17  C   UNL     1      -0.035   1.281  -0.765  0.00  0.00    +0.007 C 
ATOM     18  C   UNL     1      -0.336   0.748  -2.167  0.00  0.00    +0.000 C 
ATOM     19  C   UNL     1      -0.022  -0.740  -2.136  0.00  0.00    +0.000 C 
ATOM     20  C   UNL     1      -0.084  -1.106  -0.661  0.00  0.00    +0.007 C 
ENDBRANCH   1  16
BRANCH  11  21
ATOM     21  S   UNL     1       8.528   1.332   2.080  0.00  0.00    +0.061 S 
ATOM     22  O   UNL     1       8.716   0.017   2.659  0.00  0.00    -0.153 OA
ATOM     23  O   UNL     1       8.741   2.513   2.885  0.00  0.00    -0.153 OA
BRANCH  21  24
ATOM     24  N   UNL     1       9.518   1.435   0.738  0.00  0.00    -0.174 NA
ATOM     25  C   UNL     1       9.868   0.245  -0.055  0.00  0.00    +0.125 C 
ATOM     26  C   UNL     1      11.387   0.282  -0.325  0.00  0.00    +0.101 C 
ATOM     27  N   UNL     1      11.840   1.494  -1.044  0.00  0.00    -0.303 NA
ATOM     28  C   UNL     1      11.384   1.498  -2.431  0.00  0.00    +0.105 C 
ATOM     29  C   UNL     1      11.386   2.698  -0.309  0.00  0.00    +0.101 C 
ATOM     30  C   UNL     1       9.891   2.720   0.112  0.00  0.00    +0.125 C 
ENDBRANCH  21  24
ENDBRANCH  11  21
TORSDOF 3
