REMARK  Name = 
REMARK  4 active torsions:
REMARK  status: ('A' for Active; 'I' for Inactive)
REMARK    1  A    between atoms: C_2  and  C_16
REMARK    2  A    between atoms: N_5  and  C_6
REMARK    3  A    between atoms: C_16  and  C_17
REMARK    4  A    between atoms: C_16  and  C_18
REMARK                            x       y       z     vdW  Elec       q    Type
REMARK                         _______ _______ _______ _____ _____    ______ ____
ROOT
ATOM      1  C   UNL     1       2.176  -0.042   0.103  0.00  0.00    +0.144 C 
ATOM      2  C   UNL     1       2.747   1.118  -0.707  0.00  0.00    +0.252 C 
ATOM      3  O   UNL     1       2.885   2.244  -0.244  0.00  0.00    -0.272 OA
ATOM      4  N   UNL     1       3.020   0.795  -2.013  0.00  0.00    -0.158 NA
ATOM      5  C   UNL     1       3.093  -0.474  -2.213  0.00  0.00    +0.151 C 
ATOM      6  N   UNL     1       3.300  -1.148  -3.377  0.00  0.00    -0.294 N 
ATOM      7  H   UNL     1       3.449  -2.149  -3.309  0.00  0.00    +0.154 HD
ATOM      8  S   UNL     1       2.866  -1.484  -0.800  0.00  0.00    -0.080 S 
ENDROOT
BRANCH   6   9
ATOM      9  C   UNL     1       2.989  -0.707  -4.680  0.00  0.00    +0.068 A 
ATOM     10  C   UNL     1       2.397   0.532  -4.957  0.00  0.00    +0.026 A 
ATOM     11  C   UNL     1       2.136   0.934  -6.271  0.00  0.00    +0.002 A 
ATOM     12  C   UNL     1       2.481   0.110  -7.339  0.00  0.00    +0.003 A 
ATOM     13  C   UNL     1       3.082  -1.120  -7.091  0.00  0.00    +0.040 A 
ATOM     14  C   UNL     1       3.332  -1.514  -5.777  0.00  0.00    +0.144 A 
ATOM     15  F   UNL     1       3.903  -2.709  -5.558  0.00  0.00    -0.204 F 
ENDBRANCH   6   9
BRANCH   1  16
ATOM     16  C   UNL     1       0.630  -0.012   0.094  0.00  0.00    +0.005 C 
ATOM     17  C   UNL     1       0.008  -1.274   0.702  0.00  0.00    +0.009 C 
ATOM     18  C   UNL     1       0.091   1.208   0.856  0.00  0.00    +0.009 C 
ENDBRANCH   1  16
TORSDOF 2
