REMARK  Name = 
REMARK  2 active torsions:
REMARK  status: ('A' for Active; 'I' for Inactive)
REMARK    1  A    between atoms: C_2  and  C_4
REMARK    2  A    between atoms: C_9  and  O_10
REMARK                            x       y       z     vdW  Elec       q    Type
REMARK                         _______ _______ _______ _____ _____    ______ ____
ROOT
ATOM      1  C   UNL     1       3.196  -1.052   0.593  0.00  0.00    +0.078 A 
ATOM      2  C   UNL     1       2.708  -2.361   0.455  0.00  0.00    +0.129 A 
ATOM      3  C   UNL     1       3.412  -3.442   0.999  0.00  0.00    +0.046 A 
ATOM      4  C   UNL     1       4.612  -3.226   1.677  0.00  0.00    +0.004 A 
ATOM      5  C   UNL     1       5.111  -1.933   1.816  0.00  0.00    +0.001 A 
ATOM      6  C   UNL     1       4.406  -0.853   1.280  0.00  0.00    +0.017 A 
ENDROOT
BRANCH   1  10
ATOM      7  N   UNL     1       1.359  -0.002  -0.639  0.00  0.00    -0.325 N 
ATOM      8  H   UNL     1       0.962  -0.927  -0.768  0.00  0.00    +0.145 HD
ATOM      9  H   UNL     1       0.884   0.809  -1.004  0.00  0.00    +0.145 HD
ATOM     10  C   UNL     1       2.520   0.167   0.054  0.00  0.00    +0.245 C 
ATOM     11  O   UNL     1       2.983   1.291   0.221  0.00  0.00    -0.270 OA
ENDBRANCH   1  10
BRANCH   2  12
ATOM     12  O   UNL     1       1.539  -2.616  -0.215  0.00  0.00    -0.506 OA
ATOM     13  H   UNL     1       1.404  -3.579  -0.252  0.00  0.00    +0.292 HD
ENDBRANCH   2  12
TORSDOF 2
