REMARK  Name = 
REMARK  11 active torsions:
REMARK  status: ('A' for Active; 'I' for Inactive)
REMARK    1  A    between atoms: C_1  and  C_2
REMARK    2  A    between atoms: C_2  and  C_3
REMARK    3  A    between atoms: C_2  and  C_4
REMARK    4  A    between atoms: C_2  and  C_5
REMARK    5  A    between atoms: C_7  and  C_26
REMARK    6  A    between atoms: C_8  and  O_9
REMARK    7  A    between atoms: C_11  and  N_12
REMARK    8  A    between atoms: C_13  and  C_15
REMARK    9  A    between atoms: C_26  and  C_27
REMARK   10  A    between atoms: C_26  and  C_28
REMARK   11  A    between atoms: C_26  and  C_29
REMARK                            x       y       z     vdW  Elec       q    Type
REMARK                         _______ _______ _______ _____ _____    ______ ____
ROOT
ATOM      1  C   UNL     1       2.985  -1.172   0.522  0.00  0.00    -0.020 A 
ATOM      2  C   UNL     1       2.356  -2.370   0.135  0.00  0.00    +0.041 A 
ATOM      3  C   UNL     1       2.790  -3.565   0.739  0.00  0.00    +0.069 A 
ATOM      4  C   UNL     1       3.840  -3.628   1.666  0.00  0.00    +0.122 A 
ATOM      5  C   UNL     1       4.521  -2.484   2.070  0.00  0.00    -0.000 A 
ATOM      6  C   UNL     1       4.030  -1.288   1.505  0.00  0.00    +0.013 A 
ENDROOT
BRANCH   1   8
ATOM      7  C   UNL     1       3.974   0.977  -0.402  0.00  0.00    +0.015 C 
ATOM      8  C   UNL     1       2.668   0.291   0.097  0.00  0.00    -0.011 C 
ATOM      9  C   UNL     1       1.666   0.568  -1.038  0.00  0.00    +0.015 C 
ATOM     10  C   UNL     1       2.074   1.025   1.329  0.00  0.00    +0.015 C 
ENDBRANCH   1   8
BRANCH   2  11
ATOM     11  N   UNL     1       1.317  -2.420  -0.834  0.00  0.00    -0.281 N 
ATOM     12  H   UNL     1       1.170  -1.598  -1.404  0.00  0.00    +0.155 HD
ATOM     13  C   UNL     1       0.451  -3.469  -1.087  0.00  0.00    +0.253 C 
ATOM     14  O   UNL     1       0.440  -4.557  -0.518  0.00  0.00    -0.270 OA
BRANCH  13  15
ATOM     15  C   UNL     1      -0.626  -3.174  -2.076  0.00  0.00    +0.100 A 
ATOM     16  C   UNL     1      -0.825  -1.882  -2.783  0.00  0.00    +0.201 A 
ATOM     17  O   UNL     1       0.088  -1.068  -2.905  0.00  0.00    -0.286 OA
ATOM     18  C   UNL     1      -2.186  -1.583  -3.287  0.00  0.00    +0.046 A 
ATOM     19  C   UNL     1      -3.123  -2.632  -3.340  0.00  0.00    +0.050 A 
ATOM     20  C   UNL     1      -4.421  -2.356  -3.759  0.00  0.00    +0.026 A 
ATOM     21  C   UNL     1      -4.793  -1.047  -4.076  0.00  0.00    +0.002 A 
ATOM     22  C   UNL     1      -3.857  -0.012  -4.020  0.00  0.00    +0.001 A 
ATOM     23  N   UNL     1      -2.720  -3.937  -3.012  0.00  0.00    -0.360 N 
ATOM     24  H   UNL     1      -3.456  -4.621  -2.865  0.00  0.00    +0.165 HD
ATOM     25  C   UNL     1      -2.543  -0.278  -3.637  0.00  0.00    +0.014 A 
ATOM     26  C   UNL     1      -1.570  -4.110  -2.278  0.00  0.00    +0.100 A 
ENDBRANCH  13  15
ENDBRANCH   2  11
BRANCH   5  27
ATOM     27  C   UNL     1       5.740  -2.463   3.020  0.00  0.00    -0.009 C 
ATOM     28  C   UNL     1       6.906  -3.276   2.409  0.00  0.00    +0.015 C 
ATOM     29  C   UNL     1       5.379  -3.012   4.418  0.00  0.00    +0.015 C 
ATOM     30  C   UNL     1       6.322  -1.042   3.267  0.00  0.00    +0.015 C 
ENDBRANCH   5  27
BRANCH   4  31
ATOM     31  O   UNL     1       4.108  -4.897   2.095  0.00  0.00    -0.506 OA
ATOM     32  H   UNL     1       4.863  -4.900   2.694  0.00  0.00    +0.292 HD
ENDBRANCH   4  31
TORSDOF 5
