REMARK  Name = 
REMARK  11 active torsions:
REMARK  status: ('A' for Active; 'I' for Inactive)
REMARK    1  A    between atoms: C_1  and  N_2
REMARK    2  A    between atoms: N_2  and  C_3
REMARK    3  A    between atoms: N_2  and  C_10
REMARK    4  A    between atoms: C_3  and  C_4
REMARK    5  A    between atoms: C_4  and  C_5
REMARK    6  A    between atoms: C_5  and  C_6
REMARK    7  A    between atoms: C_6  and  C_7
REMARK    8  A    between atoms: C_7  and  O_8
REMARK    9  A    between atoms: C_13  and  C_14
REMARK   10  A    between atoms: C_15  and  C_16
REMARK   11  A    between atoms: C_19  and  N_22
REMARK                            x       y       z     vdW  Elec       q    Type
REMARK                         _______ _______ _______ _____ _____    ______ ____
ROOT
ATOM      1  C   UNL     1       3.038   0.622   1.096  0.00  0.00    +0.029 A 
ATOM      2  C   UNL     1       3.994   0.065   1.961  0.00  0.00    +0.024 A 
ATOM      3  C   UNL     1       4.729   0.839   2.874  0.00  0.00    +0.010 A 
ATOM      4  C   UNL     1       4.517   2.212   2.973  0.00  0.00    -0.025 A 
ATOM      5  C   UNL     1       3.557   2.788   2.143  0.00  0.00    +0.010 A 
ATOM      6  C   UNL     1       2.830   2.005   1.234  0.00  0.00    +0.024 A 
ENDROOT
BRANCH   1   8
ATOM      7  C   UNL     1       1.321   0.476  -0.679  0.00  0.00    +0.129 C 
ATOM      8  N   UNL     1       2.343  -0.140   0.163  0.00  0.00    -0.333 N 
BRANCH   8   9
ATOM      9  C   UNL     1       2.741  -1.511  -0.177  0.00  0.00    +0.105 C 
BRANCH   9  10
ATOM     10  C   UNL     1       1.922  -2.513   0.642  0.00  0.00    +0.019 C 
BRANCH  10  11
ATOM     11  C   UNL     1       2.388  -3.952   0.415  0.00  0.00    +0.013 C 
BRANCH  11  12
ATOM     12  C   UNL     1       1.529  -4.937   1.208  0.00  0.00    +0.120 C 
BRANCH  12  13
ATOM     13  C   UNL     1       1.963  -6.371   1.002  0.00  0.00    +0.305 C 
ATOM     14  O   UNL     1       2.889  -6.734   0.296  0.00  0.00    -0.251 OA
BRANCH  13  15
ATOM     15  O   UNL     1       1.197  -7.239   1.702  0.00  0.00    -0.481 OA
ATOM     16  H   UNL     1       0.492  -6.813   2.226  0.00  0.00    +0.295 HD
ENDBRANCH  13  15
ENDBRANCH  12  13
ENDBRANCH  11  12
ENDBRANCH  10  11
ENDBRANCH   9  10
ENDBRANCH   8   9
ENDBRANCH   1   8
BRANCH   4  17
ATOM     17  C   UNL     1       5.320   3.084   3.838  0.00  0.00    +0.008 C 
ATOM     18  C   UNL     1       5.818   2.738   5.037  0.00  0.00    +0.008 C 
BRANCH  18  19
ATOM     19  C   UNL     1       6.659   3.634   5.847  0.00  0.00    -0.025 A 
ATOM     20  C   UNL     1       7.650   3.076   6.667  0.00  0.00    +0.014 A 
ATOM     21  C   UNL     1       8.495   3.894   7.426  0.00  0.00    +0.085 A 
ATOM     22  C   UNL     1       8.340   5.284   7.371  0.00  0.00    +0.273 A 
ATOM     23  C   UNL     1       7.332   5.855   6.587  0.00  0.00    +0.085 A 
ATOM     24  C   UNL     1       6.491   5.027   5.839  0.00  0.00    +0.014 A 
BRANCH  22  25
ATOM     25  N   UNL     1       9.246   6.152   8.132  0.00  0.00    +0.080 N 
ATOM     26  O   UNL     1      10.118   5.608   8.825  0.00  0.00    +0.041 OA
ATOM     27  O   UNL     1       9.090   7.377   8.033  0.00  0.00    -0.576 OA
ENDBRANCH  22  25
ENDBRANCH  18  19
ENDBRANCH   4  17
TORSDOF 10
