REMARK  Name = 
REMARK  7 active torsions:
REMARK  status: ('A' for Active; 'I' for Inactive)
REMARK    1  A    between atoms: C_1  and  C_2
REMARK    2  A    between atoms: C_2  and  N_3
REMARK    3  A    between atoms: N_3  and  C_4
REMARK    4  A    between atoms: C_4  and  C_5
REMARK    5  A    between atoms: C_5  and  O_6
REMARK    6  A    between atoms: C_5  and  C_7
REMARK    7  A    between atoms: C_9  and  O_10
REMARK                            x       y       z     vdW  Elec       q    Type
REMARK                         _______ _______ _______ _____ _____    ______ ____
ROOT
ATOM      1  C   UNL     1       5.108  -1.495  -2.277  0.00  0.00    +0.158 C 
ENDROOT
BRANCH   1   2
ATOM      2  C   UNL     1       6.626  -1.442  -2.329  0.00  0.00    -0.014 A 
ATOM      3  C   UNL     1       7.313  -0.215  -2.360  0.00  0.00    +0.006 A 
ATOM      4  C   UNL     1       8.709  -0.179  -2.399  0.00  0.00    +0.004 A 
ATOM      5  C   UNL     1       9.437  -1.363  -2.402  0.00  0.00    +0.045 A 
ATOM      6  C   UNL     1       8.767  -2.580  -2.367  0.00  0.00    +0.117 A 
ATOM      7  C   UNL     1       7.374  -2.631  -2.334  0.00  0.00    +0.051 A 
BRANCH   6   8
ATOM      8  O   UNL     1       9.523  -3.715  -2.362  0.00  0.00    -0.507 OA
ATOM      9  H   UNL     1       8.932  -4.485  -2.329  0.00  0.00    +0.292 HD
ENDBRANCH   6   8
ENDBRANCH   1   2
BRANCH   1  10
ATOM     10  O   UNL     1       4.539  -0.872  -3.438  0.00  0.00    -0.386 OA
ATOM     11  H   UNL     1       5.240  -0.376  -3.891  0.00  0.00    +0.210 HD
ENDBRANCH   1  10
BRANCH   1  12
ATOM     12  C   UNL     1       4.544  -0.801  -1.013  0.00  0.00    +0.117 C 
BRANCH  12  13
ATOM     13  N   UNL     1       3.079  -0.931  -0.941  0.00  0.00    -0.313 NA
ATOM     14  H   UNL     1       2.688  -0.588  -1.823  0.00  0.00    +0.122 HD
BRANCH  13  16
ATOM     15  C   UNL     1       1.025  -0.279   0.211  0.00  0.00    +0.020 C 
ATOM     16  C   UNL     1       2.542  -0.178   0.188  0.00  0.00    +0.077 C 
ENDBRANCH  13  16
ENDBRANCH  12  13
ENDBRANCH   1  12
TORSDOF 6
