REMARK  Name = 
REMARK  5 active torsions:
REMARK  status: ('A' for Active; 'I' for Inactive)
REMARK    1  A    between atoms: C_1  and  C_2
REMARK    2  A    between atoms: C_3  and  C_4
REMARK    3  A    between atoms: C_4  and  C_5
REMARK    4  A    between atoms: C_5  and  N_6
REMARK    5  A    between atoms: C_7  and  C_9
REMARK                            x       y       z     vdW  Elec       q    Type
REMARK                         _______ _______ _______ _____ _____    ______ ____
ROOT
ATOM      1  C   UNL     1       1.011   0.205  -0.060  0.00  0.00    +0.063 C 
ATOM      2  C   UNL     1       2.492   0.076  -0.050  0.00  0.00    +0.017 A 
ATOM      3  N   UNL     1       3.294   1.189  -0.052  0.00  0.00    -0.358 N 
ATOM      4  H   UNL     1       2.963   2.144  -0.058  0.00  0.00    +0.166 HD
ATOM      5  C   UNL     1       4.621   0.831  -0.053  0.00  0.00    +0.047 A 
ATOM      6  C   UNL     1       4.668  -0.562  -0.048  0.00  0.00    +0.003 A 
ATOM      7  C   UNL     1       5.935  -1.185  -0.049  0.00  0.00    +0.010 A 
ATOM      8  C   UNL     1       7.094  -0.397  -0.054  0.00  0.00    +0.001 A 
ATOM      9  C   UNL     1       7.009   0.993  -0.058  0.00  0.00    +0.002 A 
ATOM     10  C   UNL     1       5.768   1.634  -0.058  0.00  0.00    +0.026 A 
ATOM     11  C   UNL     1       3.316  -1.040  -0.045  0.00  0.00    -0.018 A 
ENDROOT
BRANCH  11  12
ATOM     12  C   UNL     1       2.869  -2.472  -0.053  0.00  0.00    +0.056 C 
BRANCH  12  13
ATOM     13  C   UNL     1       2.672  -3.001  -1.475  0.00  0.00    +0.109 C 
BRANCH  13  14
ATOM     14  N   UNL     1       2.144  -4.353  -1.499  0.00  0.00    -0.311 N 
ATOM     15  H   UNL     1       2.784  -5.136  -1.511  0.00  0.00    +0.149 HD
ATOM     16  C   UNL     1       0.789  -4.618  -1.488  0.00  0.00    +0.251 C 
ATOM     17  O   UNL     1      -0.041  -3.713  -1.434  0.00  0.00    -0.270 OA
BRANCH  16  18
ATOM     18  C   UNL     1       0.411  -6.026  -1.550  0.00  0.00    +0.074 A 
ATOM     19  S   UNL     1       1.567  -7.293  -1.588  0.00  0.00    -0.092 S 
ATOM     20  C   UNL     1       0.354  -8.497  -1.657  0.00  0.00    +0.046 A 
ATOM     21  C   UNL     1      -0.911  -7.954  -1.652  0.00  0.00    +0.008 A 
ATOM     22  C   UNL     1      -0.877  -6.532  -1.591  0.00  0.00    +0.021 A 
ENDBRANCH  16  18
ENDBRANCH  13  14
ENDBRANCH  12  13
ENDBRANCH  11  12
TORSDOF 4
