REMARK  Name = 
REMARK  11 active torsions:
REMARK  status: ('A' for Active; 'I' for Inactive)
REMARK    1  A    between atoms: C_1  and  O_2
REMARK    2  A    between atoms: O_2  and  C_3
REMARK    3  A    between atoms: C_6  and  S_9
REMARK    4  A    between atoms: S_9  and  N_12
REMARK    5  A    between atoms: N_12  and  C_13
REMARK    6  A    between atoms: N_12  and  C_17
REMARK    7  A    between atoms: C_13  and  C_14
REMARK    8  A    between atoms: C_14  and  C_15
REMARK    9  A    between atoms: C_14  and  C_16
REMARK   10  A    between atoms: C_17  and  C_18
REMARK   11  A    between atoms: N_20  and  O_21
REMARK                            x       y       z     vdW  Elec       q    Type
REMARK                         _______ _______ _______ _____ _____    ______ ____
ROOT
ATOM      1  N   UNL     1       4.205  -6.299  -0.927  0.00  0.00    -0.167 NA
ENDROOT
BRANCH   1   2
ATOM      2  S   UNL     1       5.425  -5.093  -1.103  0.00  0.00    +0.061 S 
ATOM      3  O   UNL     1       6.395  -5.294  -0.048  0.00  0.00    -0.153 OA
ATOM      4  O   UNL     1       5.860  -5.182  -2.485  0.00  0.00    -0.153 OA
BRANCH   2   8
ATOM      5  C   UNL     1       4.434  -0.699  -0.524  0.00  0.00    +0.120 A 
ATOM      6  C   UNL     1       4.427  -1.253  -1.804  0.00  0.00    +0.047 A 
ATOM      7  C   UNL     1       4.577  -2.635  -1.971  0.00  0.00    +0.032 A 
ATOM      8  C   UNL     1       4.728  -3.470  -0.859  0.00  0.00    +0.106 A 
ATOM      9  C   UNL     1       4.670  -2.925   0.430  0.00  0.00    +0.032 A 
ATOM     10  C   UNL     1       4.502  -1.538   0.592  0.00  0.00    +0.047 A 
BRANCH   5  12
ATOM     11  C   UNL     1       5.083   1.468  -1.187  0.00  0.00    +0.277 C 
ATOM     12  O   UNL     1       4.368   0.643  -0.265  0.00  0.00    -0.495 OA
ENDBRANCH   5  12
ENDBRANCH   2   8
ENDBRANCH   1   2
BRANCH   1  13
ATOM     13  C   UNL     1       4.833  -7.654  -1.179  0.00  0.00    +0.207 C 
BRANCH  13  14
ATOM     14  C   UNL     1       5.966  -8.080  -0.267  0.00  0.00    +0.251 C 
ATOM     15  N   UNL     1       7.170  -8.290  -0.912  0.00  0.00    -0.196 N 
ATOM     16  H   UNL     1       7.436  -7.719  -1.711  0.00  0.00    +0.182 HD
ATOM     17  O   UNL     1       5.823  -8.304   0.935  0.00  0.00    -0.272 OA
BRANCH  15  18
ATOM     18  O   UNL     1       8.238  -8.663  -0.057  0.00  0.00    -0.295 OA
ATOM     19  H   UNL     1       7.816  -8.642   0.831  0.00  0.00    +0.241 HD
ENDBRANCH  15  18
ENDBRANCH  13  14
ENDBRANCH   1  13
BRANCH   1  20
ATOM     20  C   UNL     1       2.970  -6.105  -1.769  0.00  0.00    +0.113 C 
BRANCH  20  21
ATOM     21  C   UNL     1       1.901  -7.212  -1.554  0.00  0.00    -0.001 C 
ATOM     22  C   UNL     1       0.681  -6.998  -2.454  0.00  0.00    +0.008 C 
ATOM     23  C   UNL     1       1.451  -7.323  -0.097  0.00  0.00    +0.008 C 
ENDBRANCH  20  21
ENDBRANCH   1  20
TORSDOF 8
