REMARK  Name = 
REMARK  8 active torsions:
REMARK  status: ('A' for Active; 'I' for Inactive)
REMARK    1  A    between atoms: C_24  and  C_26
REMARK    2  A    between atoms: C_58  and  C_60
REMARK    3  A    between atoms: C_60  and  C_61
REMARK    4  A    between atoms: C_61  and  O_63
REMARK    5  A    between atoms: C_61  and  C_64
REMARK    6  A    between atoms: C_64  and  N_65
REMARK    7  A    between atoms: C_66  and  O_68
REMARK    8  A    between atoms: O_68  and  C_69
REMARK                            x       y       z     vdW  Elec       q    Type
REMARK                         _______ _______ _______ _____ _____    ______ ____
ROOT
ATOM      1  C   UNL     1      -0.000  -0.000  -0.000  0.00  0.00    +0.181 C 
ATOM      2  C   UNL     1      -0.000  -0.000  -0.000  0.00  0.00    +0.182 C 
ATOM      3  O   UNL     1      -0.000  -0.000  -0.000  0.00  0.00    -0.340 OA
ATOM      4  C   UNL     1      -0.000  -0.000  -0.000  0.00  0.00    +0.174 C 
ATOM      5  O   UNL     1      -0.000  -0.000  -0.000  0.00  0.00    -0.340 OA
ATOM      6  C   UNL     1      -0.000  -0.000  -0.000  0.00  0.00    +0.184 C 
ATOM      7  C   UNL     1      -0.000  -0.000  -0.000  0.00  0.00    +0.179 C 
ATOM      8  O   UNL     1      -0.000  -0.000  -0.000  0.00  0.00    -0.368 OA
ATOM      9  C   UNL     1      -0.000  -0.000  -0.000  0.00  0.00    +0.126 C 
ATOM     10  C   UNL     1      -0.000  -0.000  -0.000  0.00  0.00    +0.106 C 
ATOM     11  C   UNL     1      -0.000  -0.000  -0.000  0.00  0.00    +0.136 C 
ATOM     12  O   UNL     1      -0.000  -0.000  -0.000  0.00  0.00    -0.297 OA
ATOM     13  C   UNL     1      -0.000  -0.000  -0.000  0.00  0.00    +0.083 C 
ATOM     14  C   UNL     1      -0.000  -0.000  -0.000  0.00  0.00    +0.056 C 
ATOM     15  C   UNL     1      -0.000  -0.000  -0.000  0.00  0.00    +0.153 C 
ATOM     16  C   UNL     1      -0.000  -0.000  -0.000  0.00  0.00    +0.150 C 
ATOM     17  O   UNL     1      -0.000  -0.000  -0.000  0.00  0.00    -0.370 OA
ATOM     18  C   UNL     1      -0.000  -0.000  -0.000  0.00  0.00    +0.128 C 
ATOM     19  C   UNL     1      -0.000  -0.000  -0.000  0.00  0.00    +0.068 C 
ATOM     20  C   UNL     1      -0.000  -0.000  -0.000  0.00  0.00    +0.147 C 
ATOM     21  C   UNL     1      -0.000  -0.000  -0.000  0.00  0.00    -0.045 C 
ATOM     22  C   UNL     1      -0.000  -0.000  -0.000  0.00  0.00    +0.010 C 
ATOM     23  C   UNL     1      -0.000  -0.000  -0.000  0.00  0.00    +0.016 C 
ATOM     24  C   UNL     1      -0.000  -0.000  -0.000  0.00  0.00    +0.012 C 
ATOM     25  C   UNL     1      -0.000  -0.000  -0.000  0.00  0.00    +0.039 C 
ATOM     26  C   UNL     1      -0.000  -0.000  -0.000  0.00  0.00    +0.120 C 
ATOM     27  C   UNL     1      -0.000  -0.000  -0.000  0.00  0.00    +0.034 C 
ATOM     28  C   UNL     1      -0.000  -0.000  -0.000  0.00  0.00    +0.038 C 
ATOM     29  C   UNL     1      -0.000  -0.000  -0.000  0.00  0.00    +0.144 C 
ATOM     30  C   UNL     1      -0.000  -0.000  -0.000  0.00  0.00    -0.046 C 
ATOM     31  C   UNL     1      -0.000  -0.000  -0.000  0.00  0.00    +0.010 C 
ATOM     32  C   UNL     1      -0.000  -0.000  -0.000  0.00  0.00    +0.064 C 
ATOM     33  C   UNL     1      -0.000  -0.000  -0.000  0.00  0.00    +0.123 C 
ATOM     34  C   UNL     1      -0.000  -0.000  -0.000  0.00  0.00    +0.037 C 
ATOM     35  O   UNL     1      -0.000  -0.000  -0.000  0.00  0.00    -0.369 OA
ATOM     36  O   UNL     1      -0.000  -0.000  -0.000  0.00  0.00    -0.369 OA
ATOM     37  C   UNL     1      -0.000  -0.000  -0.000  0.00  0.00    +0.034 C 
ATOM     38  C   UNL     1      -0.000  -0.000  -0.000  0.00  0.00    +0.037 C 
ATOM     39  C   UNL     1      -0.000  -0.000  -0.000  0.00  0.00    +0.150 C 
ATOM     40  C   UNL     1      -0.000  -0.000  -0.000  0.00  0.00    +0.099 C 
ATOM     41  C   UNL     1      -0.000  -0.000  -0.000  0.00  0.00    +0.067 C 
ATOM     42  C   UNL     1      -0.000  -0.000  -0.000  0.00  0.00    +0.155 C 
ATOM     43  O   UNL     1      -0.000  -0.000  -0.000  0.00  0.00    -0.365 OA
ATOM     44  C   UNL     1      -0.000  -0.000  -0.000  0.00  0.00    +0.181 C 
ATOM     45  O   UNL     1      -0.000  -0.000  -0.000  0.00  0.00    -0.365 OA
ENDROOT
BRANCH  15  46
ATOM     46  O   UNL     1      -0.000  -0.000  -0.000  0.00  0.00    -0.377 OA
ATOM     47  C   UNL     1      -0.000  -0.000  -0.000  0.00  0.00    +0.194 C 
ENDBRANCH  15  46
BRANCH  16  48
ATOM     48  C   UNL     1      -0.000  -0.000  -0.000  0.00  0.00    +0.066 C 
BRANCH  48  49
ATOM     49  C   UNL     1      -0.000  -0.000  -0.000  0.00  0.00    +0.131 C 
BRANCH  49  50
ATOM     50  O   UNL     1      -0.000  -0.000  -0.000  0.00  0.00    -0.390 OA
ATOM     51  H   UNL     1      -0.000  -0.000  -0.000  0.00  0.00    +0.210 HD
ENDBRANCH  49  50
BRANCH  49  52
ATOM     52  C   UNL     1      -0.000  -0.000  -0.000  0.00  0.00    +0.109 C 
BRANCH  52  53
ATOM     53  N   UNL     1      -0.000  -0.000  -0.000  0.00  0.00    -0.328 NA
ATOM     54  H   UNL     1      -0.000  -0.000  -0.000  0.00  0.00    +0.118 HD
ATOM     55  H   UNL     1      -0.000  -0.000  -0.000  0.00  0.00    +0.118 HD
ENDBRANCH  52  53
ENDBRANCH  49  52
ENDBRANCH  48  49
ENDBRANCH  16  48
TORSDOF 6
