REMARK  Name = 
REMARK  11 active torsions:
REMARK  status: ('A' for Active; 'I' for Inactive)
REMARK    1  A    between atoms: C_1  and  C_2
REMARK    2  A    between atoms: C_2  and  N_3
REMARK    3  A    between atoms: N_3  and  C_4
REMARK    4  A    between atoms: N_3  and  C_6
REMARK    5  A    between atoms: C_4  and  C_5
REMARK    6  A    between atoms: C_6  and  C_7
REMARK    7  A    between atoms: C_7  and  N_8
REMARK    8  A    between atoms: C_9  and  C_11
REMARK    9  A    between atoms: C_12  and  C_13
REMARK   10  A    between atoms: C_15  and  C_16
REMARK   11  A    between atoms: C_28  and  C_29
REMARK                            x       y       z     vdW  Elec       q    Type
REMARK                         _______ _______ _______ _____ _____    ______ ____
ROOT
ATOM      1  C   UNL     1       8.510  -3.863   1.393  0.00  0.00    +0.060 A 
ATOM      2  C   UNL     1       9.344  -5.037   1.368  0.00  0.00    -0.013 A 
ATOM      3  C   UNL     1       8.842  -6.445   1.386  0.00  0.00    +0.047 C 
ATOM      4  C   UNL     1      10.668  -4.620   1.335  0.00  0.00    +0.044 A 
ATOM      5  N   UNL     1      10.660  -3.250   1.322  0.00  0.00    -0.358 N 
ATOM      6  H   UNL     1      11.489  -2.662   1.316  0.00  0.00    +0.166 HD
ATOM      7  C   UNL     1       9.369  -2.769   1.378  0.00  0.00    +0.026 A 
ATOM      8  C   UNL     1       9.143  -1.302   1.469  0.00  0.00    +0.064 C 
ENDROOT
BRANCH   4   9
ATOM      9  C   UNL     1      11.861  -5.387   1.331  0.00  0.00    +0.039 C 
ATOM     10  C   UNL     1      13.144  -5.009   1.330  0.00  0.00    +0.048 C 
ATOM     11  C   UNL     1      14.238  -5.994   1.340  0.00  0.00    +0.010 A 
ATOM     12  C   UNL     1      14.254  -7.380   1.354  0.00  0.00    +0.030 A 
ATOM     13  C   UNL     1      15.495  -8.017   1.356  0.00  0.00    +0.042 A 
ATOM     14  C   UNL     1      16.692  -7.279   1.347  0.00  0.00    +0.022 A 
ATOM     15  C   UNL     1      16.665  -5.880   1.337  0.00  0.00    +0.025 A 
ATOM     16 CL   UNL     1      15.555  -9.738   1.371  0.00  0.00    -0.084 Cl
ATOM     17  C   UNL     1      15.429  -5.266   1.334  0.00  0.00    +0.042 A 
ATOM     18  N   UNL     1      15.161  -3.900   1.325  0.00  0.00    -0.281 N 
ATOM     19  H   UNL     1      15.850  -3.163   1.321  0.00  0.00    +0.155 HD
ATOM     20  C   UNL     1      13.795  -3.649   1.323  0.00  0.00    +0.249 C 
ATOM     21  O   UNL     1      13.252  -2.558   1.317  0.00  0.00    -0.270 OA
ENDBRANCH   4   9
BRANCH   1  24
ATOM     22  N   UNL     1       6.389  -2.825   0.907  0.00  0.00    -0.310 N 
ATOM     23  H   UNL     1       6.878  -2.290   0.199  0.00  0.00    +0.149 HD
ATOM     24  C   UNL     1       7.048  -3.878   1.497  0.00  0.00    +0.246 C 
ATOM     25  O   UNL     1       6.442  -4.797   2.044  0.00  0.00    -0.270 OA
BRANCH  22  26
ATOM     26  C   UNL     1       4.943  -2.798   0.915  0.00  0.00    +0.120 C 
BRANCH  26  27
ATOM     27  C   UNL     1       4.358  -1.554   0.226  0.00  0.00    +0.103 C 
BRANCH  27  28
ATOM     28  N   UNL     1       4.747  -1.383  -1.195  0.00  0.00    -0.301 NA
BRANCH  28  30
ATOM     29  C   UNL     1       4.702  -2.456  -3.485  0.00  0.00    +0.020 C 
ATOM     30  C   UNL     1       4.324  -2.538  -2.009  0.00  0.00    +0.081 C 
ENDBRANCH  28  30
BRANCH  28  31
ATOM     31  C   UNL     1       4.278  -0.085  -1.715  0.00  0.00    +0.081 C 
ATOM     32  C   UNL     1       2.769   0.156  -1.694  0.00  0.00    +0.020 C 
ENDBRANCH  28  31
ENDBRANCH  27  28
ENDBRANCH  26  27
ENDBRANCH  22  26
ENDBRANCH   1  24
TORSDOF 7
