REMARK  Name = 
REMARK  16 active torsions:
REMARK  status: ('A' for Active; 'I' for Inactive)
REMARK    1  A    between atoms: CA_2  and  N_3
REMARK    2  A    between atoms: CA_2  and  C_15
REMARK    3  A    between atoms: CA_2  and  C_18
REMARK    4  A    between atoms: N_3  and  C_4
REMARK    5  A    between atoms: C_5  and  C_6
REMARK    6  A    between atoms: C_15  and  O_16
REMARK    7  A    between atoms: C_18  and  C_19
REMARK    8  A    between atoms: C_18  and  C_20
REMARK    9  A    between atoms: C_18  and  S_33
REMARK   10  A    between atoms: C_20  and  O_21
REMARK   11  A    between atoms: O_21  and  C_22
REMARK   12  A    between atoms: C_22  and  C_24
REMARK   13  A    between atoms: C_24  and  C_25
REMARK   14  A    between atoms: C_27  and  O_28
REMARK   15  A    between atoms: C_29  and  O_30
REMARK   16  A    between atoms: S_33  and  O_34
REMARK                            x       y       z     vdW  Elec       q    Type
REMARK                         _______ _______ _______ _____ _____    ______ ____
ROOT
ATOM      1  C   UNL     1       5.014   0.131  -1.706  0.00  0.00    +0.154 C 
ATOM      2  C   UNL     1       6.178   0.632  -2.578  0.00  0.00    +0.042 C 
ENDROOT
BRANCH   1   3
ATOM      3  S   UNL     1       4.560   1.482  -0.442  0.00  0.00    +0.006 S 
ATOM      4  O   UNL     1       5.763   1.786   0.401  0.00  0.00    -0.166 OA
BRANCH   3   5
ATOM      5  O   UNL     1       4.530   2.688  -1.500  0.00  0.00    -0.269 OA
ATOM      6  H   UNL     1       5.054   3.420  -1.087  0.00  0.00    +0.243 HD
ENDBRANCH   3   5
ENDBRANCH   1   3
BRANCH   1   7
ATOM      7  CA  UNL     1       3.716  -0.249  -2.497  0.00  0.00    +0.212 C 
BRANCH   7   8
ATOM      8  N   UNL     1       3.089   0.869  -3.236  0.00  0.00    -0.315 N 
ATOM      9  H   UNL     1       3.752   1.359  -3.838  0.00  0.00    +0.148 HD
BRANCH   8  10
ATOM     10  C   UNL     1       1.779   1.269  -3.207  0.00  0.00    +0.114 A 
ATOM     11  N   UNL     1       1.304   2.056  -4.277  0.00  0.00    -0.304 N 
ATOM     12  C   UNL     1      -0.026   2.384  -4.046  0.00  0.00    +0.048 A 
ATOM     13  C   UNL     1      -0.706   3.194  -4.998  0.00  0.00    +0.026 A 
ATOM     14  C   UNL     1      -0.069   3.580  -6.119  0.00  0.00    +0.003 A 
ATOM     15  C   UNL     1       1.305   3.189  -6.374  0.00  0.00    +0.018 A 
ATOM     16  C   UNL     1      -0.415   1.790  -2.875  0.00  0.00    +0.040 A 
ATOM     17  C   UNL     1       1.957   2.453  -5.458  0.00  0.00    +0.093 A 
ATOM     18  C   UNL     1       0.700   1.078  -2.334  0.00  0.00    +0.054 A 
BRANCH  18  19
ATOM     19  C   UNL     1       0.588   0.359  -1.071  0.00  0.00    +0.262 C 
ATOM     20  O   UNL     1       1.488  -0.222  -0.476  0.00  0.00    -0.296 OA
ENDBRANCH  18  19
ENDBRANCH   8  10
ENDBRANCH   7   8
BRANCH   7  21
ATOM     21  C   UNL     1       3.913  -1.397  -3.515  0.00  0.00    +0.328 C 
ATOM     22  OXT UNL     1       4.940  -2.028  -3.709  0.00  0.00    -0.249 OA
BRANCH  21  23
ATOM     23  O   UNL     1       2.772  -1.668  -4.205  0.00  0.00    -0.479 OA
ATOM     24  H   UNL     1       2.080  -1.011  -3.967  0.00  0.00    +0.295 HD
ENDBRANCH  21  23
ENDBRANCH   7  21
ENDBRANCH   1   7
BRANCH   1  25
ATOM     25  C   UNL     1       5.450  -1.105  -0.855  0.00  0.00    +0.264 C 
BRANCH  25  26
ATOM     26  O   UNL     1       6.653  -0.857  -0.103  0.00  0.00    -0.462 OA
BRANCH  26  27
ATOM     27  C   UNL     1       6.544  -0.927   1.255  0.00  0.00    +0.312 C 
ATOM     28  O   UNL     1       5.540  -1.271   1.870  0.00  0.00    -0.250 OA
BRANCH  27  29
ATOM     29  C   UNL     1       7.853  -0.570   1.917  0.00  0.00    +0.155 C 
BRANCH  29  30
ATOM     30  C   UNL     1       8.751  -1.767   2.110  0.00  0.00    -0.033 A 
ATOM     31  C   UNL     1      10.007  -1.817   1.482  0.00  0.00    +0.008 A 
ATOM     32  C   UNL     1      10.829  -2.937   1.625  0.00  0.00    +0.049 A 
ATOM     33  C   UNL     1      10.395  -4.002   2.399  0.00  0.00    +0.158 A 
ATOM     34  C   UNL     1       9.163  -3.958   3.045  0.00  0.00    +0.158 A 
ATOM     35  C   UNL     1       8.338  -2.847   2.910  0.00  0.00    +0.053 A 
BRANCH  33  36
ATOM     36  O   UNL     1      11.190  -5.105   2.521  0.00  0.00    -0.503 OA
ATOM     37  H   UNL     1      10.671  -5.716   3.081  0.00  0.00    +0.292 HD
ENDBRANCH  33  36
BRANCH  34  38
ATOM     38  O   UNL     1       8.802  -5.039   3.801  0.00  0.00    -0.503 OA
ATOM     39  H   UNL     1       7.935  -4.849   4.199  0.00  0.00    +0.292 HD
ENDBRANCH  34  38
ENDBRANCH  29  30
ENDBRANCH  27  29
ENDBRANCH  26  27
ENDBRANCH  25  26
ENDBRANCH   1  25
TORSDOF 15
