REMARK  Name = 
REMARK  3 active torsions:
REMARK  status: ('A' for Active; 'I' for Inactive)
REMARK    1  A    between atoms: N_1  and  S_2
REMARK    2  A    between atoms: S_2  and  C_5
REMARK    3  A    between atoms: C_8  and  N_9
REMARK                            x       y       z     vdW  Elec       q    Type
REMARK                         _______ _______ _______ _____ _____    ______ ____
ROOT
ATOM      1  C   UNL     1       3.300   1.647  -0.185  0.00  0.00    +0.105 A 
ATOM      2  C   UNL     1       4.393   1.808  -1.035  0.00  0.00    +0.030 A 
ATOM      3  C   UNL     1       4.788   3.092  -1.427  0.00  0.00    +0.025 A 
ATOM      4  C   UNL     1       4.108   4.226  -0.972  0.00  0.00    +0.033 A 
ATOM      5  C   UNL     1       3.042   4.042  -0.079  0.00  0.00    +0.025 A 
ATOM      6  C   UNL     1       2.631   2.763   0.318  0.00  0.00    +0.030 A 
ENDROOT
BRANCH   4   7
ATOM      7  N   UNL     1       4.465   5.537  -1.314  0.00  0.00    -0.298 N 
ATOM      8  H   UNL     1       3.681   6.175  -1.417  0.00  0.00    +0.154 HD
ATOM      9  C   UNL     1       5.611   6.135  -1.833  0.00  0.00    +0.143 A 
ATOM     10  C   UNL     1       6.892   5.580  -1.768  0.00  0.00    +0.154 A 
ATOM     11  N   UNL     1       8.013   6.197  -2.230  0.00  0.00    -0.257 NA
ATOM     12  C   UNL     1       7.807   7.424  -2.756  0.00  0.00    +0.151 A 
ATOM     13  C   UNL     1       6.546   7.987  -2.820  0.00  0.00    +0.149 A 
ATOM     14 CL   UNL     1       6.290   9.548  -3.478  0.00  0.00    -0.060 Cl
ATOM     15  N   UNL     1       5.434   7.366  -2.366  0.00  0.00    -0.217 NA
ENDBRANCH   4   7
BRANCH   1  16
ATOM     16  S   UNL     1       2.727   0.021   0.194  0.00  0.00    +0.056 S 
ATOM     17  O   UNL     1       3.482  -0.943  -0.572  0.00  0.00    -0.153 OA
ATOM     18  O   UNL     1       2.535  -0.091   1.619  0.00  0.00    -0.153 OA
BRANCH  16  19
ATOM     19  N   UNL     1       1.197   0.034  -0.501  0.00  0.00    -0.204 NA
ATOM     20  H   UNL     1       1.199  -0.511  -1.363  0.00  0.00    +0.144 HD
ATOM     21  H   UNL     1       0.508  -0.278   0.183  0.00  0.00    +0.144 HD
ENDBRANCH  16  19
ENDBRANCH   1  16
TORSDOF 3
