REMARK  Name = 
REMARK  6 active torsions:
REMARK  status: ('A' for Active; 'I' for Inactive)
REMARK    1  A    between atoms: C_5  and  C_6
REMARK    2  A    between atoms: N_9  and  C_10
REMARK    3  A    between atoms: C_10  and  C_11
REMARK    4  A    between atoms: C_30  and  O_31
REMARK    5  A    between atoms: O_31  and  S_32
REMARK    6  A    between atoms: S_32  and  N_33
REMARK                            x       y       z     vdW  Elec       q    Type
REMARK                         _______ _______ _______ _____ _____    ______ ____
ROOT
ATOM      1  C   UNL     1      -0.000  -0.000  -0.000  0.00  0.00    +0.023 C 
ATOM      2  C   UNL     1      -0.000  -0.000   0.000  0.00  0.00    -0.041 A 
ATOM      3  C   UNL     1      -0.000  -0.000  -0.000  0.00  0.00    +0.008 A 
ATOM      4  C   UNL     1      -0.000  -0.000  -0.000  0.00  0.00    +0.049 A 
ATOM      5  C   UNL     1      -0.000  -0.000  -0.000  0.00  0.00    +0.158 A 
ATOM      6  C   UNL     1      -0.000  -0.000  -0.000  0.00  0.00    +0.052 A 
ATOM      7  C   UNL     1      -0.000  -0.000  -0.000  0.00  0.00    -0.040 A 
ATOM      8  C   UNL     1      -0.000  -0.000  -0.000  0.00  0.00    +0.036 C 
ATOM      9  C   UNL     1      -0.000  -0.000  -0.000  0.00  0.00    +0.009 C 
ATOM     10  C   UNL     1      -0.000  -0.000  -0.000  0.00  0.00    +0.001 C 
ATOM     11  C   UNL     1      -0.000  -0.000  -0.000  0.00  0.00    +0.016 C 
ATOM     12  C   UNL     1      -0.000  -0.000  -0.000  0.00  0.00    +0.048 C 
ATOM     13  C   UNL     1      -0.000  -0.000  -0.000  0.00  0.00    +0.021 C 
ATOM     14  C   UNL     1      -0.000  -0.000  -0.000  0.00  0.00    +0.228 C 
ATOM     15  O   UNL     1      -0.000  -0.000  -0.000  0.00  0.00    -0.275 OA
ATOM     16  N   UNL     1      -0.000  -0.000  -0.000  0.00  0.00    -0.237 N 
ATOM     17  C   UNL     1      -0.000  -0.000  -0.000  0.00  0.00    +0.222 C 
ATOM     18  O   UNL     1      -0.000  -0.000  -0.000  0.00  0.00    -0.275 OA
ATOM     19  C   UNL     1      -0.000  -0.000  -0.000  0.00  0.00    +0.017 C 
ATOM     20  C   UNL     1      -0.000  -0.000  -0.000  0.00  0.00    +0.101 C 
ATOM     21  C   UNL     1      -0.000  -0.000  -0.000  0.00  0.00    +0.009 C 
ENDROOT
BRANCH   5  22
ATOM     22  O   UNL     1      -0.000  -0.000  -0.000  0.00  0.00    -0.334 OA
BRANCH  22  23
ATOM     23  S   UNL     1      -0.000  -0.000   0.000  0.00  0.00    +0.189 S 
ATOM     24  O   UNL     1      -0.000  -0.000  -0.000  0.00  0.00    -0.119 OA
ATOM     25  O   UNL     1      -0.000  -0.000  -0.000  0.00  0.00    -0.119 OA
BRANCH  23  26
ATOM     26  N   UNL     1      -0.000  -0.000   0.000  0.00  0.00    -0.174 NA
ATOM     27  H   UNL     1      -0.000  -0.000  -0.000  0.00  0.00    +0.147 HD
ATOM     28  H   UNL     1      -0.000  -0.000  -0.000  0.00  0.00    +0.147 HD
ENDBRANCH  23  26
ENDBRANCH  22  23
ENDBRANCH   5  22
BRANCH  16  29
ATOM     29  C   UNL     1      -0.000  -0.000  -0.000  0.00  0.00    +0.153 C 
BRANCH  29  30
ATOM     30  C   UNL     1      -0.000  -0.000  -0.000  0.00  0.00    -0.012 A 
ATOM     31  C   UNL     1      -0.000  -0.000  -0.000  0.00  0.00    +0.116 A 
ATOM     32  N   UNL     1      -0.000  -0.000  -0.000  0.00  0.00    -0.263 NA
ATOM     33  C   UNL     1      -0.000  -0.000  -0.000  0.00  0.00    +0.111 A 
ATOM     34  C   UNL     1      -0.000  -0.000  -0.000  0.00  0.00    +0.020 A 
ATOM     35  C   UNL     1      -0.000  -0.000  -0.000  0.00  0.00    +0.008 A 
ENDBRANCH  29  30
ENDBRANCH  16  29
TORSDOF 5
