REMARK  Name = 
REMARK  10 active torsions:
REMARK  status: ('A' for Active; 'I' for Inactive)
REMARK    1  A    between atoms: CA_2  and  CB_3
REMARK    2  A    between atoms: CA_2  and  N_4
REMARK    3  A    between atoms: CA_2  and  C_21
REMARK    4  A    between atoms: C_5  and  C_7
REMARK    5  A    between atoms: C_7  and  C_9
REMARK    6  A    between atoms: C_7  and  C_14
REMARK    7  A    between atoms: C_9  and  C_10
REMARK    8  A    between atoms: N_12  and  O_13
REMARK    9  A    between atoms: C_14  and  C_15
REMARK   10  A    between atoms: C_21  and  O_22
REMARK                            x       y       z     vdW  Elec       q    Type
REMARK                         _______ _______ _______ _____ _____    ______ ____
ROOT
ATOM      1  C   UNK A   0       2.809  -0.017   3.860  0.00  0.00    +0.088 C 
ENDROOT
BRANCH   1   4
ATOM      2  N   ALA A   1       2.032   1.789   2.381  0.00  0.00    -0.302 N 
ATOM      3  H   ALA A   1       2.232   2.427   3.148  0.00  0.00    +0.150 HD
ATOM      4  C   UNK A   0       2.273   0.452   2.510  0.00  0.00    +0.218 C 
ATOM      5  O   UNK A   0       2.186  -0.322   1.559  0.00  0.00    -0.275 OA
BRANCH   2   6
ATOM      6  CA  ALA A   1       1.427   2.417   1.210  0.00  0.00    +0.178 C 
ATOM      7  CB  ALA A   1       0.027   1.881   0.927  0.00  0.00    +0.040 C 
BRANCH   6   8
ATOM      8  C   ALA A   1       1.363   3.921   1.521  0.00  0.00    +0.325 C 
ATOM      9  OXT ALA A   1       1.649   4.393   2.618  0.00  0.00    -0.249 OA
BRANCH   8  10
ATOM     10  O   ALA A   1       0.970   4.693   0.485  0.00  0.00    -0.479 OA
ATOM     11  H   ALA A   1       0.777   4.209  -0.338  0.00  0.00    +0.295 HD
ENDBRANCH   8  10
ENDBRANCH   6   8
ENDBRANCH   2   6
ENDBRANCH   1   4
BRANCH   1  12
ATOM     12  C   UNK A   0       2.312   0.784   5.083  0.00  0.00    +0.048 C 
BRANCH  12  13
ATOM     13  C   UNK A   0       0.804   0.803   5.218  0.00  0.00    -0.047 A 
ATOM     14  C   UNK A   0       0.088   2.000   5.071  0.00  0.00    +0.003 A 
ATOM     15  C   UNK A   0      -1.306   2.010   5.150  0.00  0.00    +0.000 A 
ATOM     16  C   UNK A   0      -1.998   0.826   5.393  0.00  0.00    +0.000 A 
ATOM     17  C   UNK A   0      -1.297  -0.366   5.563  0.00  0.00    +0.000 A 
ATOM     18  C   UNK A   0       0.096  -0.378   5.477  0.00  0.00    +0.003 A 
ENDBRANCH  12  13
ENDBRANCH   1  12
BRANCH   1  19
ATOM     19  C   UNK A   0       4.337  -0.119   3.795  0.00  0.00    +0.111 C 
BRANCH  19  20
ATOM     20  C   UNK A   0       5.020   1.204   3.539  0.00  0.00    +0.236 C 
ATOM     21  N   UNK A   0       5.261   1.483   2.218  0.00  0.00    -0.197 N 
ATOM     22  H   UNK A   0       4.793   1.012   1.448  0.00  0.00    +0.182 HD
ATOM     23  O   UNK A   0       5.321   1.982   4.441  0.00  0.00    -0.274 OA
BRANCH  21  24
ATOM     24  O   UNK A   0       5.809   2.757   1.945  0.00  0.00    -0.295 OA
ATOM     25  H   UNK A   0       5.986   3.111   2.845  0.00  0.00    +0.241 HD
ENDBRANCH  21  24
ENDBRANCH  19  20
ENDBRANCH   1  19
TORSDOF 9
