REMARK  Name = 
REMARK  2 active torsions:
REMARK  status: ('A' for Active; 'I' for Inactive)
REMARK    1  A    between atoms: N_2  and  C_4
REMARK    2  A    between atoms: C_7  and  C_10
REMARK                            x       y       z     vdW  Elec       q    Type
REMARK                         _______ _______ _______ _____ _____    ______ ____
ROOT
ATOM      1  C   UNL     1       3.049  -0.005   1.184  0.00  0.00    +0.273 A 
ATOM      2  C   UNL     1       3.406  -1.242   1.734  0.00  0.00    +0.085 A 
ATOM      3  C   UNL     1       4.245  -1.284   2.855  0.00  0.00    +0.017 A 
ATOM      4  C   UNL     1       4.738  -0.103   3.433  0.00  0.00    +0.003 A 
ATOM      5  C   UNL     1       4.339   1.129   2.882  0.00  0.00    +0.017 A 
ATOM      6  C   UNL     1       3.502   1.185   1.763  0.00  0.00    +0.085 A 
ENDROOT
BRANCH   4   7
ATOM      7  C   UNL     1       5.681  -0.144   4.559  0.00  0.00    +0.092 A 
ATOM      8  C   UNL     1       6.224  -1.283   5.218  0.00  0.00    +0.049 A 
ATOM      9  C   UNL     1       7.097  -0.792   6.158  0.00  0.00    +0.105 A 
ATOM     10  N   UNL     1       7.037   0.561   6.042  0.00  0.00    -0.284 N 
ATOM     11  H   UNL     1       7.550   1.260   6.569  0.00  0.00    +0.188 HD
ATOM     12  N   UNL     1       6.188   0.981   5.093  0.00  0.00    -0.174 NA
ENDBRANCH   4   7
BRANCH   1  14
ATOM     13  O   UNL     1       1.943   1.151  -0.497  0.00  0.00    -0.576 OA
ATOM     14  N   UNL     1       2.211   0.040  -0.021  0.00  0.00    +0.080 N 
ATOM     15  O   UNL     1       1.829  -1.040  -0.497  0.00  0.00    +0.041 OA
ENDBRANCH   1  14
TORSDOF 2
