REMARK  Name = 
REMARK  7 active torsions:
REMARK  status: ('A' for Active; 'I' for Inactive)
REMARK    1  A    between atoms: C_2  and  C_21
REMARK    2  A    between atoms: C_8  and  C_10
REMARK    3  A    between atoms: C_10  and  O_11
REMARK    4  A    between atoms: C_12  and  O_14
REMARK    5  A    between atoms: C_15  and  O_17
REMARK    6  A    between atoms: C_18  and  O_20
REMARK    7  A    between atoms: C_24  and  C_25
REMARK                            x       y       z     vdW  Elec       q    Type
REMARK                         _______ _______ _______ _____ _____    ______ ____
ROOT
ATOM      1  C   UNL     1       2.006   0.222   0.126  0.00  0.00    +0.116 C 
ATOM      2  N   UNL     1       2.657   0.329   1.421  0.00  0.00    -0.190 NA
ATOM      3  H   UNL     1       3.466   0.949   1.360  0.00  0.00    +0.155 HD
ATOM      4  O   UNL     1       3.330  -0.946   1.664  0.00  0.00    -0.261 OA
ATOM      5  C   UNL     1       3.425  -1.734   0.453  0.00  0.00    +0.220 C 
ATOM      6  C   UNL     1       2.964  -3.172   0.849  0.00  0.00    +0.206 C 
ATOM      7  C   UNL     1       3.352  -4.256  -0.173  0.00  0.00    +0.179 C 
ATOM      8  C   UNL     1       4.828  -4.112  -0.575  0.00  0.00    +0.177 C 
ATOM      9  C   UNL     1       5.175  -2.677  -1.005  0.00  0.00    +0.178 C 
ATOM     10  O   UNL     1       4.786  -1.702  -0.023  0.00  0.00    -0.337 OA
ATOM     11  C   UNL     1       2.539  -1.021  -0.553  0.00  0.00    +0.095 C 
ENDROOT
BRANCH   1  12
ATOM     12  C   UNL     1       0.494   0.153   0.152  0.00  0.00    -0.028 A 
ATOM     13  C   UNL     1      -0.211   0.522  -1.008  0.00  0.00    +0.005 A 
ATOM     14  C   UNL     1      -1.582   0.304  -1.115  0.00  0.00    +0.003 A 
ATOM     15  C   UNL     1      -2.279  -0.290  -0.057  0.00  0.00    -0.050 A 
ATOM     16  C   UNL     1      -3.747  -0.572  -0.207  0.00  0.00    +0.044 C 
ATOM     17  C   UNL     1      -1.596  -0.615   1.116  0.00  0.00    +0.003 A 
ATOM     18  C   UNL     1      -0.219  -0.402   1.220  0.00  0.00    +0.005 A 
ENDBRANCH   1  12
BRANCH   6  19
ATOM     19  O   UNL     1       3.559  -3.553   2.114  0.00  0.00    -0.384 OA
ATOM     20  H   UNL     1       4.514  -3.718   1.941  0.00  0.00    +0.210 HD
ENDBRANCH   6  19
BRANCH   7  21
ATOM     21  O   UNL     1       2.496  -4.353  -1.307  0.00  0.00    -0.386 OA
ATOM     22  H   UNL     1       2.181  -3.488  -1.601  0.00  0.00    +0.210 HD
ENDBRANCH   7  21
BRANCH   8  23
ATOM     23  O   UNL     1       5.634  -4.433   0.579  0.00  0.00    -0.386 OA
ATOM     24  H   UNL     1       6.560  -4.485   0.280  0.00  0.00    +0.210 HD
ENDBRANCH   8  23
BRANCH   9  25
ATOM     25  C   UNL     1       4.730  -2.334  -2.436  0.00  0.00    +0.190 C 
BRANCH  25  26
ATOM     26  O   UNL     1       5.245  -3.261  -3.384  0.00  0.00    -0.392 OA
ATOM     27  H   UNL     1       6.133  -2.968  -3.639  0.00  0.00    +0.210 HD
ENDBRANCH  25  26
ENDBRANCH   9  25
TORSDOF 6
