REMARK  Name = 
REMARK  6 active torsions:
REMARK  status: ('A' for Active; 'I' for Inactive)
REMARK    1  A    between atoms: C_5  and  N_28
REMARK    2  A    between atoms: C_8  and  C_10
REMARK    3  A    between atoms: N_12  and  C_13
REMARK    4  A    between atoms: C_18  and  C_19
REMARK    5  A    between atoms: C_19  and  O_20
REMARK    6  A    between atoms: O_20  and  C_21
REMARK                            x       y       z     vdW  Elec       q    Type
REMARK                         _______ _______ _______ _____ _____    ______ ____
ROOT
ATOM      1  C   UNL     1       3.020  -2.613  -2.427  0.00  0.00    +0.244 C 
ATOM      2  N   UNL     1       3.011  -2.762  -3.800  0.00  0.00    -0.282 N 
ATOM      3  H   UNL     1       2.583  -2.033  -4.351  0.00  0.00    +0.155 HD
ATOM      4  O   UNL     1       3.363  -3.476  -1.622  0.00  0.00    -0.270 OA
ENDROOT
BRANCH   1   8
ATOM      5  C   UNL     1       1.865  -0.008   0.153  0.00  0.00    +0.191 C 
ATOM      6  F   UNL     1       0.554  -0.061   0.527  0.00  0.00    -0.241 F 
ATOM      7  C   UNL     1       2.197  -1.245  -0.612  0.00  0.00    +0.018 C 
ATOM      8  C   UNL     1       2.582  -1.272  -1.901  0.00  0.00    +0.015 C 
ATOM      9  C   UNL     1       2.683  -0.001  -2.684  0.00  0.00    +0.059 C 
ATOM     10  C   UNL     1       2.987   1.265  -1.831  0.00  0.00    +0.064 C 
ATOM     11  C   UNL     1       2.086   1.316  -0.576  0.00  0.00    +0.060 C 
BRANCH  10  12
ATOM     12  N   UNL     1       4.383   1.661  -1.557  0.00  0.00    -0.295 NA
ATOM     13  C   UNL     1       5.224   1.931  -2.737  0.00  0.00    +0.113 C 
ATOM     14  C   UNL     1       5.989   0.709  -3.274  0.00  0.00    +0.175 C 
ATOM     15  O   UNL     1       6.728   0.042  -2.247  0.00  0.00    -0.377 OA
ATOM     16  C   UNL     1       5.911  -0.294  -1.118  0.00  0.00    +0.175 C 
ATOM     17  C   UNL     1       5.173   0.930  -0.562  0.00  0.00    +0.113 C 
ENDBRANCH  10  12
ENDBRANCH   1   8
BRANCH   2  18
ATOM     18  C   UNL     1       3.494  -3.890  -4.519  0.00  0.00    +0.034 A 
ATOM     19  C   UNL     1       3.269  -3.943  -5.908  0.00  0.00    +0.031 A 
ATOM     20  C   UNL     1       3.773  -5.002  -6.701  0.00  0.00    +0.010 A 
ATOM     21  C   UNL     1       4.478  -6.035  -6.069  0.00  0.00    +0.047 A 
ATOM     22 CL   UNL     1       5.147  -7.367  -6.945  0.00  0.00    -0.083 Cl
ATOM     23  C   UNL     1       4.691  -5.998  -4.693  0.00  0.00    +0.022 A 
ATOM     24  C   UNL     1       4.212  -4.935  -3.930  0.00  0.00    +0.025 A 
BRANCH  20  25
ATOM     25  C   UNL     1       3.565  -4.977  -8.198  0.00  0.00    +0.266 C 
BRANCH  25  26
ATOM     26  O   UNL     1       2.431  -5.769  -8.560  0.00  0.00    -0.486 OA
BRANCH  26  27
ATOM     27  C   UNL     1       2.175  -5.866  -9.901  0.00  0.00    +0.139 A 
ATOM     28  C   UNL     1       1.099  -6.674 -10.265  0.00  0.00    +0.049 A 
ATOM     29  C   UNL     1       0.764  -6.828 -11.610  0.00  0.00    +0.023 A 
ATOM     30  C   UNL     1       1.522  -6.160 -12.558  0.00  0.00    +0.111 A 
ATOM     31  N   UNL     1       2.568  -5.366 -12.250  0.00  0.00    -0.260 NA
ATOM     32  C   UNL     1       2.870  -5.241 -10.933  0.00  0.00    +0.156 A 
ENDBRANCH  26  27
ENDBRANCH  25  26
ENDBRANCH  20  25
ENDBRANCH   2  18
TORSDOF 6
