REMARK  Name = 
REMARK  12 active torsions:
REMARK  status: ('A' for Active; 'I' for Inactive)
REMARK    1  A    between atoms: C_2  and  C_3
REMARK    2  A    between atoms: C_2  and  N_4
REMARK    3  A    between atoms: C_2  and  C_5
REMARK    4  A    between atoms: N_7  and  C_8
REMARK    5  A    between atoms: C_8  and  C_10
REMARK    6  A    between atoms: C_8  and  C_11
REMARK    7  A    between atoms: N_13  and  C_14
REMARK    8  A    between atoms: C_14  and  C_16
REMARK    9  A    between atoms: C_14  and  C_23
REMARK   10  A    between atoms: C_16  and  C_17
REMARK   11  A    between atoms: C_23  and  C_25
REMARK   12  A    between atoms: C_23  and  O_26
REMARK                            x       y       z     vdW  Elec       q    Type
REMARK                         _______ _______ _______ _____ _____    ______ ____
ROOT
ATOM      1  C   UNL     1       5.900   3.900   2.193  0.00  0.00    +0.233 C 
ATOM      2  N   UNL     1       6.657   4.116   1.061  0.00  0.00    -0.308 N 
ATOM      3  H   UNL     1       6.165   4.372   0.215  0.00  0.00    +0.149 HD
ATOM      4  O   UNL     1       6.402   3.681   3.292  0.00  0.00    -0.274 OA
ENDROOT
BRANCH   1   5
ATOM      5  C   UNL     1       4.366   3.921   1.965  0.00  0.00    +0.156 C 
ATOM      6  C   UNL     1       3.772   2.572   2.351  0.00  0.00    +0.038 C 
BRANCH   5   8
ATOM      7  C   UNL     1       3.846   5.570   0.173  0.00  0.00    +0.230 C 
ATOM      8  N   UNL     1       4.004   4.266   0.592  0.00  0.00    -0.303 N 
ATOM      9  H   UNL     1       3.885   3.545  -0.118  0.00  0.00    +0.149 HD
ATOM     10  O   UNL     1       4.031   6.533   0.912  0.00  0.00    -0.274 OA
BRANCH   7  11
ATOM     11  C   UNL     1       3.544   5.703  -1.335  0.00  0.00    +0.135 C 
ATOM     12  C   UNL     1       2.684   6.927  -1.619  0.00  0.00    +0.033 C 
BRANCH  11  13
ATOM     13  N   UNL     1       2.903   4.470  -1.849  0.00  0.00    -0.320 NA
ATOM     14  H   UNL     1       1.968   4.402  -1.442  0.00  0.00    +0.119 HD
ATOM     15  H   UNL     1       2.745   4.586  -2.852  0.00  0.00    +0.119 HD
ENDBRANCH  11  13
ENDBRANCH   7  11
ENDBRANCH   5   8
ENDBRANCH   1   5
BRANCH   2  16
ATOM     16  C   UNL     1       8.121   4.186   1.074  0.00  0.00    +0.105 C 
BRANCH  16  17
ATOM     17  C   UNL     1       8.583   5.592   1.551  0.00  0.00    +0.132 C 
ATOM     18  C   UNL     1      10.100   5.725   1.646  0.00  0.00    +0.039 C 
BRANCH  17  19
ATOM     19  O   UNL     1       8.106   6.600   0.649  0.00  0.00    -0.390 OA
ATOM     20  H   UNL     1       7.162   6.722   0.859  0.00  0.00    +0.210 HD
ENDBRANCH  17  19
ENDBRANCH  16  17
BRANCH  16  21
ATOM     21  C   UNL     1       8.680   3.834  -0.321  0.00  0.00    +0.060 C 
BRANCH  21  22
ATOM     22  C   UNL     1       8.332   2.451  -0.822  0.00  0.00    -0.046 A 
ATOM     23  C   UNL     1       8.742   1.308  -0.121  0.00  0.00    +0.004 A 
ATOM     24  C   UNL     1       8.487   0.035  -0.632  0.00  0.00    +0.000 A 
ATOM     25  C   UNL     1       7.823  -0.109  -1.849  0.00  0.00    +0.000 A 
ATOM     26  C   UNL     1       7.405   1.019  -2.550  0.00  0.00    +0.000 A 
ATOM     27  C   UNL     1       7.659   2.293  -2.041  0.00  0.00    +0.004 A 
ENDBRANCH  21  22
ENDBRANCH  16  21
ENDBRANCH   2  16
TORSDOF 9
