REMARK  Name = 
REMARK  8 active torsions:
REMARK  status: ('A' for Active; 'I' for Inactive)
REMARK    1  A    between atoms: C_2  and  C_3
REMARK    2  A    between atoms: C_7  and  C_9
REMARK    3  A    between atoms: C_11  and  C_13
REMARK    4  A    between atoms: C_19  and  N_20
REMARK    5  A    between atoms: C_21  and  C_23
REMARK    6  A    between atoms: C_23  and  C_24
REMARK    7  A    between atoms: C_24  and  C_25
REMARK    8  A    between atoms: C_25  and  O_26
REMARK                            x       y       z     vdW  Elec       q    Type
REMARK                         _______ _______ _______ _____ _____    ______ ____
ROOT
ATOM      1  C   UNL     1       0.383  -3.060  -3.149  0.00  0.00    +0.059 A 
ATOM      2  C   UNL     1      -1.026  -3.158  -2.988  0.00  0.00    +0.046 A 
ATOM      3  C   UNL     1      -1.806  -2.870  -4.124  0.00  0.00    +0.025 A 
ATOM      4  C   UNL     1      -1.211  -2.518  -5.343  0.00  0.00    +0.017 A 
ATOM      5  C   UNL     1       0.171  -2.560  -5.495  0.00  0.00    +0.019 A 
ATOM      6 BR   UNL     1       0.983  -1.964  -7.090  0.00  0.00    -0.050 Br
ATOM      7  C   UNL     1       0.970  -2.934  -4.429  0.00  0.00    +0.030 A 
ENDROOT
BRANCH   1  15
ATOM      8  C   UNL     1       2.874  -0.618   0.010  0.00  0.00    +0.004 C 
ATOM      9  C   UNL     1       1.577  -0.763   0.807  0.00  0.00    +0.009 C 
ATOM     10  C   UNL     1       2.929   0.654  -0.865  0.00  0.00    +0.009 C 
ATOM     11  C   UNL     1       2.619   0.529  -2.369  0.00  0.00    +0.004 C 
ATOM     12  C   UNL     1       1.422   1.381  -2.831  0.00  0.00    +0.009 C 
ATOM     13  C   UNL     1       2.535  -0.897  -2.928  0.00  0.00    +0.111 C 
ATOM     14  N   UNL     1       2.264  -1.949  -1.939  0.00  0.00    -0.297 N 
ATOM     15  C   UNL     1       1.276  -2.952  -1.974  0.00  0.00    +0.248 C 
ATOM     16  O   UNL     1       1.065  -3.736  -1.045  0.00  0.00    -0.270 OA
ATOM     17  C   UNL     1       3.149  -1.888  -0.793  0.00  0.00    +0.111 C 
ENDBRANCH   1  15
BRANCH   2  18
ATOM     18  N   UNL     1      -1.610  -3.581  -1.744  0.00  0.00    -0.285 N 
ATOM     19  H   UNL     1      -0.929  -3.925  -1.061  0.00  0.00    +0.155 HD
ATOM     20  C   UNL     1      -2.948  -3.583  -1.404  0.00  0.00    +0.218 C 
ATOM     21  O   UNL     1      -3.837  -2.968  -2.003  0.00  0.00    -0.275 OA
BRANCH  20  22
ATOM     22  C   UNL     1      -3.362  -4.384  -0.172  0.00  0.00    +0.107 C 
BRANCH  22  23
ATOM     23  C   UNL     1      -3.765  -3.548   1.042  0.00  0.00    +0.129 C 
BRANCH  23  24
ATOM     24  C   UNL     1      -5.081  -2.794   1.034  0.00  0.00    +0.305 C 
ATOM     25  O   UNL     1      -5.788  -2.710   2.027  0.00  0.00    -0.251 OA
BRANCH  24  26
ATOM     26  O   UNL     1      -5.386  -2.116  -0.092  0.00  0.00    -0.481 OA
ATOM     27  H   UNL     1      -4.811  -2.254  -0.875  0.00  0.00    +0.295 HD
ENDBRANCH  24  26
ENDBRANCH  23  24
ENDBRANCH  22  23
ENDBRANCH  20  22
ENDBRANCH   2  18
TORSDOF 6
