REMARK  Name = 
REMARK  5 active torsions:
REMARK  status: ('A' for Active; 'I' for Inactive)
REMARK    1  A    between atoms: O_1  and  C_2
REMARK    2  A    between atoms: C_2  and  C_4
REMARK    3  A    between atoms: C_7  and  C_10
REMARK    4  A    between atoms: C_12  and  C_13
REMARK    5  A    between atoms: C_17  and  N_19
REMARK                            x       y       z     vdW  Elec       q    Type
REMARK                         _______ _______ _______ _____ _____    ______ ____
ROOT
ATOM      1  C   UNL     1       5.222   5.015  -0.333  0.00  0.00    +0.072 A 
ATOM      2  C   UNL     1       6.469   5.014  -0.952  0.00  0.00    +0.038 A 
ATOM      3  C   UNL     1       7.067   6.217  -1.330  0.00  0.00    +0.005 A 
ATOM      4  C   UNL     1       6.437   7.440  -1.057  0.00  0.00    +0.097 A 
ATOM      5  N   UNL     1       7.009   8.598  -1.488  0.00  0.00    -0.253 NA
ATOM      6  C   UNL     1       8.187   8.570  -2.144  0.00  0.00    +0.111 A 
ATOM      7  C   UNL     1       8.868   7.409  -2.422  0.00  0.00    +0.020 A 
ATOM      8  C   UNL     1       5.214   7.365  -0.347  0.00  0.00    +0.098 A 
ATOM      9  C   UNL     1       8.297   6.214  -2.009  0.00  0.00    +0.011 A 
ATOM     10  N   UNL     1       4.606   6.176  -0.003  0.00  0.00    -0.245 NA
ENDROOT
BRANCH   1  14
ATOM     11  C   UNL     1       3.342   1.234   0.637  0.00  0.00    +0.059 A 
ATOM     12  C   UNL     1       3.100   2.371   1.420  0.00  0.00    +0.015 A 
ATOM     13  C   UNL     1       3.679   3.607   1.089  0.00  0.00    +0.011 A 
ATOM     14  C   UNL     1       4.524   3.741  -0.023  0.00  0.00    +0.000 A 
ATOM     15  C   UNL     1       4.720   2.589  -0.817  0.00  0.00    +0.011 A 
ATOM     16  C   UNL     1       4.155   1.348  -0.489  0.00  0.00    +0.015 A 
BRANCH  11  17
ATOM     17  C   UNL     1       2.776  -0.068   1.088  0.00  0.00    +0.337 C 
ATOM     18  O   UNL     1       2.502  -0.295   2.254  0.00  0.00    -0.245 OA
BRANCH  17  19
ATOM     19  O   UNL     1       2.583  -0.973   0.106  0.00  0.00    -0.477 OA
ATOM     20  H   UNL     1       2.660  -0.635  -0.804  0.00  0.00    +0.295 HD
ENDBRANCH  17  19
ENDBRANCH  11  17
ENDBRANCH   1  14
BRANCH   8  21
ATOM     21  C   UNL     1       4.452   8.601   0.022  0.00  0.00    +0.009 A 
ATOM     22  C   UNL     1       5.098   9.836   0.253  0.00  0.00    +0.094 A 
ATOM     23  C   UNL     1       4.372  11.028   0.402  0.00  0.00    +0.274 A 
ATOM     24  C   UNL     1       2.978  11.008   0.422  0.00  0.00    +0.084 A 
ATOM     25  C   UNL     1       2.318   9.787   0.289  0.00  0.00    +0.007 A 
ATOM     26  C   UNL     1       3.046   8.605   0.085  0.00  0.00    +0.010 A 
BRANCH  23  27
ATOM     27  N   UNL     1       5.089  12.309   0.469  0.00  0.00    +0.080 N 
ATOM     28  O   UNL     1       6.329  12.284   0.476  0.00  0.00    +0.041 OA
ATOM     29  O   UNL     1       4.411  13.347   0.499  0.00  0.00    -0.576 OA
ENDBRANCH  23  27
ENDBRANCH   8  21
TORSDOF 5
