REMARK  Name = 
REMARK  11 active torsions:
REMARK  status: ('A' for Active; 'I' for Inactive)
REMARK    1  A    between atoms: C_2  and  N_3
REMARK    2  A    between atoms: C_2  and  C_4
REMARK    3  A    between atoms: C_2  and  C_11
REMARK    4  A    between atoms: C_4  and  C_5
REMARK    5  A    between atoms: C_11  and  O_13
REMARK    6  A    between atoms: C_11  and  C_14
REMARK    7  A    between atoms: C_14  and  O_16
REMARK    8  A    between atoms: C_14  and  C_17
REMARK    9  A    between atoms: C_17  and  C_18
REMARK   10  A    between atoms: C_18  and  C_19
REMARK   11  A    between atoms: C_18  and  C_20
REMARK                            x       y       z     vdW  Elec       q    Type
REMARK                         _______ _______ _______ _____ _____    ______ ____
ROOT
ATOM      1  C   UNL     1       1.717   0.030   0.086  0.00  0.00    +0.082 C 
ENDROOT
BRANCH   1   2
ATOM      2  N   UNL     1       0.248   0.157   0.113  0.00  0.00    -0.325 NA
ATOM      3  H   UNL     1      -0.074  -0.241   1.008  0.00  0.00    +0.119 HD
ATOM      4  H   UNL     1       0.028   1.149   0.238  0.00  0.00    +0.119 HD
ENDBRANCH   1   2
BRANCH   1   5
ATOM      5  C   UNL     1       2.373   0.789   1.283  0.00  0.00    +0.160 C 
BRANCH   5   6
ATOM      6  O   UNL     1       2.032   2.189   1.237  0.00  0.00    -0.388 OA
ATOM      7  H   UNL     1       2.356   2.541   0.388  0.00  0.00    +0.210 HD
ENDBRANCH   5   6
BRANCH   5   8
ATOM      8  C   UNL     1       1.982   0.263   2.694  0.00  0.00    +0.145 C 
BRANCH   8   9
ATOM      9  O   UNL     1       0.573   0.417   2.939  0.00  0.00    -0.389 OA
ATOM     10  H   UNL     1       0.460   1.311   3.311  0.00  0.00    +0.210 HD
ENDBRANCH   8   9
BRANCH   8  11
ATOM     11  C   UNL     1       2.290  -1.213   2.956  0.00  0.00    +0.037 C 
BRANCH  11  12
ATOM     12  C   UNL     1       3.762  -1.630   2.834  0.00  0.00    -0.015 C 
ATOM     13  C   UNL     1       3.874  -3.142   3.063  0.00  0.00    +0.007 C 
ATOM     14  C   UNL     1       4.652  -0.877   3.827  0.00  0.00    +0.007 C 
ENDBRANCH  11  12
ENDBRANCH   8  11
ENDBRANCH   5   8
ENDBRANCH   1   5
BRANCH   1  15
ATOM     15  C   UNL     1       2.170   0.524  -1.310  0.00  0.00    +0.024 C 
BRANCH  15  16
ATOM     16  C   UNL     1       3.677   0.373  -1.630  0.00  0.00    -0.009 C 
ATOM     17  C   UNL     1       4.012   0.986  -3.005  0.00  0.00    +0.003 C 
ATOM     18  C   UNL     1       3.479   0.158  -4.179  0.00  0.00    +0.000 C 
ATOM     19  C   UNL     1       3.940  -1.290  -4.100  0.00  0.00    +0.000 C 
ATOM     20  C   UNL     1       3.633  -1.925  -2.745  0.00  0.00    +0.000 C 
ATOM     21  C   UNL     1       4.175  -1.082  -1.593  0.00  0.00    +0.003 C 
ENDBRANCH  15  16
ENDBRANCH   1  15
TORSDOF 9
