REMARK  Name = 
REMARK  12 active torsions:
REMARK  status: ('A' for Active; 'I' for Inactive)
REMARK    1  A    between atoms: C_2  and  N_8
REMARK    2  A    between atoms: C_9  and  C_11
REMARK    3  A    between atoms: C_11  and  C_12
REMARK    4  A    between atoms: C_12  and  C_14
REMARK    5  A    between atoms: C_14  and  C_15
REMARK    6  A    between atoms: C_15  and  C_16
REMARK    7  A    between atoms: C_16  and  C_17
REMARK    8  A    between atoms: C_17  and  C_18
REMARK    9  A    between atoms: C_18  and  C_19
REMARK   10  A    between atoms: C_19  and  C_20
REMARK   11  A    between atoms: C_20  and  C_21
REMARK   12  A    between atoms: C_21  and  C_22
REMARK                            x       y       z     vdW  Elec       q    Type
REMARK                         _______ _______ _______ _____ _____    ______ ____
ROOT
ATOM      1  C   UNL     1      -1.546   0.510   1.188  0.00  0.00    +0.170 C 
ENDROOT
BRANCH   1   4
ATOM      2  N   UNL     1       0.642  -0.466   0.782  0.00  0.00    -0.302 N 
ATOM      3  H   UNL     1       0.791   0.323   0.166  0.00  0.00    +0.150 HD
ATOM      4  C   UNL     1      -0.623  -0.673   1.287  0.00  0.00    +0.221 C 
ATOM      5  O   UNL     1      -0.987  -1.735   1.782  0.00  0.00    -0.275 OA
BRANCH   2   6
ATOM      6  C   UNL     1       1.661  -1.504   0.795  0.00  0.00    +0.185 C 
ATOM      7  C   UNL     1       1.321  -2.728  -0.035  0.00  0.00    +0.328 C 
ATOM      8  O   UNL     1       0.781  -2.722  -1.133  0.00  0.00    -0.249 OA
ATOM      9  O   UNL     1       1.789  -3.850   0.587  0.00  0.00    -0.463 OA
ATOM     10  C   UNL     1       2.450  -3.487   1.801  0.00  0.00    +0.234 C 
ATOM     11  C   UNL     1       2.003  -2.088   2.146  0.00  0.00    +0.075 C 
ENDBRANCH   2   6
ENDBRANCH   1   4
BRANCH   1  12
ATOM     12  C   UNL     1      -2.020   0.945   2.550  0.00  0.00    +0.142 C 
ATOM     13  O   UNL     1      -1.210   1.306   3.406  0.00  0.00    -0.297 OA
BRANCH  12  14
ATOM     14  C   UNL     1      -3.521   0.957   2.789  0.00  0.00    +0.075 C 
BRANCH  14  15
ATOM     15  C   UNL     1      -3.851   1.379   4.217  0.00  0.00    +0.007 C 
BRANCH  15  16
ATOM     16  C   UNL     1      -5.354   1.447   4.479  0.00  0.00    +0.000 C 
BRANCH  16  17
ATOM     17  C   UNL     1      -5.617   1.878   5.924  0.00  0.00    +0.000 C 
BRANCH  17  18
ATOM     18  C   UNL     1      -7.111   1.961   6.228  0.00  0.00    +0.000 C 
BRANCH  18  19
ATOM     19  C   UNL     1      -7.352   2.394   7.675  0.00  0.00    -0.000 C 
BRANCH  19  20
ATOM     20  C   UNL     1      -8.847   2.477   7.981  0.00  0.00    -0.000 C 
BRANCH  20  21
ATOM     21  C   UNL     1      -9.101   2.908   9.425  0.00  0.00    -0.003 C 
ATOM     22  C   UNL     1     -10.589   2.987   9.720  0.00  0.00    +0.004 C 
ENDBRANCH  20  21
ENDBRANCH  19  20
ENDBRANCH  18  19
ENDBRANCH  17  18
ENDBRANCH  16  17
ENDBRANCH  15  16
ENDBRANCH  14  15
ENDBRANCH  12  14
ENDBRANCH   1  12
TORSDOF 11
