REMARK  Name = 
REMARK  4 active torsions:
REMARK  status: ('A' for Active; 'I' for Inactive)
REMARK    1  A    between atoms: C_1  and  C_2
REMARK    2  A    between atoms: C_5  and  S_8
REMARK    3  A    between atoms: S_8  and  N_11
REMARK    4  A    between atoms: B_20  and  O_21
REMARK                            x       y       z     vdW  Elec       q    Type
REMARK                         _______ _______ _______ _____ _____    ______ ____
ROOT
ATOM      1  N   UNL     1       7.570  -1.669  -0.832  0.00  0.00    +0.000 N 
ATOM      2  B   UNL     1       6.947  -2.555  -1.885  0.00  0.00    +0.000 B 
ATOM      3  C   UNL     1       7.362  -4.057  -1.826  0.00  0.00    +0.000 A 
ATOM      4  C   UNL     1       6.767  -5.038  -2.632  0.00  0.00    +0.000 A 
ATOM      5  C   UNL     1       7.162  -6.373  -2.512  0.00  0.00    +0.000 A 
ATOM      6  C   UNL     1       8.158  -6.727  -1.595  0.00  0.00    +0.000 A 
ATOM      7  C   UNL     1       8.761  -5.750  -0.797  0.00  0.00    +0.000 A 
ATOM      8  C   UNL     1       8.360  -4.410  -0.895  0.00  0.00    +0.000 A 
ATOM      9  C   UNL     1       8.976  -3.381  -0.016  0.00  0.00    +0.000 C 
ATOM     10  N   UNL     1       8.570  -2.151  -0.007  0.00  0.00    +0.000 NA
ENDROOT
BRANCH   1  11
ATOM     11  S   UNL     1       6.985  -0.031  -0.613  0.00  0.00    +0.000 S 
ATOM     12  O   UNL     1       7.959   0.600   0.393  0.00  0.00    +0.000 OA
ATOM     13  O   UNL     1       7.358   0.709  -1.908  0.00  0.00    +0.000 OA
BRANCH  11  18
ATOM     14  C   UNL     1       1.258   1.035   1.233  0.00  0.00    +0.000 C 
ATOM     15  C   UNL     1       2.645   0.712   0.762  0.00  0.00    +0.000 A 
ATOM     16  C   UNL     1       3.146   1.335  -0.390  0.00  0.00    +0.000 A 
ATOM     17  C   UNL     1       4.453   1.086  -0.819  0.00  0.00    +0.000 A 
ATOM     18  C   UNL     1       5.277   0.210  -0.102  0.00  0.00    +0.000 A 
ATOM     19  C   UNL     1       4.774  -0.438   1.037  0.00  0.00    +0.000 A 
ATOM     20  C   UNL     1       3.462  -0.190   1.465  0.00  0.00    +0.000 A 
ENDBRANCH  11  18
ENDBRANCH   1  11
BRANCH   2  21
ATOM     21  O   UNL     1       6.012  -2.028  -2.883  0.00  0.00    +0.000 OA
ATOM     22  H   UNL     1       5.187  -2.566  -2.799  0.00  0.00    +0.000 HD
ENDBRANCH   2  21
TORSDOF 3
