REMARK  Name = 
REMARK  10 active torsions:
REMARK  status: ('A' for Active; 'I' for Inactive)
REMARK    1  A    between atoms: O_1  and  C_2
REMARK    2  A    between atoms: C_3  and  N_21
REMARK    3  A    between atoms: C_5  and  C_6
REMARK    4  A    between atoms: C_6  and  C_7
REMARK    5  A    between atoms: N_9  and  C_10
REMARK    6  A    between atoms: C_10  and  C_11
REMARK    7  A    between atoms: C_11  and  C_12
REMARK    8  A    between atoms: C_12  and  C_13
REMARK    9  A    between atoms: C_13  and  C_14
REMARK   10  A    between atoms: C_14  and  C_15
REMARK                            x       y       z     vdW  Elec       q    Type
REMARK                         _______ _______ _______ _____ _____    ______ ____
ROOT
ATOM      1  C   UNL     1       6.612  -0.046   0.042  0.00  0.00    +0.131 C 
ENDROOT
BRANCH   1   6
ATOM      2  C   UNL     1       5.628   1.629  -3.845  0.00  0.00    +0.208 A 
ATOM      3  C   UNL     1       6.495   2.295  -2.970  0.00  0.00    +0.062 A 
ATOM      4  I   UNL     1       7.337   4.159  -3.446  0.00  0.00    -0.040 I 
ATOM      5  C   UNL     1       6.825   1.739  -1.727  0.00  0.00    +0.022 A 
ATOM      6  C   UNL     1       6.289   0.506  -1.328  0.00  0.00    -0.031 A 
ATOM      7  C   UNL     1       5.414  -0.165  -2.197  0.00  0.00    +0.092 A 
ATOM      8  C   UNL     1       5.093   0.390  -3.450  0.00  0.00    +0.315 A 
BRANCH   8   9
ATOM      9  N   UNL     1       4.175  -0.349  -4.324  0.00  0.00    +0.083 N 
ATOM     10  O   UNL     1       3.676  -1.402  -3.903  0.00  0.00    +0.042 OA
ATOM     11  O   UNL     1       3.935   0.135  -5.443  0.00  0.00    -0.576 OA
ENDBRANCH   8   9
BRANCH   2  12
ATOM     12  O   UNL     1       5.338   2.235  -5.042  0.00  0.00    -0.501 OA
ATOM     13  H   UNL     1       4.769   1.657  -5.590  0.00  0.00    +0.292 HD
ENDBRANCH   2  12
ENDBRANCH   1   6
BRANCH   1  14
ATOM     14  C   UNL     1       7.157  -1.459   0.027  0.00  0.00    +0.217 C 
ATOM     15  N   UNL     1       8.528  -1.561   0.039  0.00  0.00    -0.315 N 
ATOM     16  H   UNL     1       9.117  -0.742  -0.121  0.00  0.00    +0.149 HD
ATOM     17  O   UNL     1       6.408  -2.436   0.015  0.00  0.00    -0.275 OA
BRANCH  15  18
ATOM     18  C   UNL     1       9.165  -2.860   0.070  0.00  0.00    +0.104 C 
BRANCH  18  19
ATOM     19  C   UNL     1      10.685  -2.784   0.056  0.00  0.00    +0.019 C 
BRANCH  19  20
ATOM     20  C   UNL     1      11.261  -2.080   1.288  0.00  0.00    +0.002 C 
BRANCH  20  21
ATOM     21  C   UNL     1      12.792  -1.987   1.257  0.00  0.00    +0.006 C 
BRANCH  21  22
ATOM     22  C   UNL     1      13.371  -1.268   0.040  0.00  0.00    +0.052 C 
BRANCH  22  23
ATOM     23  C   UNL     1      12.861   0.174  -0.030  0.00  0.00    +0.042 C 
ATOM     24  O   UNL     1      13.600   1.035   0.517  0.00  0.00    -0.550 OA
ATOM     25  O   UNL     1      11.748   0.320  -0.621  0.00  0.00    -0.550 OA
ENDBRANCH  22  23
ENDBRANCH  21  22
ENDBRANCH  20  21
ENDBRANCH  19  20
ENDBRANCH  18  19
ENDBRANCH  15  18
ENDBRANCH   1  14
TORSDOF 10
