REMARK  Name = 
REMARK  6 active torsions:
REMARK  status: ('A' for Active; 'I' for Inactive)
REMARK    1  A    between atoms: C_1  and  N_2
REMARK    2  A    between atoms: C_7  and  C_8
REMARK    3  A    between atoms: N_10  and  C_11
REMARK    4  A    between atoms: C_11  and  C_12
REMARK    5  A    between atoms: C_12  and  O_13
REMARK    6  A    between atoms: C_21  and  C_23
REMARK                            x       y       z     vdW  Elec       q    Type
REMARK                         _______ _______ _______ _____ _____    ______ ____
ROOT
ATOM      1  C   UNL     1       1.119  -0.114   0.099  0.00  0.00    +0.149 C 
ATOM      2  N   UNL     1       2.569  -0.118   0.189  0.00  0.00    -0.338 N 
ATOM      3  C   UNL     1       3.367  -1.268   0.128  0.00  0.00    +0.119 A 
ATOM      4  C   UNL     1       4.693  -0.824   0.086  0.00  0.00    +0.056 A 
ATOM      5 BR   UNL     1       6.195  -1.934  -0.131  0.00  0.00    -0.047 Br
ATOM      6  C   UNL     1       4.630   0.566   0.146  0.00  0.00    +0.028 A 
ATOM      7  C   UNL     1       5.696   1.499   0.073  0.00  0.00    +0.062 A 
ATOM      8  C   UNL     1       7.122   1.391   0.033  0.00  0.00    +0.260 A 
ATOM      9  O   UNL     1       7.926   0.472   0.119  0.00  0.00    -0.267 OA
ATOM     10  N   UNL     1       7.525   2.680  -0.124  0.00  0.00    -0.289 N 
ATOM     11  H   UNL     1       8.496   2.910  -0.246  0.00  0.00    +0.172 HD
ATOM     12  C   UNL     1       6.540   3.610  -0.292  0.00  0.00    +0.260 A 
ATOM     13  O   UNL     1       6.801   4.759  -0.625  0.00  0.00    -0.267 OA
ATOM     14  C   UNL     1       5.315   2.883  -0.031  0.00  0.00    +0.060 A 
ATOM     15  C   UNL     1       3.993   3.377   0.103  0.00  0.00    -0.001 A 
ATOM     16  C   UNL     1       3.019   2.383   0.343  0.00  0.00    +0.035 A 
ATOM     17  C   UNL     1       3.346   1.026   0.250  0.00  0.00    +0.052 A 
ENDROOT
BRANCH  15  18
ATOM     18  C   UNL     1       3.627   4.825   0.017  0.00  0.00    +0.001 A 
ATOM     19  C   UNL     1       4.452   5.821   0.584  0.00  0.00    +0.010 A 
ATOM     20  C   UNL     1       4.168   7.192   0.482  0.00  0.00    +0.001 A 
ATOM     21  C   UNL     1       2.988   7.621  -0.102  0.00  0.00    +0.001 A 
ATOM     22  C   UNL     1       2.108   6.677  -0.612  0.00  0.00    +0.020 A 
ATOM     23  C   UNL     1       2.434   5.307  -0.590  0.00  0.00    +0.049 A 
ATOM     24 CL   UNL     1       1.283   4.296  -1.413  0.00  0.00    -0.083 Cl
ENDBRANCH  15  18
BRANCH   3  25
ATOM     25  C   UNL     1       2.816  -2.618   0.061  0.00  0.00    +0.262 C 
ATOM     26  N   UNL     1       3.626  -3.609   0.563  0.00  0.00    -0.308 N 
ATOM     27  H   UNL     1       4.536  -3.356   0.926  0.00  0.00    +0.149 HD
ATOM     28  O   UNL     1       1.697  -2.872  -0.378  0.00  0.00    -0.269 OA
BRANCH  26  29
ATOM     29  C   UNL     1       3.265  -5.016   0.541  0.00  0.00    +0.132 C 
BRANCH  29  30
ATOM     30  C   UNL     1       3.756  -5.713  -0.728  0.00  0.00    +0.174 C 
BRANCH  30  31
ATOM     31  O   UNL     1       5.182  -5.674  -0.792  0.00  0.00    -0.393 OA
ATOM     32  H   UNL     1       5.427  -4.740  -0.912  0.00  0.00    +0.209 HD
ENDBRANCH  30  31
ENDBRANCH  29  30
ENDBRANCH  26  29
ENDBRANCH   3  25
TORSDOF 5
