REMARK  Name = 
REMARK  4 active torsions:
REMARK  status: ('A' for Active; 'I' for Inactive)
REMARK    1  A    between atoms: O_1  and  C_2
REMARK    2  A    between atoms: C_7  and  C_8
REMARK    3  A    between atoms: C_13  and  S_14
REMARK    4  A    between atoms: S_14  and  O_15
REMARK                            x       y       z     vdW  Elec       q    Type
REMARK                         _______ _______ _______ _____ _____    ______ ____
ROOT
ATOM      1  C   UNL     1       2.308  -2.433  -0.111  0.00  0.00    +0.011 A 
ATOM      2  C   UNL     1       1.070  -2.592  -0.786  0.00  0.00    +0.104 A 
ATOM      3  C   UNL     1       0.472  -3.869  -0.894  0.00  0.00    +0.028 A 
ATOM      4  C   UNL     1       1.090  -5.007  -0.378  0.00  0.00    +0.002 A 
ATOM      5  C   UNL     1       2.301  -4.880   0.275  0.00  0.00    +0.001 A 
ATOM      6  C   UNL     1       2.880  -3.618   0.425  0.00  0.00    +0.010 A 
ENDROOT
BRANCH   1   8
ATOM      7  C   UNL     1       4.456  -1.046  -0.005  0.00  0.00    +0.125 A 
ATOM      8  C   UNL     1       3.047  -1.141   0.082  0.00  0.00    +0.025 A 
ATOM      9  C   UNL     1       2.386   0.047   0.446  0.00  0.00    +0.012 A 
ATOM     10  C   UNL     1       3.072   1.250   0.667  0.00  0.00    +0.001 A 
ATOM     11  C   UNL     1       4.459   1.297   0.576  0.00  0.00    +0.004 A 
ATOM     12  C   UNL     1       5.154   0.139   0.252  0.00  0.00    +0.046 A 
BRANCH   7  13
ATOM     13  O   UNL     1       5.205  -2.143  -0.344  0.00  0.00    -0.506 OA
ATOM     14  H   UNL     1       5.933  -2.195   0.303  0.00  0.00    +0.292 HD
ENDBRANCH   7  13
ENDBRANCH   1   8
BRANCH   2  15
ATOM     15  S   UNL     1       0.187  -1.204  -1.583  0.00  0.00    +0.028 S 
ATOM     16  O   UNL     1      -1.236  -1.657  -1.755  0.00  0.00    -0.161 OA
BRANCH  15  17
ATOM     17  O   UNL     1       0.915  -1.428  -2.998  0.00  0.00    -0.265 OA
ATOM     18  H   UNL     1       1.888  -1.363  -2.876  0.00  0.00    +0.243 HD
ENDBRANCH  15  17
ENDBRANCH   2  15
TORSDOF 4
