REMARK  Name = 
REMARK  4 active torsions:
REMARK  status: ('A' for Active; 'I' for Inactive)
REMARK    1  A    between atoms: C_1  and  C_2
REMARK    2  A    between atoms: C_4  and  C_16
REMARK    3  A    between atoms: N_6  and  C_7
REMARK    4  A    between atoms: C_7  and  C_8
REMARK                            x       y       z     vdW  Elec       q    Type
REMARK                         _______ _______ _______ _____ _____    ______ ____
ROOT
ATOM      1  C   UNL     1       0.993   0.066   0.092  0.00  0.00    +0.086 C 
ATOM      2  C   UNL     1       2.459   0.165  -0.118  0.00  0.00    +0.108 A 
ATOM      3  N   UNL     1       3.297  -0.915  -0.306  0.00  0.00    -0.329 N 
ATOM      4  C   UNL     1       4.563  -0.415  -0.482  0.00  0.00    +0.117 A 
ATOM      5  C   UNL     1       4.466   0.940  -0.273  0.00  0.00    +0.107 A 
ATOM      6  N   UNL     1       3.149   1.291  -0.086  0.00  0.00    -0.231 NA
ENDROOT
BRANCH   5   7
ATOM      7  C   UNL     1       5.603   1.840  -0.137  0.00  0.00    +0.096 A 
ATOM      8  C   UNL     1       5.427   3.100   0.389  0.00  0.00    +0.050 A 
ATOM      9  C   UNL     1       6.577   3.820   0.588  0.00  0.00    +0.116 A 
ATOM     10  N   UNL     1       7.804   3.357   0.288  0.00  0.00    -0.223 NA
ATOM     11  C   UNL     1       7.869   2.121  -0.214  0.00  0.00    +0.213 A 
ATOM     12  N   UNL     1       9.118   1.630  -0.533  0.00  0.00    -0.327 N 
ATOM     13  H   UNL     1       9.752   2.401  -0.688  0.00  0.00    +0.145 HD
ATOM     14  H   UNL     1       9.032   0.944  -1.270  0.00  0.00    +0.145 HD
ATOM     15  N   UNL     1       6.821   1.338  -0.455  0.00  0.00    -0.213 NA
ENDBRANCH   5   7
BRANCH   3  16
ATOM     16  C   UNL     1       3.020  -2.320  -0.005  0.00  0.00    +0.161 C 
BRANCH  16  17
ATOM     17  C   UNL     1       2.322  -3.094  -1.099  0.00  0.00    +0.009 A 
ATOM     18  C   UNL     1       1.049  -3.667  -0.889  0.00  0.00    +0.047 A 
ATOM     19 CL   UNL     1       0.214  -3.556   0.624  0.00  0.00    -0.083 Cl
ATOM     20  C   UNL     1       0.404  -4.407  -1.890  0.00  0.00    +0.020 A 
ATOM     21  C   UNL     1       1.009  -4.596  -3.127  0.00  0.00    +0.003 A 
ATOM     22  C   UNL     1       2.281  -4.082  -3.344  0.00  0.00    +0.020 A 
ATOM     23  C   UNL     1       2.940  -3.362  -2.337  0.00  0.00    +0.047 A 
ATOM     24 CL   UNL     1       4.575  -2.926  -2.682  0.00  0.00    -0.083 Cl
ENDBRANCH  16  17
ENDBRANCH   3  16
TORSDOF 3
