REMARK  Name = 
REMARK  5 active torsions:
REMARK  status: ('A' for Active; 'I' for Inactive)
REMARK    1  A    between atoms: O_1  and  C_2
REMARK    2  A    between atoms: C_5  and  C_8
REMARK    3  A    between atoms: C_8  and  C_25
REMARK    4  A    between atoms: C_17  and  N_22
REMARK    5  A    between atoms: C_28  and  O_29
REMARK                            x       y       z     vdW  Elec       q    Type
REMARK                         _______ _______ _______ _____ _____    ______ ____
ROOT
ATOM      1  C   UNL     1       6.666  -0.148  -0.475  0.00  0.00    +0.189 C 
ATOM      2  C   UNL     1       7.025  -1.395  -1.317  0.00  0.00    +0.014 A 
ATOM      3  C   UNL     1       7.495  -1.260  -2.641  0.00  0.00    +0.010 A 
ATOM      4  C   UNL     1       7.813  -2.410  -3.424  0.00  0.00    +0.060 A 
ATOM      5  C   UNL     1       7.600  -3.681  -2.836  0.00  0.00    +0.281 A 
ATOM      6  C   UNL     1       7.167  -3.827  -1.520  0.00  0.00    +0.085 A 
ATOM      7  C   UNL     1       8.342  -2.221  -4.725  0.00  0.00    +0.015 A 
ATOM      8  C   UNL     1       8.557  -0.949  -5.246  0.00  0.00    +0.002 A 
ATOM      9  C   UNL     1       8.235   0.162  -4.483  0.00  0.00    +0.015 A 
ATOM     10  C   UNL     1       7.700   0.009  -3.194  0.00  0.00    +0.067 A 
ATOM     11  C   UNL     1       7.403   1.234  -2.435  0.00  0.00    +0.341 C 
ATOM     12  O   UNL     1       7.567   2.340  -2.933  0.00  0.00    -0.245 OA
ATOM     13  C   UNL     1       6.923  -2.689  -0.763  0.00  0.00    +0.015 A 
ATOM     14  O   UNL     1       6.963   1.097  -1.177  0.00  0.00    -0.440 OA
ENDROOT
BRANCH   1  18
ATOM     15  C   UNL     1       2.320  -0.042   0.217  0.00  0.00    +0.117 A 
ATOM     16  C   UNL     1       3.064  -1.109   0.688  0.00  0.00    +0.046 A 
ATOM     17  C   UNL     1       4.453  -1.120   0.517  0.00  0.00    +0.012 A 
ATOM     18  C   UNL     1       5.131  -0.088  -0.168  0.00  0.00    +0.005 A 
ATOM     19  C   UNL     1       4.339   1.006  -0.584  0.00  0.00    +0.012 A 
ATOM     20  C   UNL     1       2.949   1.031  -0.395  0.00  0.00    +0.046 A 
BRANCH  15  21
ATOM     21  O   UNL     1       0.969  -0.087   0.379  0.00  0.00    -0.507 OA
ATOM     22  H   UNL     1       0.577   0.679  -0.071  0.00  0.00    +0.292 HD
ENDBRANCH  15  21
ENDBRANCH   1  18
BRANCH   1  23
ATOM     23  C   UNL     1       7.605  -0.003   0.749  0.00  0.00    +0.005 A 
ATOM     24  C   UNL     1       9.006   0.041   0.538  0.00  0.00    +0.012 A 
ATOM     25  C   UNL     1       9.896   0.303   1.581  0.00  0.00    +0.046 A 
ATOM     26  C   UNL     1       9.406   0.525   2.857  0.00  0.00    +0.117 A 
ATOM     27  C   UNL     1       8.042   0.464   3.110  0.00  0.00    +0.046 A 
ATOM     28  C   UNL     1       7.147   0.207   2.061  0.00  0.00    +0.012 A 
BRANCH  26  29
ATOM     29  O   UNL     1      10.302   0.827   3.838  0.00  0.00    -0.507 OA
ATOM     30  H   UNL     1       9.813   1.125   4.622  0.00  0.00    +0.292 HD
ENDBRANCH  26  29
ENDBRANCH   1  23
BRANCH   5  31
ATOM     31  N   UNL     1       7.872  -4.909  -3.567  0.00  0.00    +0.080 N 
ATOM     32  O   UNL     1       8.679  -5.697  -3.057  0.00  0.00    +0.041 OA
ATOM     33  O   UNL     1       7.258  -5.092  -4.626  0.00  0.00    -0.576 OA
ENDBRANCH   5  31
TORSDOF 5
