REMARK  Name = 
REMARK  10 active torsions:
REMARK  status: ('A' for Active; 'I' for Inactive)
REMARK    1  A    between atoms: C_1  and  C_2
REMARK    2  A    between atoms: C_2  and  C_3
REMARK    3  A    between atoms: C_3  and  C_4
REMARK    4  A    between atoms: N_6  and  C_7
REMARK    5  A    between atoms: C_11  and  C_15
REMARK    6  A    between atoms: C_16  and  O_17
REMARK    7  A    between atoms: O_17  and  C_18
REMARK    8  A    between atoms: C_18  and  C_19
REMARK    9  A    between atoms: C_21  and  S_23
REMARK   10  A    between atoms: S_23  and  N_24
REMARK                            x       y       z     vdW  Elec       q    Type
REMARK                         _______ _______ _______ _____ _____    ______ ____
ROOT
ATOM      1  C   UNL     1       4.619   1.491  -0.349  0.00  0.00    +0.089 A 
ATOM      2  C   UNL     1       5.456   1.777   0.745  0.00  0.00    +0.119 A 
ATOM      3  N   UNL     1       5.143   2.106   2.070  0.00  0.00    -0.225 NA
ATOM      4  C   UNL     1       6.197   2.243   2.824  0.00  0.00    +0.146 A 
ATOM      5  N   UNL     1       7.510   2.117   2.406  0.00  0.00    -0.305 N 
ATOM      6  H   UNL     1       8.265   2.229   3.069  0.00  0.00    +0.170 HD
ATOM      7  C   UNL     1       7.871   1.822   1.116  0.00  0.00    +0.278 A 
ATOM      8  O   UNL     1       9.039   1.718   0.763  0.00  0.00    -0.265 OA
ATOM      9  C   UNL     1       6.736   1.649   0.289  0.00  0.00    +0.151 A 
ATOM     10  N   UNL     1       6.634   1.329  -1.028  0.00  0.00    -0.260 N 
ATOM     11  C   UNL     1       7.717   1.084  -1.950  0.00  0.00    +0.173 C 
ATOM     12  N   UNL     1       5.352   1.234  -1.450  0.00  0.00    -0.174 NA
ENDROOT
BRANCH   4  13
ATOM     13  C   UNL     1       6.005   2.573   4.237  0.00  0.00    +0.068 A 
ATOM     14  C   UNL     1       4.887   3.309   4.767  0.00  0.00    +0.051 A 
ATOM     15  C   UNL     1       4.976   3.518   6.126  0.00  0.00    +0.146 A 
ATOM     16  S   UNL     1       6.362   2.781   6.776  0.00  0.00    -0.031 S 
ATOM     17  C   UNL     1       6.885   2.195   5.249  0.00  0.00    +0.171 A 
BRANCH  15  18
ATOM     18  S   UNL     1       3.943   4.362   7.297  0.00  0.00    +0.062 S 
ATOM     19  O   UNL     1       2.768   4.737   6.550  0.00  0.00    -0.153 OA
ATOM     20  O   UNL     1       4.798   5.312   7.967  0.00  0.00    -0.153 OA
BRANCH  18  21
ATOM     21  N   UNL     1       3.467   3.214   8.424  0.00  0.00    -0.203 NA
ATOM     22  H   UNL     1       2.845   2.514   8.024  0.00  0.00    +0.144 HD
ATOM     23  H   UNL     1       4.250   2.851   8.964  0.00  0.00    +0.144 HD
ENDBRANCH  18  21
ENDBRANCH  15  18
BRANCH  17  24
ATOM     24  O   UNL     1       8.030   1.509   5.077  0.00  0.00    -0.485 OA
BRANCH  24  25
ATOM     25  C   UNL     1       8.468   0.686   6.162  0.00  0.00    +0.226 C 
ATOM     26  C   UNL     1       9.740  -0.025   5.743  0.00  0.00    +0.048 C 
ENDBRANCH  24  25
ENDBRANCH  17  24
ENDBRANCH   4  13
BRANCH   1  27
ATOM     27  C   UNL     1       3.129   1.451  -0.408  0.00  0.00    +0.059 C 
BRANCH  27  29
ATOM     28  C   UNL     1       1.075   0.054  -0.863  0.00  0.00    +0.004 C 
ATOM     29  C   UNL     1       2.594   0.073  -0.811  0.00  0.00    +0.003 C 
ENDBRANCH  27  29
ENDBRANCH   1  27
TORSDOF 7
