REMARK  Name = 
REMARK  4 active torsions:
REMARK  status: ('A' for Active; 'I' for Inactive)
REMARK    1  A    between atoms: O_1  and  C_2
REMARK    2  A    between atoms: C_4  and  O_5
REMARK    3  A    between atoms: C_6  and  C_7
REMARK    4  A    between atoms: C_14  and  O_15
REMARK                            x       y       z     vdW  Elec       q    Type
REMARK                         _______ _______ _______ _____ _____    ______ ____
ROOT
ATOM      1  C   UNL     1       2.323   0.239  -0.014  0.00  0.00    +0.124 A 
ATOM      2  C   UNL     1       2.943  -0.995   0.135  0.00  0.00    +0.091 A 
ATOM      3  C   UNL     1       4.334  -1.056   0.211  0.00  0.00    +0.136 A 
ATOM      4  C   UNL     1       5.117   0.103   0.077  0.00  0.00    +0.123 A 
ATOM      5  C   UNL     1       4.467   1.338  -0.045  0.00  0.00    +0.136 A 
ATOM      6  C   UNL     1       3.071   1.411  -0.096  0.00  0.00    +0.091 A 
ENDROOT
BRANCH   4   7
ATOM      7  C   UNL     1       6.588   0.011   0.221  0.00  0.00    +0.270 C 
ATOM      8  N   UNL     1       7.561   0.744  -0.498  0.00  0.00    -0.290 N 
ATOM      9  C   UNL     1       7.427   1.404  -1.710  0.00  0.00    +0.094 A 
ATOM     10  C   UNL     1       8.646   1.939  -2.072  0.00  0.00    +0.020 A 
ATOM     11  C   UNL     1       9.567   1.620  -1.053  0.00  0.00    +0.020 A 
ATOM     12  C   UNL     1       8.888   0.880  -0.114  0.00  0.00    +0.094 A 
ATOM     13  O   UNL     1       7.007  -0.817   1.038  0.00  0.00    -0.266 OA
ENDBRANCH   4   7
BRANCH   1  14
ATOM     14  O   UNL     1       0.959   0.263  -0.037  0.00  0.00    -0.507 OA
ATOM     15  H   UNL     1       0.649   1.183  -0.050  0.00  0.00    +0.292 HD
ENDBRANCH   1  14
BRANCH   3  16
ATOM     16  O   UNL     1       4.872  -2.291   0.464  0.00  0.00    -0.506 OA
ATOM     17  H   UNL     1       5.762  -2.155   0.857  0.00  0.00    +0.292 HD
ENDBRANCH   3  16
BRANCH   5  18
ATOM     18  O   UNL     1       5.197   2.493  -0.044  0.00  0.00    -0.506 OA
ATOM     19  H   UNL     1       4.606   3.264  -0.056  0.00  0.00    +0.292 HD
ENDBRANCH   5  18
TORSDOF 4
