REMARK  Name = 
REMARK  5 active torsions:
REMARK  status: ('A' for Active; 'I' for Inactive)
REMARK    1  A    between atoms: C_2  and  C_3
REMARK    2  A    between atoms: N_13  and  C_14
REMARK    3  A    between atoms: C_14  and  C_15
REMARK    4  A    between atoms: C_16  and  C_17
REMARK    5  A    between atoms: C_16  and  C_18
REMARK                            x       y       z     vdW  Elec       q    Type
REMARK                         _______ _______ _______ _____ _____    ______ ____
ROOT
ATOM      1  C   UNL     1       2.010   0.072   0.018  0.00  0.00    +0.074 C 
ATOM      2  C   UNL     1       0.477   0.053   0.055  0.00  0.00    +0.026 C 
ATOM      3  N   UNL     1       2.459   1.444   0.385  0.00  0.00    -0.290 NA
ATOM      4  C   UNL     1       2.678   2.329  -0.779  0.00  0.00    +0.122 C 
ATOM      5  C   UNL     1       3.991   2.148  -1.487  0.00  0.00    -0.006 A 
ATOM      6  C   UNL     1       4.827   3.240  -1.775  0.00  0.00    +0.027 A 
ATOM      7  C   UNL     1       6.151   3.041  -2.223  0.00  0.00    +0.043 A 
ATOM      8  C   UNL     1       6.683   1.759  -2.389  0.00  0.00    +0.047 A 
ATOM      9  C   UNL     1       5.834   0.709  -2.144  0.00  0.00    +0.067 A 
ATOM     10  N   UNL     1       6.086  -0.661  -2.158  0.00  0.00    -0.334 N 
ATOM     11  H   UNL     1       6.971  -1.107  -2.343  0.00  0.00    +0.168 HD
ATOM     12  C   UNL     1       4.910  -1.344  -1.793  0.00  0.00    +0.159 A 
ATOM     13  S   UNL     1       4.810  -2.988  -1.647  0.00  0.00    -0.013 S 
ATOM     14  N   UNL     1       3.922  -0.366  -1.574  0.00  0.00    -0.318 N 
ATOM     15 CL   UNL     1       7.151   4.414  -2.509  0.00  0.00    -0.083 Cl
ATOM     16  C   UNL     1       4.509   0.896  -1.755  0.00  0.00    +0.072 A 
ATOM     17  C   UNL     1       2.497  -0.519  -1.331  0.00  0.00    +0.143 C 
ENDROOT
BRANCH   3  18
ATOM     18  C   UNL     1       3.585   1.366   1.334  0.00  0.00    +0.112 C 
BRANCH  18  19
ATOM     19  C   UNL     1       4.024   2.676   1.923  0.00  0.00    -0.013 C 
ATOM     20  C   UNL     1       5.288   3.086   2.159  0.00  0.00    -0.078 C 
ATOM     21  C   UNL     1       5.554   4.395   2.855  0.00  0.00    +0.038 C 
ATOM     22  C   UNL     1       6.539   2.317   1.820  0.00  0.00    +0.038 C 
ENDBRANCH  18  19
ENDBRANCH   3  18
TORSDOF 2
