REMARK  Name = 
REMARK  7 active torsions:
REMARK  status: ('A' for Active; 'I' for Inactive)
REMARK    1  A    between atoms: C_1  and  C_2
REMARK    2  A    between atoms: C_2  and  C_3
REMARK    3  A    between atoms: N_5  and  S_6
REMARK    4  A    between atoms: S_6  and  C_9
REMARK    5  A    between atoms: C_12  and  C_15
REMARK    6  A    between atoms: C_16  and  C_17
REMARK    7  A    between atoms: C_20  and  C_21
REMARK                            x       y       z     vdW  Elec       q    Type
REMARK                         _______ _______ _______ _____ _____    ______ ____
ROOT
ATOM      1  C   UNL     1       6.870   0.848  -3.175  0.00  0.00    +0.109 A 
ATOM      2  C   UNL     1       7.625  -0.253  -2.782  0.00  0.00    +0.029 A 
ATOM      3  C   UNL     1       9.021  -0.196  -2.875  0.00  0.00    +0.010 A 
ATOM      4  C   UNL     1       9.666   0.926  -3.425  0.00  0.00    -0.012 A 
ATOM      5  C   UNL     1       8.891   2.066  -3.680  0.00  0.00    +0.010 A 
ATOM      6  C   UNL     1       7.496   2.040  -3.530  0.00  0.00    +0.029 A 
ENDROOT
BRANCH   4   7
ATOM      7  C   UNL     1      11.068   0.835  -3.851  0.00  0.00    +0.052 A 
ATOM      8  C   UNL     1      11.803  -0.269  -4.444  0.00  0.00    +0.121 A 
ATOM      9  N   UNL     1      13.072   0.098  -4.682  0.00  0.00    -0.077 NA
ATOM     10  O   UNL     1      13.181   1.408  -4.315  0.00  0.00    -0.359 OA
ATOM     11  C   UNL     1      11.996   1.866  -3.838  0.00  0.00    +0.142 A 
ATOM     12  C   UNL     1      12.045   3.295  -3.462  0.00  0.00    +0.090 C 
BRANCH   8  13
ATOM     13  C   UNL     1      11.385  -1.638  -4.785  0.00  0.00    +0.004 A 
ATOM     14  C   UNL     1      10.082  -1.937  -5.207  0.00  0.00    +0.010 A 
ATOM     15  C   UNL     1       9.672  -3.261  -5.389  0.00  0.00    +0.001 A 
ATOM     16  C   UNL     1      10.584  -4.302  -5.231  0.00  0.00    +0.000 A 
ATOM     17  C   UNL     1      11.907  -4.018  -4.907  0.00  0.00    +0.001 A 
ATOM     18  C   UNL     1      12.303  -2.697  -4.678  0.00  0.00    +0.010 A 
ENDBRANCH   8  13
ENDBRANCH   4   7
BRANCH   1  19
ATOM     19  S   UNL     1       5.102   0.716  -3.299  0.00  0.00    +0.074 S 
ATOM     20  O   UNL     1       4.627  -0.299  -2.389  0.00  0.00    -0.150 OA
ATOM     21  O   UNL     1       4.561   2.063  -3.265  0.00  0.00    -0.150 OA
BRANCH  19  23
ATOM     22  C   UNL     1       5.281  -1.042  -5.380  0.00  0.00    +0.232 C 
ATOM     23  N   UNL     1       4.887   0.207  -4.873  0.00  0.00    -0.185 N 
ATOM     24  H   UNL     1       4.452   0.909  -5.462  0.00  0.00    +0.177 HD
ATOM     25  O   UNL     1       5.847  -1.889  -4.710  0.00  0.00    -0.274 OA
BRANCH  22  27
ATOM     26  C   UNL     1       6.284  -0.911  -7.647  0.00  0.00    +0.013 C 
ATOM     27  C   UNL     1       5.029  -1.238  -6.857  0.00  0.00    +0.094 C 
ENDBRANCH  22  27
ENDBRANCH  19  23
ENDBRANCH   1  19
TORSDOF 5
