REMARK  Name = 
REMARK  12 active torsions:
REMARK  status: ('A' for Active; 'I' for Inactive)
REMARK    1  A    between atoms: CA_2  and  CB_3
REMARK    2  A    between atoms: CA_2  and  N_4
REMARK    3  A    between atoms: CA_2  and  C_23
REMARK    4  A    between atoms: C_5  and  C_7
REMARK    5  A    between atoms: C_7  and  C_8
REMARK    6  A    between atoms: C_8  and  C_9
REMARK    7  A    between atoms: C_9  and  P_10
REMARK    8  A    between atoms: P_10  and  O_11
REMARK    9  A    between atoms: P_10  and  O_13
REMARK   10  A    between atoms: O_13  and  C_14
REMARK   11  A    between atoms: C_17  and  N_20
REMARK   12  A    between atoms: C_23  and  O_24
REMARK                            x       y       z     vdW  Elec       q    Type
REMARK                         _______ _______ _______ _____ _____    ______ ____
ROOT
ATOM      1  P   UNK A   0       1.862  -7.961  -1.213  0.00  0.00    +0.379 P 
ATOM      2  O   UNK A   0       1.962  -7.474   0.199  0.00  0.00    -0.244 OA
ENDROOT
BRANCH   1   3
ATOM      3  O   UNK A   0       1.938  -9.570  -1.265  0.00  0.00    -0.315 OA
ATOM      4  H   UNK A   0       2.609  -9.918  -0.648  0.00  0.00    +0.221 HD
ENDBRANCH   1   3
BRANCH   1   5
ATOM      5  C   UNK A   0       0.328  -7.588  -2.074  0.00  0.00    +0.141 C 
BRANCH   5   6
ATOM      6  C   UNK A   0      -0.853  -8.233  -1.354  0.00  0.00    +0.022 C 
BRANCH   6   7
ATOM      7  C   UNK A   0      -2.229  -7.939  -1.952  0.00  0.00    +0.096 C 
BRANCH   7  10
ATOM      8  N   ALA A   1      -4.578  -8.505  -1.569  0.00  0.00    -0.303 N 
ATOM      9  H   ALA A   1      -4.805  -7.896  -2.348  0.00  0.00    +0.149 HD
ATOM     10  C   UNK A   0      -3.284  -8.688  -1.152  0.00  0.00    +0.214 C 
ATOM     11  O   UNK A   0      -3.013  -9.410  -0.198  0.00  0.00    -0.276 OA
BRANCH   8  12
ATOM     12  CA  ALA A   1      -5.672  -9.197  -0.892  0.00  0.00    +0.178 C 
ATOM     13  CB  ALA A   1      -6.222  -8.369   0.259  0.00  0.00    +0.040 C 
BRANCH  12  14
ATOM     14  C   ALA A   1      -6.783  -9.508  -1.892  0.00  0.00    +0.325 C 
ATOM     15  OXT ALA A   1      -7.039  -8.807  -2.862  0.00  0.00    -0.249 OA
BRANCH  14  16
ATOM     16  O   ALA A   1      -7.486 -10.628  -1.599  0.00  0.00    -0.479 OA
ATOM     17  H   ALA A   1      -7.164 -11.115  -0.817  0.00  0.00    +0.295 HD
ENDBRANCH  14  16
ENDBRANCH  12  14
ENDBRANCH   8  12
ENDBRANCH   7  10
ENDBRANCH   6   7
ENDBRANCH   5   6
ENDBRANCH   1   5
BRANCH   1  18
ATOM     18  O   UNK A   0       3.087  -7.551  -2.175  0.00  0.00    -0.424 OA
BRANCH  18  19
ATOM     19  C   UNK A   0       3.668  -6.314  -2.152  0.00  0.00    +0.130 A 
ATOM     20  C   UNK A   0       2.929  -5.140  -2.038  0.00  0.00    +0.053 A 
ATOM     21  C   UNK A   0       3.578  -3.904  -1.994  0.00  0.00    +0.088 A 
ATOM     22  C   UNK A   0       4.976  -3.854  -2.060  0.00  0.00    +0.273 A 
ATOM     23  C   UNK A   0       5.724  -5.028  -2.204  0.00  0.00    +0.088 A 
ATOM     24  C   UNK A   0       5.059  -6.261  -2.258  0.00  0.00    +0.053 A 
BRANCH  22  25
ATOM     25  N   UNK A   0       5.655  -2.556  -1.960  0.00  0.00    +0.080 N 
ATOM     26  O   UNK A   0       4.950  -1.542  -1.852  0.00  0.00    +0.041 OA
ATOM     27  O   UNK A   0       6.894  -2.552  -1.986  0.00  0.00    -0.576 OA
ENDBRANCH  22  25
ENDBRANCH  18  19
ENDBRANCH   1  18
TORSDOF 11
