REMARK  Name = 
REMARK  2 active torsions:
REMARK  status: ('A' for Active; 'I' for Inactive)
REMARK    1  A    between atoms: O_1  and  C_2
REMARK    2  A    between atoms: C_4  and  O_5
REMARK                            x       y       z     vdW  Elec       q    Type
REMARK                         _______ _______ _______ _____ _____    ______ ____
ROOT
ATOM      1  C   UNL     1       3.248  -1.511   1.192  0.00  0.00    +0.139 A 
ATOM      2  C   UNL     1       2.776  -2.690   0.738  0.00  0.00    +0.087 A 
ATOM      3 CL   UNL     1       1.175  -2.675   0.077  0.00  0.00    -0.079 Cl
ATOM      4  C   UNL     1       3.706  -3.745   0.472  0.00  0.00    -0.001 A 
ATOM      5  C   UNL     1       4.340  -3.463  -1.003  0.00  0.00    +0.112 C 
ATOM      6  C   UNL     1       3.629  -4.223  -2.049  0.00  0.00    +0.138 C 
ATOM      7  C   UNL     1       3.520  -5.666  -1.680  0.00  0.00    +0.074 C 
ATOM      8  C   UNL     1       2.171  -5.878  -0.998  0.00  0.00    +0.007 C 
ATOM      9  C   UNL     1       2.282  -6.981  -0.052  0.00  0.00    +0.001 C 
ATOM     10  C   UNL     1       1.344  -8.187  -0.336  0.00  0.00    +0.004 C 
ATOM     11  C   UNL     1       2.378  -9.240  -0.225  0.00  0.00    +0.027 C 
ATOM     12  C   UNL     1       2.545 -10.681  -0.207  0.00  0.00    -0.031 C 
ATOM     13  C   UNL     1       3.843 -10.927   0.044  0.00  0.00    -0.028 C 
ATOM     14  C   UNL     1       4.712  -9.978   1.039  0.00  0.00    +0.068 C 
ATOM     15  C   UNL     1       5.453  -8.382   0.952  0.00  0.00    +0.236 C 
ATOM     16  O   UNL     1       4.810  -6.898   1.283  0.00  0.00    -0.461 OA
ATOM     17  C   UNL     1       5.543  -5.617   1.217  0.00  0.00    +0.343 C 
ATOM     18  O   UNL     1       6.754  -5.651   1.027  0.00  0.00    -0.245 OA
ATOM     19  O   UNL     1       3.263  -3.732  -3.113  0.00  0.00    -0.297 OA
ATOM     20  C   UNL     1       4.807  -4.058   1.318  0.00  0.00    +0.105 A 
ATOM     21  C   UNL     1       5.367  -2.759   1.603  0.00  0.00    +0.135 A 
ATOM     22  C   UNL     1       4.624  -1.515   1.563  0.00  0.00    +0.093 A 
ENDROOT
BRANCH   1  23
ATOM     23  O   UNL     1       2.631  -0.295   1.038  0.00  0.00    -0.505 OA
ATOM     24  H   UNL     1       1.753  -0.466   0.645  0.00  0.00    +0.292 HD
ENDBRANCH   1  23
BRANCH  21  25
ATOM     25  O   UNL     1       6.730  -2.576   1.623  0.00  0.00    -0.506 OA
ATOM     26  H   UNL     1       6.902  -1.692   1.259  0.00  0.00    +0.292 HD
ENDBRANCH  21  25
TORSDOF 2
