REMARK  Name = 
REMARK  6 active torsions:
REMARK  status: ('A' for Active; 'I' for Inactive)
REMARK    1  A    between atoms: O_1  and  C_2
REMARK    2  A    between atoms: C_2  and  C_3
REMARK    3  A    between atoms: C_6  and  C_7
REMARK    4  A    between atoms: C_6  and  C_9
REMARK    5  A    between atoms: N_11  and  C_12
REMARK    6  A    between atoms: C_15  and  C_18
REMARK                            x       y       z     vdW  Elec       q    Type
REMARK                         _______ _______ _______ _____ _____    ______ ____
ROOT
ATOM      1  C   UNL     1       4.455  -2.787   2.245  0.00  0.00    +0.262 C 
ATOM      2  N   UNL     1       3.090  -2.976   2.370  0.00  0.00    -0.281 N 
ATOM      3  H   UNL     1       2.492  -2.326   1.866  0.00  0.00    +0.155 HD
ATOM      4  O   UNL     1       5.310  -3.551   2.690  0.00  0.00    -0.269 OA
ENDROOT
BRANCH   2   5
ATOM      5  C   UNL     1       2.455  -4.010   3.098  0.00  0.00    +0.034 A 
ATOM      6  C   UNL     1       1.101  -4.265   2.874  0.00  0.00    +0.024 A 
ATOM      7  C   UNL     1       0.453  -5.332   3.529  0.00  0.00    +0.010 A 
ATOM      8  C   UNL     1       1.131  -6.165   4.438  0.00  0.00    -0.018 A 
ATOM      9  C   UNL     1       2.475  -5.850   4.688  0.00  0.00    +0.010 A 
ATOM     10  C   UNL     1       3.122  -4.792   4.037  0.00  0.00    +0.024 A 
BRANCH   8  11
ATOM     11  C   UNL     1       0.485  -7.337   5.088  0.00  0.00    -0.018 A 
ATOM     12  C   UNL     1      -0.506  -8.093   4.435  0.00  0.00    +0.008 A 
ATOM     13  C   UNL     1      -1.083  -9.222   5.032  0.00  0.00    +0.001 A 
ATOM     14  C   UNL     1      -0.673  -9.631   6.296  0.00  0.00    +0.000 A 
ATOM     15  C   UNL     1       0.305  -8.907   6.967  0.00  0.00    +0.001 A 
ATOM     16  C   UNL     1       0.868  -7.772   6.373  0.00  0.00    +0.008 A 
ENDBRANCH   8  11
ENDBRANCH   2   5
BRANCH   1  18
ATOM     17  C   UNL     1       4.167  -0.487   1.227  0.00  0.00    +0.119 C 
ATOM     18  C   UNL     1       4.913  -1.594   1.457  0.00  0.00    +0.151 C 
BRANCH  17  19
ATOM     19  C   UNL     1       4.663   0.740   0.557  0.00  0.00    +0.056 C 
ATOM     20  C   UNL     1       3.825   1.338  -0.550  0.00  0.00    +0.012 C 
ATOM     21  C   UNL     1       5.152   0.719  -0.869  0.00  0.00    +0.012 C 
ENDBRANCH  17  19
BRANCH  17  22
ATOM     22  O   UNL     1       2.858  -0.427   1.700  0.00  0.00    -0.509 OA
ATOM     23  H   UNL     1       2.575   0.507   1.646  0.00  0.00    +0.292 HD
ENDBRANCH  17  22
BRANCH  18  24
ATOM     24  C   UNL     1       6.271  -1.643   1.007  0.00  0.00    +0.108 C 
ATOM     25  N   UNL     1       7.359  -1.636   0.602  0.00  0.00    -0.191 NA
ENDBRANCH  18  24
ENDBRANCH   1  18
TORSDOF 6
