REMARK  Name = 
REMARK  8 active torsions:
REMARK  status: ('A' for Active; 'I' for Inactive)
REMARK    1  A    between atoms: C_1  and  C_2
REMARK    2  A    between atoms: C_2  and  O_3
REMARK    3  A    between atoms: O_3  and  C_4
REMARK    4  A    between atoms: C_4  and  C_6
REMARK    5  A    between atoms: C_6  and  C_7
REMARK    6  A    between atoms: C_7  and  C_8
REMARK    7  A    between atoms: C_11  and  S_14
REMARK    8  A    between atoms: S_14  and  N_15
REMARK                            x       y       z     vdW  Elec       q    Type
REMARK                         _______ _______ _______ _____ _____    ______ ____
ROOT
ATOM      1  C   UNL     1       6.825   4.462   0.612  0.00  0.00    -0.047 A 
ATOM      2  C   UNL     1       8.024   4.855  -0.008  0.00  0.00    +0.005 A 
ATOM      3  C   UNL     1       8.452   6.182   0.047  0.00  0.00    +0.029 A 
ATOM      4  C   UNL     1       7.687   7.117   0.746  0.00  0.00    +0.105 A 
ATOM      5  C   UNL     1       6.501   6.744   1.377  0.00  0.00    +0.029 A 
ATOM      6  C   UNL     1       6.079   5.416   1.324  0.00  0.00    +0.005 A 
ENDROOT
BRANCH   4   7
ATOM      7  S   UNL     1       8.221   8.797   0.845  0.00  0.00    +0.056 S 
ATOM      8  O   UNL     1       7.081   9.645   1.100  0.00  0.00    -0.153 OA
ATOM      9  O   UNL     1       9.170   9.061  -0.210  0.00  0.00    -0.153 OA
BRANCH   7  10
ATOM     10  N   UNL     1       9.105   8.761   2.271  0.00  0.00    -0.204 NA
ATOM     11  H   UNL     1       8.663   9.350   2.975  0.00  0.00    +0.144 HD
ATOM     12  H   UNL     1      10.083   8.982   2.084  0.00  0.00    +0.144 HD
ENDBRANCH   7  10
ENDBRANCH   4   7
BRANCH   1  13
ATOM     13  C   UNL     1       6.388   3.017   0.517  0.00  0.00    +0.046 C 
BRANCH  13  14
ATOM     14  C   UNL     1       4.872   2.841   0.482  0.00  0.00    +0.125 C 
BRANCH  14  15
ATOM     15  C   UNL     1       4.482   1.432   0.135  0.00  0.00    +0.307 C 
ATOM     16  O   UNL     1       5.254   0.518  -0.109  0.00  0.00    -0.251 OA
BRANCH  15  17
ATOM     17  O   UNL     1       3.123   1.370   0.055  0.00  0.00    -0.465 OA
BRANCH  17  19
ATOM     18  C   UNL     1       2.587   0.595  -2.137  0.00  0.00    +0.048 C 
ATOM     19  C   UNL     1       2.605   0.243  -0.660  0.00  0.00    +0.229 C 
ENDBRANCH  17  19
ENDBRANCH  15  17
ENDBRANCH  14  15
ENDBRANCH  13  14
ENDBRANCH   1  13
TORSDOF 7
