REMARK  Name = 
REMARK  11 active torsions:
REMARK  status: ('A' for Active; 'I' for Inactive)
REMARK    1  A    between atoms: C_2  and  C_3
REMARK    2  A    between atoms: C_3  and  O_4
REMARK    3  A    between atoms: O_4  and  P_5
REMARK    4  A    between atoms: P_5  and  O_6
REMARK    5  A    between atoms: P_5  and  C_8
REMARK    6  A    between atoms: C_8  and  C_9
REMARK    7  A    between atoms: C_9  and  C_10
REMARK    8  A    between atoms: C_10  and  C_11
REMARK    9  A    between atoms: C_11  and  C_12
REMARK   10  A    between atoms: C_16  and  C_17
REMARK   11  A    between atoms: C_16  and  C_18
REMARK                            x       y       z     vdW  Elec       q    Type
REMARK                         _______ _______ _______ _____ _____    ______ ____
ROOT
ATOM      1  P   UNL     1       4.464   0.210  -3.227  0.00  0.00    +0.330 P 
ATOM      2  O   UNL     1       3.478  -0.909  -3.568  0.00  0.00    -0.259 OA
ENDROOT
BRANCH   1   3
ATOM      3  O   UNL     1       3.981   0.069  -1.571  0.00  0.00    -0.324 OA
ATOM      4  H   UNL     1       3.290  -0.627  -1.614  0.00  0.00    +0.220 HD
ENDBRANCH   1   3
BRANCH   1   5
ATOM      5  O   UNL     1       5.906  -0.471  -2.803  0.00  0.00    -0.305 OA
BRANCH   5   6
ATOM      6  C   UNL     1       6.033  -1.825  -2.368  0.00  0.00    +0.204 C 
BRANCH   6   7
ATOM      7  C   UNL     1       5.420  -2.181  -0.999  0.00  0.00    +0.173 C 
ATOM      8  O   UNL     1       5.758  -3.526  -0.628  0.00  0.00    -0.341 OA
ATOM      9  C   UNL     1       6.729  -3.421   0.418  0.00  0.00    +0.165 C 
ATOM     10  C   UNL     1       7.994  -4.132  -0.034  0.00  0.00    +0.074 C 
ATOM     11  C   UNL     1       6.163  -4.060   1.686  0.00  0.00    +0.074 C 
ATOM     12  O   UNL     1       7.036  -2.048   0.666  0.00  0.00    -0.347 OA
ATOM     13  C   UNL     1       5.912  -1.331   0.155  0.00  0.00    +0.197 C 
ENDBRANCH   6   7
ENDBRANCH   5   6
ENDBRANCH   1   5
BRANCH   1  14
ATOM     14  C   UNL     1       4.976   0.359  -4.977  0.00  0.00    +0.127 C 
BRANCH  14  15
ATOM     15  C   UNL     1       6.025   1.456  -5.154  0.00  0.00    +0.012 C 
BRANCH  15  16
ATOM     16  C   UNL     1       6.446   1.619  -6.613  0.00  0.00    +0.005 C 
BRANCH  16  17
ATOM     17  C   UNL     1       7.469   2.748  -6.766  0.00  0.00    +0.026 C 
BRANCH  17  18
ATOM     18  C   UNL     1       7.899   2.905  -8.195  0.00  0.00    -0.034 C 
ATOM     19  C   UNL     1       7.732   4.025  -8.909  0.00  0.00    +0.004 C 
ENDBRANCH  17  18
ENDBRANCH  16  17
ENDBRANCH  15  16
ENDBRANCH  14  15
ENDBRANCH   1  14
TORSDOF 9
