REMARK  Name = 
REMARK  20 active torsions:
REMARK  status: ('A' for Active; 'I' for Inactive)
REMARK    1  A    between atoms: C_2  and  C_3
REMARK    2  A    between atoms: C_2  and  N_4
REMARK    3  A    between atoms: C_2  and  C_27
REMARK    4  A    between atoms: C_5  and  C_7
REMARK    5  A    between atoms: C_7  and  C_9
REMARK    6  A    between atoms: C_7  and  N_13
REMARK    7  A    between atoms: C_9  and  C_10
REMARK    8  A    between atoms: C_10  and  C_11
REMARK    9  A    between atoms: C_10  and  C_12
REMARK   10  A    between atoms: C_14  and  C_16
REMARK   11  A    between atoms: C_16  and  C_18
REMARK   12  A    between atoms: C_16  and  C_22
REMARK   13  A    between atoms: C_18  and  C_19
REMARK   14  A    between atoms: C_19  and  C_20
REMARK   15  A    between atoms: C_19  and  C_21
REMARK   16  A    between atoms: C_22  and  C_23
REMARK   17  A    between atoms: N_25  and  O_26
REMARK   18  A    between atoms: C_27  and  O_29
REMARK   19  A    between atoms: O_29  and  C_30
REMARK   20  A    between atoms: C_30  and  C_31
REMARK                            x       y       z     vdW  Elec       q    Type
REMARK                         _______ _______ _______ _____ _____    ______ ____
ROOT
ATOM      1  C   UNL     1       2.783  -5.871   4.753  0.00  0.00    +0.159 C 
ENDROOT
BRANCH   1   4
ATOM      2  N   UNL     1       5.078  -6.749   4.512  0.00  0.00    -0.301 N 
ATOM      3  H   UNL     1       4.607  -7.574   4.128  0.00  0.00    +0.150 HD
ATOM      4  C   UNL     1       4.312  -5.660   4.844  0.00  0.00    +0.234 C 
ATOM      5  O   UNL     1       4.796  -4.590   5.206  0.00  0.00    -0.274 OA
BRANCH   2   6
ATOM      6  C   UNL     1       6.535  -6.720   4.471  0.00  0.00    +0.179 C 
ATOM      7  C   UNL     1       7.095  -7.195   5.802  0.00  0.00    +0.040 C 
BRANCH   6   8
ATOM      8  C   UNL     1       7.128  -7.542   3.315  0.00  0.00    +0.327 C 
ATOM      9  O   UNL     1       8.326  -7.613   3.073  0.00  0.00    -0.249 OA
BRANCH   8  10
ATOM     10  O   UNL     1       6.151  -8.132   2.567  0.00  0.00    -0.464 OA
BRANCH  10  11
ATOM     11  C   UNL     1       6.556  -8.633   1.287  0.00  0.00    +0.229 C 
ATOM     12  C   UNL     1       6.355  -7.524   0.270  0.00  0.00    +0.048 C 
ENDBRANCH  10  11
ENDBRANCH   8  10
ENDBRANCH   6   8
ENDBRANCH   2   6
ENDBRANCH   1   4
BRANCH   1  13
ATOM     13  N   UNL     1       2.386  -6.130   3.354  0.00  0.00    -0.304 N 
ATOM     14  H   UNL     1       2.122  -5.325   2.799  0.00  0.00    +0.149 HD
ATOM     15  C   UNL     1       2.634  -7.316   2.707  0.00  0.00    +0.217 C 
ATOM     16  O   UNL     1       3.231  -8.245   3.252  0.00  0.00    -0.275 OA
BRANCH  15  17
ATOM     17  C   UNL     1       2.143  -7.420   1.271  0.00  0.00    +0.084 C 
BRANCH  17  18
ATOM     18  C   UNL     1       2.627  -8.763   0.700  0.00  0.00    +0.110 C 
BRANCH  18  19
ATOM     19  C   UNL     1       2.447  -8.885  -0.789  0.00  0.00    +0.236 C 
ATOM     20  N   UNL     1       2.322 -10.184  -1.218  0.00  0.00    -0.197 N 
ATOM     21  H   UNL     1       1.987 -10.929  -0.614  0.00  0.00    +0.182 HD
ATOM     22  O   UNL     1       2.472  -7.933  -1.566  0.00  0.00    -0.274 OA
BRANCH  20  23
ATOM     23  O   UNL     1       2.073 -10.346  -2.602  0.00  0.00    -0.295 OA
ATOM     24  H   UNL     1       2.129  -9.424  -2.936  0.00  0.00    +0.241 HD
ENDBRANCH  20  23
ENDBRANCH  18  19
ENDBRANCH  17  18
BRANCH  17  25
ATOM     25  C   UNL     1       0.620  -7.216   1.131  0.00  0.00    +0.016 C 
BRANCH  25  26
ATOM     26  C   UNL     1      -0.294  -8.324   1.704  0.00  0.00    -0.016 C 
ATOM     27  C   UNL     1      -1.738  -8.081   1.255  0.00  0.00    +0.007 C 
ATOM     28  C   UNL     1      -0.258  -8.411   3.229  0.00  0.00    +0.007 C 
ENDBRANCH  25  26
ENDBRANCH  17  25
ENDBRANCH  15  17
ENDBRANCH   1  13
BRANCH   1  29
ATOM     29  C   UNL     1       2.236  -6.925   5.737  0.00  0.00    +0.034 C 
BRANCH  29  30
ATOM     30  C   UNL     1       2.655  -6.771   7.211  0.00  0.00    -0.015 C 
ATOM     31  C   UNL     1       2.125  -7.965   8.013  0.00  0.00    +0.007 C 
ATOM     32  C   UNL     1       2.157  -5.470   7.837  0.00  0.00    +0.007 C 
ENDBRANCH  29  30
ENDBRANCH   1  29
TORSDOF 14
