REMARK  Name = 
REMARK  6 active torsions:
REMARK  status: ('A' for Active; 'I' for Inactive)
REMARK    1  A    between atoms: O_1  and  C_2
REMARK    2  A    between atoms: C_5  and  C_6
REMARK    3  A    between atoms: C_6  and  C_7
REMARK    4  A    between atoms: C_7  and  C_8
REMARK    5  A    between atoms: C_10  and  O_11
REMARK    6  A    between atoms: C_13  and  O_14
REMARK                            x       y       z     vdW  Elec       q    Type
REMARK                         _______ _______ _______ _____ _____    ______ ____
ROOT
ATOM      1  C   UNL     1       7.198  -1.291  -0.630  0.00  0.00    +0.040 C 
ENDROOT
BRANCH   1   2
ATOM      2  C   UNL     1       8.651  -1.174  -1.019  0.00  0.00    -0.040 A 
ATOM      3  C   UNL     1       9.027  -1.197  -2.369  0.00  0.00    +0.049 A 
ATOM      4  C   UNL     1      10.374  -1.148  -2.719  0.00  0.00    +0.121 A 
ATOM      5  C   UNL     1      11.363  -1.067  -1.746  0.00  0.00    +0.090 A 
ATOM      6  C   UNL     1      10.989  -1.028  -0.408  0.00  0.00    +0.121 A 
ATOM      7  C   UNL     1       9.647  -1.075  -0.035  0.00  0.00    +0.049 A 
BRANCH   4   8
ATOM      8  O   UNL     1      10.685  -1.194  -4.046  0.00  0.00    -0.507 OA
ATOM      9  H   UNL     1      11.653  -1.173  -4.134  0.00  0.00    +0.292 HD
ENDBRANCH   4   8
BRANCH   6  10
ATOM     10  O   UNL     1      11.982  -0.954   0.525  0.00  0.00    -0.507 OA
ATOM     11  H   UNL     1      11.579  -0.946   1.409  0.00  0.00    +0.292 HD
ENDBRANCH   6  10
ENDBRANCH   1   2
BRANCH   1  12
ATOM     12  C   UNL     1       6.480   0.062  -0.532  0.00  0.00    +0.040 C 
BRANCH  12  16
ATOM     13  C   UNL     1       2.317  -0.041   0.635  0.00  0.00    +0.117 A 
ATOM     14  C   UNL     1       2.793   0.983  -0.174  0.00  0.00    +0.045 A 
ATOM     15  C   UNL     1       4.138   0.997  -0.557  0.00  0.00    +0.007 A 
ATOM     16  C   UNL     1       5.015  -0.019  -0.144  0.00  0.00    -0.047 A 
ATOM     17  C   UNL     1       4.507  -1.040   0.676  0.00  0.00    +0.007 A 
ATOM     18  C   UNL     1       3.163  -1.058   1.058  0.00  0.00    +0.045 A 
BRANCH  13  19
ATOM     19  O   UNL     1       1.006  -0.013   1.004  0.00  0.00    -0.507 OA
ATOM     20  H   UNL     1       0.842  -0.751   1.613  0.00  0.00    +0.292 HD
ENDBRANCH  13  19
ENDBRANCH  12  16
ENDBRANCH   1  12
TORSDOF 6
