REMARK  Name = 
REMARK  17 active torsions:
REMARK  status: ('A' for Active; 'I' for Inactive)
REMARK    1  A    between atoms: C_1  and  C_2
REMARK    2  A    between atoms: C_2  and  C_3
REMARK    3  A    between atoms: C_3  and  C_4
REMARK    4  A    between atoms: C_4  and  C_5
REMARK    5  A    between atoms: C_5  and  C_6
REMARK    6  A    between atoms: C_7  and  C_8
REMARK    7  A    between atoms: C_9  and  C_10
REMARK    8  A    between atoms: C_9  and  C_11
REMARK    9  A    between atoms: C_11  and  C_13
REMARK   10  A    between atoms: C_14  and  O_15
REMARK   11  A    between atoms: C_17  and  C_18
REMARK   12  A    between atoms: C_18  and  C_19
REMARK   13  A    between atoms: C_19  and  C_20
REMARK   14  A    between atoms: C_20  and  C_21
REMARK   15  A    between atoms: C_22  and  N_23
REMARK   16  A    between atoms: C_24  and  O_26
REMARK   17  A    between atoms: O_26  and  C_27
REMARK                            x       y       z     vdW  Elec       q    Type
REMARK                         _______ _______ _______ _____ _____    ______ ____
ROOT
ATOM      1  C   UNL     1      10.290  -2.965   5.775  0.00  0.00    +0.147 A 
ATOM      2  C   UNL     1      11.122  -4.195   5.934  0.00  0.00    +0.351 A 
ATOM      3  O   UNL     1      10.725  -5.346   5.864  0.00  0.00    -0.244 OA
ATOM      4  O   UNL     1      12.440  -4.067   6.209  0.00  0.00    -0.427 OA
ATOM      5  C   UNL     1      13.081  -2.840   6.286  0.00  0.00    +0.113 A 
ATOM      6  C   UNL     1      12.380  -1.714   6.176  0.00  0.00    +0.088 A 
ATOM      7  C   UNL     1      10.958  -1.790   5.935  0.00  0.00    +0.138 A 
ENDROOT
BRANCH   1   8
ATOM      8  C   UNL     1       8.796  -2.879   5.489  0.00  0.00    +0.199 C 
ATOM      9  O   UNL     1       8.265  -1.758   5.564  0.00  0.00    -0.287 OA
BRANCH   8  11
ATOM     10  C   UNL     1       6.628  -3.764   4.726  0.00  0.00    +0.007 C 
ATOM     11  C   UNL     1       7.902  -4.048   5.083  0.00  0.00    -0.003 C 
ATOM     12  C   UNL     1       8.393  -5.454   5.105  0.00  0.00    +0.048 C 
BRANCH  10  14
ATOM     13  C   UNL     1       4.366  -4.592   4.007  0.00  0.00    -0.073 C 
ATOM     14  C   UNL     1       5.657  -4.766   4.313  0.00  0.00    -0.001 C 
ATOM     15  C   UNL     1       3.687  -3.258   4.043  0.00  0.00    +0.039 C 
BRANCH  13  16
ATOM     16  C   UNL     1       3.543  -5.812   3.632  0.00  0.00    +0.030 C 
BRANCH  16  17
ATOM     17  C   UNL     1       2.973  -5.790   2.213  0.00  0.00    +0.004 C 
BRANCH  17  19
ATOM     18  C   UNL     1       3.389  -5.673  -0.257  0.00  0.00    +0.004 C 
ATOM     19  C   UNL     1       4.038  -5.698   1.118  0.00  0.00    -0.003 C 
ENDBRANCH  17  19
ENDBRANCH  16  17
ENDBRANCH  13  16
ENDBRANCH  10  14
ENDBRANCH   8  11
ENDBRANCH   1   8
BRANCH   7  20
ATOM     20  O   UNL     1      10.400  -0.527   5.888  0.00  0.00    -0.506 OA
ATOM     21  H   UNL     1       9.426  -0.613   5.782  0.00  0.00    +0.292 HD
ENDBRANCH   7  20
BRANCH   5  22
ATOM     22  C   UNL     1      14.548  -2.998   6.506  0.00  0.00    +0.075 C 
BRANCH  22  23
ATOM     23  C   UNL     1      15.181  -3.831   5.378  0.00  0.00    +0.012 C 
BRANCH  23  24
ATOM     24  C   UNL     1      16.659  -4.059   5.662  0.00  0.00    +0.029 C 
BRANCH  24  25
ATOM     25  C   UNL     1      17.356  -4.770   4.540  0.00  0.00    -0.012 C 
ATOM     26  C   UNL     1      18.362  -4.194   3.871  0.00  0.00    +0.073 C 
BRANCH  26  27
ATOM     27  N   UNL     1      19.053  -4.813   2.871  0.00  0.00    -0.258 N 
ATOM     28  H   UNL     1      18.828  -5.758   2.596  0.00  0.00    +0.158 HD
ATOM     29  C   UNL     1      20.089  -4.221   2.196  0.00  0.00    +0.404 C 
ATOM     30  O   UNL     1      20.510  -3.087   2.384  0.00  0.00    -0.226 OA
BRANCH  29  31
ATOM     31  O   UNL     1      20.587  -5.088   1.279  0.00  0.00    -0.453 OA
ATOM     32  C   UNL     1      21.672  -4.544   0.525  0.00  0.00    +0.282 C 
ENDBRANCH  29  31
ENDBRANCH  26  27
ENDBRANCH  24  25
ENDBRANCH  23  24
ENDBRANCH  22  23
ENDBRANCH   5  22
TORSDOF 13
