REMARK  Name = 
REMARK  7 active torsions:
REMARK  status: ('A' for Active; 'I' for Inactive)
REMARK    1  A    between atoms: C_2  and  N_3
REMARK    2  A    between atoms: C_2  and  B_12
REMARK    3  A    between atoms: C_2  and  C_15
REMARK    4  A    between atoms: C_4  and  C_6
REMARK    5  A    between atoms: C_6  and  C_7
REMARK    6  A    between atoms: B_12  and  O_13
REMARK    7  A    between atoms: B_12  and  O_14
REMARK                            x       y       z     vdW  Elec       q    Type
REMARK                         _______ _______ _______ _____ _____    ______ ____
ROOT
ATOM      1  C   UNL     1       2.094  -0.092   0.042  0.00  0.00    +0.000 C 
ENDROOT
BRANCH   1   2
ATOM      2  C   UNL     1       2.581  -1.515  -0.221  0.00  0.00    +0.000 A 
ATOM      3  C   UNL     1       2.258  -2.536   0.696  0.00  0.00    +0.000 A 
ATOM      4  C   UNL     1       2.666  -3.855   0.468  0.00  0.00    +0.000 A 
ATOM      5  C   UNL     1       3.397  -4.176  -0.676  0.00  0.00    +0.000 A 
ATOM      6  C   UNL     1       3.724  -3.180  -1.595  0.00  0.00    +0.000 A 
ATOM      7  C   UNL     1       3.321  -1.860  -1.375  0.00  0.00    +0.000 A 
ENDBRANCH   1   2
BRANCH   1   8
ATOM      8  N   UNL     1       2.491   0.807  -1.033  0.00  0.00    +0.000 N 
ATOM      9  H   UNL     1       3.500   0.963  -1.187  0.00  0.00    +0.000 HD
ATOM     10  C   UNL     1       1.607   1.416  -1.874  0.00  0.00    +0.000 C 
ATOM     11  O   UNL     1       0.401   1.262  -1.731  0.00  0.00    +0.000 OA
BRANCH  10  12
ATOM     12  C   UNL     1       2.105   2.249  -3.024  0.00  0.00    +0.000 C 
BRANCH  12  13
ATOM     13  C   UNL     1       1.618   3.660  -2.932  0.00  0.00    +0.000 A 
ATOM     14  S   UNL     1       0.643   4.421  -4.072  0.00  0.00    +0.000 S 
ATOM     15  C   UNL     1       0.577   5.903  -3.279  0.00  0.00    +0.000 A 
ATOM     16  C   UNL     1       1.323   5.814  -2.111  0.00  0.00    +0.000 A 
ATOM     17  C   UNL     1       1.907   4.558  -1.913  0.00  0.00    +0.000 A 
ENDBRANCH  12  13
ENDBRANCH  10  12
ENDBRANCH   1   8
BRANCH   1  18
ATOM     18  B   UNL     1       2.656   0.483   1.447  0.00  0.00    +0.000 B 
BRANCH  18  19
ATOM     19  O   UNL     1       4.094   0.680   1.658  0.00  0.00    +0.000 OA
ATOM     20  H   UNL     1       4.560   0.233   0.910  0.00  0.00    +0.000 HD
ENDBRANCH  18  19
BRANCH  18  21
ATOM     21  O   UNL     1       1.739   0.829   2.541  0.00  0.00    +0.000 OA
ATOM     22  H   UNL     1       0.817   0.686   2.208  0.00  0.00    +0.000 HD
ENDBRANCH  18  21
ENDBRANCH   1  18
TORSDOF 7
