REMARK  Name = 
REMARK  21 active torsions:
REMARK  status: ('A' for Active; 'I' for Inactive)
REMARK    1  A    between atoms: C_2  and  N_3
REMARK    2  A    between atoms: C_2  and  C_4
REMARK    3  A    between atoms: C_2  and  C_23
REMARK    4  A    between atoms: C_4  and  S_5
REMARK    5  A    between atoms: S_5  and  C_6
REMARK    6  A    between atoms: C_6  and  C_8
REMARK    7  A    between atoms: C_8  and  C_9
REMARK    8  A    between atoms: C_9  and  C_10
REMARK    9  A    between atoms: C_10  and  C_11
REMARK   10  A    between atoms: C_11  and  C_12
REMARK   11  A    between atoms: C_12  and  C_13
REMARK   12  A    between atoms: C_13  and  C_14
REMARK   13  A    between atoms: C_14  and  C_15
REMARK   14  A    between atoms: C_15  and  C_16
REMARK   15  A    between atoms: C_16  and  C_17
REMARK   16  A    between atoms: C_17  and  C_18
REMARK   17  A    between atoms: C_18  and  C_19
REMARK   18  A    between atoms: C_19  and  C_20
REMARK   19  A    between atoms: C_20  and  C_21
REMARK   20  A    between atoms: C_21  and  C_22
REMARK   21  A    between atoms: C_23  and  O_24
REMARK                            x       y       z     vdW  Elec       q    Type
REMARK                         _______ _______ _______ _____ _____    ______ ____
ROOT
ATOM      1  C   UNK     1       2.934  -2.759  -6.063  0.00  0.00    +0.008 C 
ENDROOT
BRANCH   1   2
ATOM      2  C   UNK     1       2.567  -3.970  -6.918  0.00  0.00    +0.000 C 
BRANCH   2   3
ATOM      3  C   UNK     1       3.181  -3.861  -8.312  0.00  0.00    +0.000 C 
BRANCH   3   4
ATOM      4  C   UNK     1       2.816  -5.068  -9.173  0.00  0.00    +0.000 C 
BRANCH   4   5
ATOM      5  C   UNK     1       3.435  -4.948 -10.563  0.00  0.00    +0.000 C 
BRANCH   5   6
ATOM      6  C   UNK     1       3.076  -6.150 -11.433  0.00  0.00    -0.000 C 
BRANCH   6   7
ATOM      7  C   UNK     1       3.699  -6.023 -12.820  0.00  0.00    -0.000 C 
BRANCH   7   8
ATOM      8  C   UNK     1       3.342  -7.223 -13.693  0.00  0.00    -0.000 C 
BRANCH   8   9
ATOM      9  C   UNK     1       3.966  -7.096 -15.080  0.00  0.00    -0.000 C 
BRANCH   9  10
ATOM     10  C   UNK     1       3.608  -8.297 -15.952  0.00  0.00    -0.000 C 
BRANCH  10  11
ATOM     11  C   UNK     1       4.229  -8.174 -17.341  0.00  0.00    -0.000 C 
BRANCH  11  12
ATOM     12  C   UNK     1       3.869  -9.378 -18.210  0.00  0.00    -0.000 C 
BRANCH  12  13
ATOM     13  C   UNK     1       4.486  -9.262 -19.601  0.00  0.00    -0.003 C 
ATOM     14  C   UNK     1       4.129 -10.461 -20.464  0.00  0.00    +0.004 C 
ENDBRANCH  12  13
ENDBRANCH  11  12
ENDBRANCH  10  11
ENDBRANCH   9  10
ENDBRANCH   8   9
ENDBRANCH   7   8
ENDBRANCH   6   7
ENDBRANCH   5   6
ENDBRANCH   4   5
ENDBRANCH   3   4
ENDBRANCH   2   3
ENDBRANCH   1   2
BRANCH   1  15
ATOM     15  C   UNK     1       2.324  -2.865  -4.669  0.00  0.00    +0.086 C 
BRANCH  15  16
ATOM     16  C   UNK     1       2.645  -1.656  -3.818  0.00  0.00    +0.189 C 
ATOM     17  O   UNK     1       3.257  -0.670  -4.205  0.00  0.00    -0.285 OA
BRANCH  16  18
ATOM     18  S   UNK     1       2.024  -1.771  -2.174  0.00  0.00    -0.086 S 
BRANCH  18  19
ATOM     19  C   UNK     1       1.776   0.009  -1.843  0.00  0.00    +0.107 C 
BRANCH  19  20
ATOM     20  C   UNK     1       1.152   0.256  -0.458  0.00  0.00    +0.171 C 
BRANCH  20  21
ATOM     21  N   UNK     1      -0.141  -0.438  -0.273  0.00  0.00    -0.318 NA
ATOM     22  H   UNK     1      -0.511  -0.417   0.672  0.00  0.00    +0.119 HD
ATOM     23  H   UNK     1      -0.813  -0.325  -1.025  0.00  0.00    +0.119 HD
ENDBRANCH  20  21
BRANCH  20  24
ATOM     24  C   UNK     1       1.013   1.776  -0.268  0.00  0.00    +0.323 C 
ATOM     25  O   UNK     1       1.942   2.565  -0.334  0.00  0.00    -0.249 OA
BRANCH  24  26
ATOM     26  O   UNK     1      -0.257   2.179  -0.023  0.00  0.00    -0.480 OA
ATOM     27  H   UNK     1      -0.852   1.407  -0.011  0.00  0.00    +0.295 HD
ENDBRANCH  24  26
ENDBRANCH  20  24
ENDBRANCH  19  20
ENDBRANCH  18  19
ENDBRANCH  16  18
ENDBRANCH  15  16
ENDBRANCH   1  15
TORSDOF 20
