REMARK  Name = 
REMARK  5 active torsions:
REMARK  status: ('A' for Active; 'I' for Inactive)
REMARK    1  A    between atoms: C_1  and  C_2
REMARK    2  A    between atoms: C_2  and  C_3
REMARK    3  A    between atoms: C_3  and  O_4
REMARK    4  A    between atoms: O_4  and  C_5
REMARK    5  A    between atoms: C_10  and  C_11
REMARK                            x       y       z     vdW  Elec       q    Type
REMARK                         _______ _______ _______ _____ _____    ______ ____
ROOT
ATOM      1  C   UNL     1       4.974   1.934  -1.923  0.00  0.00    +0.133 A 
ATOM      2  C   UNL     1       5.873   1.598  -2.945  0.00  0.00    +0.066 A 
ATOM      3  C   UNL     1       6.441   2.604  -3.705  0.00  0.00    +0.117 A 
ATOM      4  N   UNL     1       6.185   3.918  -3.568  0.00  0.00    -0.237 NA
ATOM      5  C   UNL     1       5.369   4.194  -2.535  0.00  0.00    +0.142 A 
ATOM      6  N   UNL     1       4.977   5.465  -2.230  0.00  0.00    -0.345 N 
ATOM      7  H   UNL     1       5.247   6.272  -2.771  0.00  0.00    +0.167 HD
ATOM      8  C   UNL     1       4.219   5.456  -1.095  0.00  0.00    +0.095 A 
ATOM      9  C   UNL     1       4.119   4.146  -0.643  0.00  0.00    +0.031 A 
ATOM     10  C   UNL     1       4.776   3.312  -1.630  0.00  0.00    +0.069 A 
ENDROOT
BRANCH   9  11
ATOM     11  C   UNL     1       3.463   3.828   0.628  0.00  0.00    +0.078 A 
ATOM     12  C   UNL     1       2.378   4.554   1.079  0.00  0.00    +0.048 A 
ATOM     13  C   UNL     1       1.835   4.142   2.270  0.00  0.00    +0.116 A 
ATOM     14  N   UNL     1       2.290   3.088   2.965  0.00  0.00    -0.223 NA
ATOM     15  C   UNL     1       3.348   2.453   2.456  0.00  0.00    +0.213 A 
ATOM     16  N   UNL     1       3.738   1.289   3.089  0.00  0.00    -0.327 N 
ATOM     17  H   UNL     1       2.970   0.949   3.651  0.00  0.00    +0.145 HD
ATOM     18  H   UNL     1       4.117   0.650   2.402  0.00  0.00    +0.145 HD
ATOM     19  N   UNL     1       3.963   2.784   1.317  0.00  0.00    -0.215 NA
ENDBRANCH   9  11
BRANCH   1  20
ATOM     20  O   UNL     1       4.392   0.829  -1.316  0.00  0.00    -0.491 OA
BRANCH  20  21
ATOM     21  C   UNL     1       3.040   1.009  -0.905  0.00  0.00    +0.229 C 
BRANCH  21  23
ATOM     22  C   UNL     1       0.691   0.225  -1.030  0.00  0.00    +0.007 C 
ATOM     23  C   UNL     1       2.108  -0.013  -1.539  0.00  0.00    +0.038 C 
ENDBRANCH  21  23
ENDBRANCH  20  21
ENDBRANCH   1  20
TORSDOF 4
