REMARK  Name = 
REMARK  9 active torsions:
REMARK  status: ('A' for Active; 'I' for Inactive)
REMARK    1  A    between atoms: C_2  and  S_3
REMARK    2  A    between atoms: C_2  and  C_4
REMARK    3  A    between atoms: C_2  and  C_7
REMARK    4  A    between atoms: C_4  and  C_5
REMARK    5  A    between atoms: C_5  and  S_6
REMARK    6  A    between atoms: C_7  and  C_8
REMARK    7  A    between atoms: C_8  and  C_9
REMARK    8  A    between atoms: C_9  and  C_10
REMARK    9  A    between atoms: C_10  and  C_11
REMARK                            x       y       z     vdW  Elec       q    Type
REMARK                         _______ _______ _______ _____ _____    ______ ____
ROOT
ATOM      1  C   UNL     1       2.533   1.057  -0.932  0.00  0.00    +0.014 C 
ENDROOT
BRANCH   1   2
ATOM      2  C   UNL     1       1.984  -0.105  -0.087  0.00  0.00    +0.044 C 
BRANCH   2   3
ATOM      3  S   UNL     1       2.546   0.021   1.656  0.00  0.00    -0.175 S 
ATOM      4  H   UNL     1       2.049   1.245   1.893  0.00  0.00    +0.102 HD
ENDBRANCH   2   3
BRANCH   2   5
ATOM      5  C   UNL     1       0.442  -0.130  -0.072  0.00  0.00    +0.024 C 
BRANCH   5   6
ATOM      6  C   UNL     1      -0.168  -0.368  -1.454  0.00  0.00    +0.066 C 
BRANCH   6   7
ATOM      7  S   UNL     1      -1.982  -0.429  -1.348  0.00  0.00    -0.178 S 
ATOM      8  H   UNL     1      -2.057  -1.482  -0.521  0.00  0.00    +0.102 HD
ENDBRANCH   6   7
ENDBRANCH   5   6
ENDBRANCH   2   5
ENDBRANCH   1   2
BRANCH   1   9
ATOM      9  C   UNL     1       4.063   1.175  -0.984  0.00  0.00    +0.002 C 
BRANCH   9  10
ATOM     10  C   UNL     1       4.531   2.333  -1.876  0.00  0.00    +0.009 C 
BRANCH  10  11
ATOM     11  C   UNL     1       4.049   3.695  -1.379  0.00  0.00    +0.095 C 
BRANCH  11  12
ATOM     12  C   UNL     1       4.540   4.842  -2.233  0.00  0.00    +0.210 C 
ATOM     13  O   UNL     1       5.253   4.725  -3.219  0.00  0.00    -0.276 OA
ATOM     14  N   UNL     1       4.100   6.063  -1.813  0.00  0.00    -0.329 N 
ATOM     15  H   UNL     1       4.371   6.874  -2.353  0.00  0.00    +0.145 HD
ATOM     16  H   UNL     1       3.492   6.189  -1.015  0.00  0.00    +0.145 HD
ENDBRANCH  11  12
ENDBRANCH  10  11
ENDBRANCH   9  10
ENDBRANCH   1   9
TORSDOF 9
