REMARK  Name = 
REMARK  6 active torsions:
REMARK  status: ('A' for Active; 'I' for Inactive)
REMARK    1  A    between atoms: C_5  and  N_6
REMARK    2  A    between atoms: N_6  and  C_7
REMARK    3  A    between atoms: C_7  and  O_9
REMARK    4  A    between atoms: O_9  and  C_10
REMARK    5  A    between atoms: C_10  and  C_11
REMARK    6  A    between atoms: C_11  and  N_12
REMARK                            x       y       z     vdW  Elec       q    Type
REMARK                         _______ _______ _______ _____ _____    ______ ____
ROOT
ATOM      1  C   UNL     1      10.158  -2.397  -1.171  0.00  0.00    +0.250 C 
ENDROOT
BRANCH   1   2
ATOM      2  O   UNL     1       9.553  -1.085  -1.022  0.00  0.00    -0.472 OA
BRANCH   2   3
ATOM      3  C   UNL     1       9.259  -0.253  -2.054  0.00  0.00    +0.232 C 
ATOM      4  S   UNL     1       9.430  -0.654  -3.660  0.00  0.00    +0.006 S 
BRANCH   3   5
ATOM      5  N   UNL     1       8.887   1.019  -1.709  0.00  0.00    -0.279 N 
ATOM      6  H   UNL     1       8.991   1.689  -2.462  0.00  0.00    +0.156 HD
BRANCH   5  11
ATOM      7 BR   UNL     1       6.259   3.308   3.292  0.00  0.00    -0.050 Br
ATOM      8  C   UNL     1       7.065   2.581   1.746  0.00  0.00    +0.018 A 
ATOM      9  C   UNL     1       7.616   3.427   0.788  0.00  0.00    +0.017 A 
ATOM     10  C   UNL     1       8.221   2.883  -0.350  0.00  0.00    +0.024 A 
ATOM     11  C   UNL     1       8.302   1.494  -0.521  0.00  0.00    +0.034 A 
ATOM     12  C   UNL     1       7.727   0.659   0.439  0.00  0.00    +0.024 A 
ATOM     13  C   UNL     1       7.104   1.201   1.569  0.00  0.00    +0.017 A 
ENDBRANCH   5  11
ENDBRANCH   3   5
ENDBRANCH   2   3
ENDBRANCH   1   2
BRANCH   1  14
ATOM     14  C   UNL     1      11.660  -2.305  -1.463  0.00  0.00    +0.158 C 
BRANCH  14  15
ATOM     15  N   UNL     1      12.283  -3.611  -1.550  0.00  0.00    -0.231 N 
ATOM     16  C   UNL     1      12.323  -4.377  -2.685  0.00  0.00    +0.254 C 
ATOM     17  O   UNL     1      11.883  -4.135  -3.791  0.00  0.00    -0.270 OA
ATOM     18  C   UNL     1      13.000  -5.623  -2.321  0.00  0.00    +0.049 A 
ATOM     19  C   UNL     1      13.317  -6.733  -3.079  0.00  0.00    +0.014 A 
ATOM     20  C   UNL     1      13.966  -7.791  -2.428  0.00  0.00    +0.001 A 
ATOM     21  C   UNL     1      14.276  -7.713  -1.054  0.00  0.00    +0.001 A 
ATOM     22  C   UNL     1      13.942  -6.580  -0.308  0.00  0.00    +0.014 A 
ATOM     23  C   UNL     1      13.304  -5.552  -0.974  0.00  0.00    +0.049 A 
ATOM     24  C   UNL     1      12.820  -4.267  -0.477  0.00  0.00    +0.254 C 
ATOM     25  O   UNL     1      12.884  -3.911   0.683  0.00  0.00    -0.270 OA
ENDBRANCH  14  15
ENDBRANCH   1  14
TORSDOF 6
