REMARK  Name = 
REMARK  3 active torsions:
REMARK  status: ('A' for Active; 'I' for Inactive)
REMARK    1  A    between atoms: C_2  and  N_12
REMARK    2  A    between atoms: C_10  and  O_11
REMARK    3  A    between atoms: C_13  and  C_14
REMARK                            x       y       z     vdW  Elec       q    Type
REMARK                         _______ _______ _______ _____ _____    ______ ____
ROOT
ATOM      1  C   UNL     1       2.068  -0.002   0.257  0.00  0.00    +0.136 C 
ATOM      2  C   UNL     1       2.645   1.119   1.069  0.00  0.00    -0.017 A 
ATOM      3  C   UNL     1       2.497   2.482   0.851  0.00  0.00    +0.006 A 
ATOM      4  C   UNL     1       3.141   3.371   1.715  0.00  0.00    +0.004 A 
ATOM      5  C   UNL     1       3.919   2.893   2.780  0.00  0.00    +0.046 A 
ATOM      6  C   UNL     1       4.053   1.521   2.984  0.00  0.00    +0.120 A 
ATOM      7  C   UNL     1       3.420   0.641   2.125  0.00  0.00    -0.001 A 
ATOM      8  C   UNL     1       3.429  -0.852   2.177  0.00  0.00    +0.041 C 
ATOM      9  C   UNL     1       2.637  -1.271   0.927  0.00  0.00    +0.036 C 
ENDROOT
BRANCH   1  10
ATOM     10  N   UNL     1       0.604  -0.029   0.146  0.00  0.00    -0.284 NA
ATOM     11  C   UNL     1      -0.072  -0.060   1.238  0.00  0.00    +0.105 C 
BRANCH  11  12
ATOM     12  C   UNL     1      -1.547  -0.104   1.208  0.00  0.00    +0.012 C 
ATOM     13  C   UNL     1      -2.244  -0.186   2.346  0.00  0.00    +0.010 C 
ENDBRANCH  11  12
ENDBRANCH   1  10
BRANCH   6  14
ATOM     14  O   UNL     1       4.796   1.022   4.011  0.00  0.00    -0.506 OA
ATOM     15  H   UNL     1       5.187   1.767   4.497  0.00  0.00    +0.292 HD
ENDBRANCH   6  14
TORSDOF 3
