REMARK  Name = 
REMARK  5 active torsions:
REMARK  status: ('A' for Active; 'I' for Inactive)
REMARK    1  A    between atoms: C_2  and  C_4
REMARK    2  A    between atoms: C_7  and  N_8
REMARK    3  A    between atoms: C_11  and  O_12
REMARK    4  A    between atoms: O_12  and  C_13
REMARK    5  A    between atoms: C_13  and  C_14
REMARK                            x       y       z     vdW  Elec       q    Type
REMARK                         _______ _______ _______ _____ _____    ______ ____
ROOT
ATOM      1  N   UNL     1       4.434  -4.120  -3.605  0.00  0.00    -0.283 N 
ATOM      2  H   UNL     1       5.161  -3.968  -4.290  0.00  0.00    +0.155 HD
ATOM      3  C   UNL     1       4.175  -5.491  -3.491  0.00  0.00    +0.225 A 
ATOM      4  N   UNL     1       3.179  -5.862  -2.662  0.00  0.00    -0.195 NA
ATOM      5  C   UNL     1       3.016  -7.182  -2.604  0.00  0.00    +0.167 A 
ATOM      6  C   UNL     1       3.729  -8.151  -3.274  0.00  0.00    +0.169 A 
ATOM      7  N   UNL     1       3.272  -9.405  -2.923  0.00  0.00    -0.229 NA
ATOM      8  C   UNL     1       2.306  -9.186  -2.054  0.00  0.00    +0.199 A 
ATOM      9  C   UNL     1       4.726  -7.675  -4.128  0.00  0.00    +0.248 A 
ATOM     10  N   UNL     1       2.107  -7.851  -1.847  0.00  0.00    -0.329 N 
ATOM     11  H   UNL     1       1.419  -7.419  -1.244  0.00  0.00    +0.168 HD
ATOM     12  N   UNL     1       4.934  -6.332  -4.237  0.00  0.00    -0.177 NA
ENDROOT
BRANCH   1  16
ATOM     13  C   UNL     1       4.340  -1.143  -0.595  0.00  0.00    +0.037 A 
ATOM     14  C   UNL     1       4.287  -0.794  -1.949  0.00  0.00    +0.015 A 
ATOM     15  C   UNL     1       4.312  -1.791  -2.934  0.00  0.00    +0.024 A 
ATOM     16  C   UNL     1       4.376  -3.147  -2.586  0.00  0.00    +0.034 A 
ATOM     17  C   UNL     1       4.357  -3.478  -1.222  0.00  0.00    +0.024 A 
ATOM     18  C   UNL     1       4.342  -2.489  -0.233  0.00  0.00    +0.015 A 
BRANCH  13  22
ATOM     19  N   UNL     1       5.022   1.065   0.153  0.00  0.00    -0.325 N 
ATOM     20  H   UNL     1       5.584   1.166  -0.680  0.00  0.00    +0.145 HD
ATOM     21  H   UNL     1       5.206   1.699   0.920  0.00  0.00    +0.145 HD
ATOM     22  C   UNL     1       4.419  -0.119   0.478  0.00  0.00    +0.242 C 
ATOM     23  O   UNL     1       4.027  -0.340   1.617  0.00  0.00    -0.270 OA
ENDBRANCH  13  22
ENDBRANCH   1  16
BRANCH   9  24
ATOM     24  O   UNL     1       5.430  -8.562  -4.920  0.00  0.00    -0.475 OA
BRANCH  24  25
ATOM     25  C   UNL     1       6.805  -8.212  -5.090  0.00  0.00    +0.234 C 
BRANCH  25  26
ATOM     26  C   UNL     1       7.510  -9.343  -5.878  0.00  0.00    +0.027 C 
ATOM     27  C   UNL     1       7.440 -10.721  -5.191  0.00  0.00    +0.007 C 
ATOM     28  C   UNL     1       8.393 -10.874  -4.006  0.00  0.00    +0.000 C 
ATOM     29  C   UNL     1       9.823 -10.471  -4.354  0.00  0.00    +0.000 C 
ATOM     30  C   UNL     1       9.885  -9.083  -4.983  0.00  0.00    +0.000 C 
ATOM     31  C   UNL     1       8.969  -8.986  -6.201  0.00  0.00    +0.007 C 
ENDBRANCH  25  26
ENDBRANCH  24  25
ENDBRANCH   9  24
TORSDOF 5
