REMARK  Name = 
REMARK  3 active torsions:
REMARK  status: ('A' for Active; 'I' for Inactive)
REMARK    1  A    between atoms: C_1  and  C_2
REMARK    2  A    between atoms: C_7  and  C_8
REMARK    3  A    between atoms: N_13  and  N_14
REMARK                            x       y       z     vdW  Elec       q    Type
REMARK                         _______ _______ _______ _____ _____    ______ ____
ROOT
ATOM      1  C   UNL     1       2.436  -2.429  -0.127  0.00  0.00    +0.180 A 
ATOM      2  N   UNL     1       2.831  -3.620  -0.697  0.00  0.00    -0.225 N 
ATOM      3  C   UNL     1       1.843  -4.539  -0.397  0.00  0.00    +0.193 A 
ATOM      4  S   UNL     1       1.750  -6.147  -0.785  0.00  0.00    -0.010 S 
ATOM      5  N   UNL     1       0.895  -3.834   0.326  0.00  0.00    -0.253 N 
ATOM      6  H   UNL     1       0.035  -4.196   0.725  0.00  0.00    +0.191 HD
ATOM      7  N   UNL     1       1.280  -2.528   0.484  0.00  0.00    -0.152 NA
ENDROOT
BRANCH   1  10
ATOM      8  C   UNL     1       1.161   0.346   0.056  0.00  0.00    +0.044 C 
ATOM      9  C   UNL     1       2.642   0.114  -0.072  0.00  0.00    -0.040 A 
ATOM     10  C   UNL     1       3.238  -1.170  -0.175  0.00  0.00    +0.024 A 
ATOM     11  C   UNL     1       4.637  -1.250  -0.264  0.00  0.00    +0.012 A 
ATOM     12  C   UNL     1       5.438  -0.106  -0.307  0.00  0.00    +0.001 A 
ATOM     13  C   UNL     1       4.852   1.149  -0.234  0.00  0.00    +0.000 A 
ATOM     14  C   UNL     1       3.469   1.256  -0.112  0.00  0.00    +0.004 A 
ENDBRANCH   1  10
BRANCH   2  15
ATOM     15  N   UNL     1       3.953  -3.894  -1.485  0.00  0.00    -0.295 N 
ATOM     16  H   UNL     1       3.683  -3.746  -2.459  0.00  0.00    +0.163 HD
ATOM     17  H   UNL     1       4.131  -4.901  -1.410  0.00  0.00    +0.163 HD
ENDBRANCH   2  15
TORSDOF 2
