REMARK  Name = 
REMARK  7 active torsions:
REMARK  status: ('A' for Active; 'I' for Inactive)
REMARK    1  A    between atoms: C_1  and  C_2
REMARK    2  A    between atoms: C_2  and  C_3
REMARK    3  A    between atoms: C_2  and  N_4
REMARK    4  A    between atoms: N_11  and  C_12
REMARK    5  A    between atoms: C_12  and  C_13
REMARK    6  A    between atoms: C_13  and  O_14
REMARK    7  A    between atoms: N_17  and  C_18
REMARK                            x       y       z     vdW  Elec       q    Type
REMARK                         _______ _______ _______ _____ _____    ______ ____
ROOT
ATOM      1  N   UNL     1       2.974  -0.579  -1.235  0.00  0.00    -0.314 N 
ATOM      2  C   UNL     1       2.932  -1.859  -1.691  0.00  0.00    +0.145 A 
ATOM      3  N   UNL     1       2.462  -2.971  -1.108  0.00  0.00    -0.312 N 
ATOM      4  H   UNL     1       1.940  -2.983  -0.246  0.00  0.00    +0.170 HD
ATOM      5  C   UNL     1       2.635  -4.149  -1.795  0.00  0.00    +0.196 A 
ATOM      6  N   UNL     1       3.185  -4.252  -2.971  0.00  0.00    -0.195 NA
ATOM      7  C   UNL     1       3.550  -3.117  -3.684  0.00  0.00    +0.186 A 
ATOM      8  N   UNL     1       3.883  -3.150  -4.937  0.00  0.00    -0.226 NA
ATOM      9  N   UNL     1       2.200  -5.252  -1.122  0.00  0.00    -0.313 N 
ATOM     10  H   UNL     1       1.924  -5.169  -0.155  0.00  0.00    +0.149 HD
ATOM     11  C   UNL     1       3.488  -1.854  -2.949  0.00  0.00    +0.150 A 
ATOM     12  N   UNL     1       3.857  -0.576  -3.293  0.00  0.00    -0.230 NA
ATOM     13  C   UNL     1       3.535   0.164  -2.248  0.00  0.00    +0.201 A 
ENDROOT
BRANCH   8  14
ATOM     14  C   UNL     1       3.863  -4.368  -5.653  0.00  0.00    +0.068 A 
ATOM     15  C   UNL     1       2.840  -5.319  -5.532  0.00  0.00    +0.047 A 
ATOM     16  C   UNL     1       2.894  -6.525  -6.227  0.00  0.00    +0.043 A 
ATOM     17 CL   UNL     1       1.686  -7.720  -5.950  0.00  0.00    -0.083 Cl
ATOM     18  C   UNL     1       3.925  -6.773  -7.125  0.00  0.00    +0.020 A 
ATOM     19  C   UNL     1       4.913  -5.808  -7.317  0.00  0.00    +0.003 A 
ATOM     20  C   UNL     1       4.883  -4.618  -6.578  0.00  0.00    +0.028 A 
ENDBRANCH   8  14
BRANCH   1  22
ATOM     21  C   UNL     1       3.659   0.610   0.824  0.00  0.00    +0.030 C 
ATOM     22  C   UNL     1       2.534  -0.088   0.062  0.00  0.00    +0.084 C 
ATOM     23  C   UNL     1       1.299   0.800  -0.066  0.00  0.00    +0.030 C 
ENDBRANCH   1  22
BRANCH   9  24
ATOM     24  C   UNL     1       2.632  -6.596  -1.510  0.00  0.00    +0.132 C 
BRANCH  24  25
ATOM     25  C   UNL     1       4.124  -6.785  -1.215  0.00  0.00    +0.174 C 
BRANCH  25  26
ATOM     26  O   UNL     1       4.382  -6.509   0.165  0.00  0.00    -0.393 OA
ATOM     27  H   UNL     1       4.217  -5.554   0.267  0.00  0.00    +0.209 HD
ENDBRANCH  25  26
ENDBRANCH  24  25
ENDBRANCH   9  24
TORSDOF 5
