REMARK  Name = 
REMARK  2 active torsions:
REMARK  status: ('A' for Active; 'I' for Inactive)
REMARK    1  A    between atoms: N_15  and  C_16
REMARK    2  A    between atoms: C_16  and  C_17
REMARK                            x       y       z     vdW  Elec       q    Type
REMARK                         _______ _______ _______ _____ _____    ______ ____
ROOT
ATOM      1  N   UNL     1       1.160   0.210   1.065  0.00  0.00    -0.329 N 
ATOM      2  H   UNL     1       0.591  -0.390   0.483  0.00  0.00    +0.145 HD
ATOM      3  H   UNL     1       0.747   1.128   1.202  0.00  0.00    +0.145 HD
ATOM      4  C   UNL     1       2.478   0.291   0.762  0.00  0.00    +0.194 A 
ATOM      5  N   UNL     1       3.077  -0.833   0.278  0.00  0.00    -0.295 N 
ATOM      6  H   UNL     1       2.555  -1.690   0.208  0.00  0.00    +0.172 HD
ATOM      7  C   UNL     1       4.413  -0.908  -0.039  0.00  0.00    +0.260 A 
ATOM      8  O   UNL     1       4.927  -1.956  -0.421  0.00  0.00    -0.267 OA
ATOM      9  C   UNL     1       5.176   0.348   0.086  0.00  0.00    +0.067 A 
ATOM     10  C   UNL     1       4.471   1.457   0.564  0.00  0.00    +0.082 A 
ATOM     11  C   UNL     1       5.112   2.691   0.654  0.00  0.00    +0.056 A 
ATOM     12  C   UNL     1       6.428   2.763   0.199  0.00  0.00    +0.069 A 
ATOM     13  N   UNL     1       7.278   3.822   0.058  0.00  0.00    -0.326 N 
ATOM     14  H   UNL     1       7.091   4.780   0.305  0.00  0.00    +0.169 HD
ATOM     15  C   UNL     1       8.451   3.379  -0.486  0.00  0.00    +0.194 A 
ATOM     16  N   UNL     1       9.383   4.315  -0.751  0.00  0.00    -0.311 N 
ATOM     17  H   UNL     1       9.098   5.097  -1.333  0.00  0.00    +0.149 HD
ATOM     18  N   UNL     1       8.436   2.073  -0.628  0.00  0.00    -0.215 NA
ATOM     19  C   UNL     1       7.160   1.674  -0.258  0.00  0.00    +0.092 A 
ATOM     20  C   UNL     1       6.533   0.417  -0.300  0.00  0.00    +0.045 A 
ATOM     21  N   UNL     1       3.114   1.403   0.924  0.00  0.00    -0.216 NA
ENDROOT
BRANCH  16  22
ATOM     22  C   UNL     1      10.769   3.956  -0.972  0.00  0.00    +0.140 C 
BRANCH  22  23
ATOM     23  C   UNL     1      11.632   5.178  -0.672  0.00  0.00    -0.023 A 
ATOM     24  C   UNL     1      12.129   6.066  -1.672  0.00  0.00    -0.013 A 
ATOM     25  C   UNL     1      13.006   7.112  -1.277  0.00  0.00    -0.018 A 
ATOM     26  C   UNL     1      13.591   7.950  -2.240  0.00  0.00    +0.008 A 
ATOM     27  C   UNL     1      13.311   7.793  -3.595  0.00  0.00    +0.001 A 
ATOM     28  C   UNL     1      12.405   6.821  -3.995  0.00  0.00    +0.001 A 
ATOM     29  C   UNL     1      13.302   7.314   0.077  0.00  0.00    +0.008 A 
ATOM     30  C   UNL     1      12.762   6.485   1.053  0.00  0.00    +0.001 A 
ATOM     31  C   UNL     1      11.817   5.975  -3.049  0.00  0.00    +0.009 A 
ATOM     32  C   UNL     1      11.943   5.424   0.681  0.00  0.00    +0.006 A 
ENDBRANCH  22  23
ENDBRANCH  16  22
TORSDOF 2
