REMARK  Name = 
REMARK  7 active torsions:
REMARK  status: ('A' for Active; 'I' for Inactive)
REMARK    1  A    between atoms: CA_2  and  CB_3
REMARK    2  A    between atoms: CA_2  and  N_10
REMARK    3  A    between atoms: CA_2  and  C_16
REMARK    4  A    between atoms: CB_3  and  CG_4
REMARK    5  A    between atoms: C_11  and  C_13
REMARK    6  A    between atoms: C_13  and  O_14
REMARK    7  A    between atoms: C_16  and  O_17
REMARK                            x       y       z     vdW  Elec       q    Type
REMARK                         _______ _______ _______ _____ _____    ______ ____
ROOT
ATOM      1  CA  PHE A   1       2.046   0.035   0.170  0.00  0.00    +0.186 C 
ENDROOT
BRANCH   1   2
ATOM      2  N   PHE A   1       2.453   0.596   1.461  0.00  0.00    -0.293 N 
ATOM      3  H   PHE A   1       1.911   0.384   2.297  0.00  0.00    +0.150 HD
ATOM      4  C   UNK A   0       3.630   1.275   1.636  0.00  0.00    +0.322 C 
ATOM      5  O   UNK A   0       4.482   1.425   0.768  0.00  0.00    -0.263 OA
BRANCH   4   6
ATOM      6  C   UNK A   0       3.897   1.800   3.059  0.00  0.00    +0.392 C 
ATOM      7  O   UNK A   0       3.162   1.546   3.995  0.00  0.00    -0.240 OA
BRANCH   6   8
ATOM      8  O   UNK A   0       5.031   2.518   3.104  0.00  0.00    -0.474 OA
ATOM      9  H   UNK A   0       5.439   2.556   2.209  0.00  0.00    +0.296 HD
ENDBRANCH   6   8
ENDBRANCH   4   6
ENDBRANCH   1   2
BRANCH   1  10
ATOM     10  C   PHE A   1       2.612  -1.387   0.033  0.00  0.00    +0.326 C 
ATOM     11  OXT PHE A   1       1.952  -2.383  -0.222  0.00  0.00    -0.249 OA
BRANCH  10  12
ATOM     12  O   PHE A   1       3.963  -1.440   0.166  0.00  0.00    -0.479 OA
ATOM     13  H   PHE A   1       4.378  -0.554   0.254  0.00  0.00    +0.295 HD
ENDBRANCH  10  12
ENDBRANCH   1  10
BRANCH   1  14
ATOM     14  CB  PHE A   1       0.520   0.025  -0.014  0.00  0.00    +0.069 C 
BRANCH  14  15
ATOM     15  CG  PHE A   1      -0.127   1.394   0.054  0.00  0.00    -0.045 A 
ATOM     16  CD2 PHE A   1      -1.123   1.648   1.008  0.00  0.00    +0.004 A 
ATOM     17  CE2 PHE A   1      -1.751   2.894   1.068  0.00  0.00    +0.000 A 
ATOM     18  CZ  PHE A   1      -1.393   3.900   0.174  0.00  0.00    +0.000 A 
ATOM     19  CE1 PHE A   1      -0.411   3.658  -0.786  0.00  0.00    +0.000 A 
ATOM     20  CD1 PHE A   1       0.216   2.410  -0.849  0.00  0.00    +0.004 A 
ENDBRANCH  14  15
ENDBRANCH   1  14
TORSDOF 7
