REMARK  Name = 
REMARK  6 active torsions:
REMARK  status: ('A' for Active; 'I' for Inactive)
REMARK    1  A    between atoms: C_1  and  C_2
REMARK    2  A    between atoms: C_4  and  S_9
REMARK    3  A    between atoms: C_6  and  C_7
REMARK    4  A    between atoms: S_9  and  C_12
REMARK    5  A    between atoms: C_13  and  C_14
REMARK    6  A    between atoms: C_16  and  N_17
REMARK                            x       y       z     vdW  Elec       q    Type
REMARK                         _______ _______ _______ _____ _____    ______ ____
ROOT
ATOM      1  S   UNL     1       5.533   2.582   0.042  0.00  0.00    +0.026 S 
ATOM      2  O   UNL     1       6.920   2.151   0.116  0.00  0.00    -0.164 OA
ATOM      3  O   UNL     1       4.930   3.257   1.183  0.00  0.00    -0.164 OA
ENDROOT
BRANCH   1  10
ATOM      4  C   UNL     1       0.883   0.030   0.185  0.00  0.00    +0.044 C 
ATOM      5  C   UNL     1       2.373   0.019  -0.014  0.00  0.00    -0.048 A 
ATOM      6  C   UNL     1       3.031  -1.217  -0.133  0.00  0.00    +0.006 A 
ATOM      7  C   UNL     1       4.416  -1.281  -0.306  0.00  0.00    -0.048 A 
ATOM      8  C   UNL     1       5.110  -2.610  -0.337  0.00  0.00    +0.044 C 
ATOM      9  C   UNL     1       5.152  -0.096  -0.381  0.00  0.00    +0.030 A 
ATOM     10  C   UNL     1       4.517   1.140  -0.221  0.00  0.00    +0.094 A 
ATOM     11  C   UNL     1       3.128   1.203  -0.034  0.00  0.00    +0.030 A 
ENDBRANCH   1  10
BRANCH   1  12
ATOM     12  C   UNL     1       5.485   3.754  -1.289  0.00  0.00    +0.113 A 
ATOM     13  C   UNL     1       5.591   5.109  -0.934  0.00  0.00    +0.029 A 
ATOM     14  C   UNL     1       5.529   6.094  -1.913  0.00  0.00    +0.004 A 
ATOM     15  C   UNL     1       5.257   5.734  -3.230  0.00  0.00    +0.024 A 
ATOM     16  C   UNL     1       5.093   4.387  -3.592  0.00  0.00    +0.044 A 
ATOM     17  C   UNL     1       5.357   3.388  -2.629  0.00  0.00    +0.097 A 
BRANCH  16  18
ATOM     18  N   UNL     1       4.881   4.096  -4.953  0.00  0.00    -0.357 N 
ATOM     19  H   UNL     1       4.401   4.839  -5.456  0.00  0.00    +0.142 HD
ATOM     20  H   UNL     1       4.443   3.194  -5.135  0.00  0.00    +0.142 HD
ENDBRANCH  16  18
BRANCH  17  21
ATOM     21  C   UNL     1       5.627   2.044  -3.068  0.00  0.00    +0.103 C 
ATOM     22  N   UNL     1       5.899   0.978  -3.440  0.00  0.00    -0.191 NA
ENDBRANCH  17  21
ENDBRANCH   1  12
TORSDOF 4
