REMARK  Name = 
REMARK  7 active torsions:
REMARK  status: ('A' for Active; 'I' for Inactive)
REMARK    1  A    between atoms: C_2  and  C_3
REMARK    2  A    between atoms: C_2  and  O_4
REMARK    3  A    between atoms: C_2  and  C_5
REMARK    4  A    between atoms: C_5  and  C_6
REMARK    5  A    between atoms: C_6  and  C_8
REMARK    6  A    between atoms: C_6  and  C_14
REMARK    7  A    between atoms: C_15  and  O_16
REMARK                            x       y       z     vdW  Elec       q    Type
REMARK                         _______ _______ _______ _____ _____    ______ ____
ROOT
ATOM      1  C   UNL     1       4.052  -1.674  -2.380  0.00  0.00    +0.086 A 
ATOM      2  C   UNL     1       3.538  -3.072  -2.414  0.00  0.00    +0.345 A 
ATOM      3  O   UNL     1       2.629  -3.454  -1.684  0.00  0.00    -0.245 OA
ATOM      4  O   UNL     1       4.157  -3.963  -3.287  0.00  0.00    -0.422 OA
ATOM      5  C   UNL     1       4.702  -3.472  -4.476  0.00  0.00    +0.143 A 
ATOM      6  C   UNL     1       4.802  -2.104  -4.694  0.00  0.00    +0.059 A 
ATOM      7  C   UNL     1       5.315  -1.657  -5.917  0.00  0.00    +0.015 A 
ATOM      8  C   UNL     1       5.725  -2.570  -6.893  0.00  0.00    +0.001 A 
ATOM      9  C   UNL     1       5.622  -3.940  -6.654  0.00  0.00    +0.004 A 
ATOM     10  C   UNL     1       5.110  -4.399  -5.438  0.00  0.00    +0.047 A 
ATOM     11  C   UNL     1       4.457  -1.211  -3.581  0.00  0.00    +0.138 A 
ENDROOT
BRANCH  11  12
ATOM     12  O   UNL     1       4.687   0.124  -3.823  0.00  0.00    -0.506 OA
ATOM     13  H   UNL     1       5.643   0.196  -3.995  0.00  0.00    +0.292 HD
ENDBRANCH  11  12
BRANCH   1  14
ATOM     14  C   UNL     1       3.978  -0.833  -1.082  0.00  0.00    +0.062 C 
BRANCH  14  15
ATOM     15  C   UNL     1       3.979  -1.520   0.306  0.00  0.00    -0.040 A 
ATOM     16  C   UNL     1       3.564  -0.764   1.428  0.00  0.00    +0.004 A 
ATOM     17  C   UNL     1       3.485  -1.321   2.709  0.00  0.00    +0.000 A 
ATOM     18  C   UNL     1       3.781  -2.663   2.897  0.00  0.00    +0.000 A 
ATOM     19  C   UNL     1       4.233  -3.419   1.820  0.00  0.00    +0.000 A 
ATOM     20  C   UNL     1       4.378  -2.840   0.551  0.00  0.00    +0.004 A 
ENDBRANCH  14  15
BRANCH  14  21
ATOM     21  C   UNL     1       5.017   0.339  -1.005  0.00  0.00    +0.044 C 
BRANCH  21  22
ATOM     22  C   UNL     1       6.487  -0.094  -0.876  0.00  0.00    +0.112 C 
ATOM     23  C   UNL     1       7.428   1.097  -1.003  0.00  0.00    +0.037 C 
BRANCH  22  24
ATOM     24  O   UNL     1       6.854  -1.022  -1.892  0.00  0.00    -0.392 OA
ATOM     25  H   UNL     1       7.701  -1.419  -1.624  0.00  0.00    +0.210 HD
ENDBRANCH  22  24
ENDBRANCH  21  22
ENDBRANCH  14  21
ENDBRANCH   1  14
TORSDOF 6
