REMARK  Name = 
REMARK  3 active torsions:
REMARK  status: ('A' for Active; 'I' for Inactive)
REMARK    1  A    between atoms: C_1  and  O_2
REMARK    2  A    between atoms: O_2  and  C_3
REMARK    3  A    between atoms: C_8  and  C_9
REMARK                            x       y       z     vdW  Elec       q    Type
REMARK                         _______ _______ _______ _____ _____    ______ ____
ROOT
ATOM      1  C   UNL     1       2.970   0.974   0.816  0.00  0.00    +0.133 A 
ATOM      2  C   UNL     1       4.025   0.965   1.739  0.00  0.00    +0.066 A 
ATOM      3  C   UNL     1       4.513   2.166   2.222  0.00  0.00    +0.117 A 
ATOM      4  N   UNL     1       4.049   3.387   1.894  0.00  0.00    -0.237 NA
ATOM      5  C   UNL     1       3.066   3.348   0.977  0.00  0.00    +0.142 A 
ATOM      6  N   UNL     1       2.467   4.468   0.485  0.00  0.00    -0.345 N 
ATOM      7  H   UNL     1       2.706   5.402   0.784  0.00  0.00    +0.167 HD
ATOM      8  C   UNL     1       1.570   4.126  -0.488  0.00  0.00    +0.095 A 
ATOM      9  C   UNL     1       1.577   2.741  -0.622  0.00  0.00    +0.031 A 
ATOM     10  C   UNL     1       2.494   2.230   0.368  0.00  0.00    +0.069 A 
ENDROOT
BRANCH   9  11
ATOM     11  C   UNL     1       0.829   2.061  -1.680  0.00  0.00    +0.078 A 
ATOM     12  C   UNL     1       0.675   2.652  -2.918  0.00  0.00    +0.048 A 
ATOM     13  C   UNL     1       0.038   1.897  -3.871  0.00  0.00    +0.116 A 
ATOM     14  N   UNL     1      -0.420   0.657  -3.639  0.00  0.00    -0.223 NA
ATOM     15  C   UNL     1      -0.226   0.174  -2.410  0.00  0.00    +0.213 A 
ATOM     16  N   UNL     1      -0.715  -1.090  -2.153  0.00  0.00    -0.327 N 
ATOM     17  H   UNL     1      -1.439  -1.305  -2.823  0.00  0.00    +0.145 HD
ATOM     18  H   UNL     1      -0.947  -1.159  -1.172  0.00  0.00    +0.145 HD
ATOM     19  N   UNL     1       0.352   0.836  -1.402  0.00  0.00    -0.215 NA
ENDBRANCH   9  11
BRANCH   1  21
ATOM     20  C   UNL     1       2.304  -1.232   1.290  0.00  0.00    +0.277 C 
ATOM     21  O   UNL     1       2.433  -0.191   0.322  0.00  0.00    -0.494 OA
ENDBRANCH   1  21
TORSDOF 2
