REMARK  Name = 
REMARK  6 active torsions:
REMARK  status: ('A' for Active; 'I' for Inactive)
REMARK    1  A    between atoms: C_1  and  O_2
REMARK    2  A    between atoms: O_2  and  C_3
REMARK    3  A    between atoms: C_3  and  C_4
REMARK    4  A    between atoms: C_4  and  O_5
REMARK    5  A    between atoms: O_5  and  C_6
REMARK    6  A    between atoms: C_11  and  C_12
REMARK                            x       y       z     vdW  Elec       q    Type
REMARK                         _______ _______ _______ _____ _____    ______ ____
ROOT
ATOM      1  C   UNL     1       6.284   1.945  -2.320  0.00  0.00    +0.219 A 
ATOM      2  C   UNL     1       7.040   0.805  -2.446  0.00  0.00    +0.090 A 
ATOM      3  C   UNL     1       8.396   1.007  -2.590  0.00  0.00    +0.047 A 
ATOM      4  C   UNL     1       9.326  -0.156  -2.752  0.00  0.00    +0.066 C 
ATOM      5  N   UNL     1       8.945   2.240  -2.591  0.00  0.00    -0.220 NA
ATOM      6  C   UNL     1       8.119   3.276  -2.432  0.00  0.00    +0.216 A 
ATOM      7  N   UNL     1       8.664   4.543  -2.448  0.00  0.00    -0.327 N 
ATOM      8  H   UNL     1       9.531   4.531  -2.965  0.00  0.00    +0.145 HD
ATOM      9  H   UNL     1       7.959   5.206  -2.736  0.00  0.00    +0.145 HD
ATOM     10  N   UNL     1       6.798   3.185  -2.313  0.00  0.00    -0.180 NA
ENDROOT
BRANCH   1  11
ATOM     11  O   UNL     1       4.915   1.778  -2.203  0.00  0.00    -0.474 OA
BRANCH  11  12
ATOM     12  C   UNL     1       4.219   3.028  -2.162  0.00  0.00    +0.258 C 
BRANCH  12  13
ATOM     13  C   UNL     1       2.718   2.776  -2.076  0.00  0.00    +0.200 C 
BRANCH  13  15
ATOM     14  C   UNL     1       0.630   3.870  -1.971  0.00  0.00    +0.194 C 
ATOM     15  O   UNL     1       2.038   4.031  -2.058  0.00  0.00    -0.380 OA
ENDBRANCH  13  15
ENDBRANCH  12  13
ENDBRANCH  11  12
ENDBRANCH   1  11
TORSDOF 4
