REMARK  Name = 
REMARK  5 active torsions:
REMARK  status: ('A' for Active; 'I' for Inactive)
REMARK    1  A    between atoms: O_1  and  C_2
REMARK    2  A    between atoms: C_5  and  C_6
REMARK    3  A    between atoms: N_7  and  O_8
REMARK    4  A    between atoms: O_8  and  C_9
REMARK    5  A    between atoms: C_9  and  C_11
REMARK                            x       y       z     vdW  Elec       q    Type
REMARK                         _______ _______ _______ _____ _____    ______ ____
ROOT
ATOM      1  C   UNL     1       6.779  -0.032  -0.308  0.00  0.00    +0.161 C 
ATOM      2  N   UNL     1       7.392  -1.168  -0.348  0.00  0.00    -0.082 NA
ENDROOT
BRANCH   1   7
ATOM      3  C   UNL     1       2.745   0.157   1.064  0.00  0.00    +0.152 A 
ATOM      4  C   UNL     1       3.419   1.319   0.687  0.00  0.00    +0.165 A 
ATOM      5  F   UNL     1       2.808   2.511   0.771  0.00  0.00    -0.202 F 
ATOM      6  C   UNL     1       4.732   1.271   0.226  0.00  0.00    +0.051 A 
ATOM      7  C   UNL     1       5.374   0.037   0.146  0.00  0.00    -0.001 A 
ATOM      8  C   UNL     1       4.696  -1.137   0.510  0.00  0.00    +0.013 A 
ATOM      9  C   UNL     1       3.379  -1.079   0.970  0.00  0.00    +0.049 A 
BRANCH   3  10
ATOM     10  O   UNL     1       1.465   0.247   1.529  0.00  0.00    -0.504 OA
ATOM     11  H   UNL     1       1.167  -0.630   1.818  0.00  0.00    +0.292 HD
ENDBRANCH   3  10
ENDBRANCH   1   7
BRANCH   2  12
ATOM     12  O   UNL     1       8.718  -1.014  -0.793  0.00  0.00    -0.317 OA
BRANCH  12  13
ATOM     13  C   UNL     1       9.321  -2.250  -0.827  0.00  0.00    +0.339 C 
ATOM     14  O   UNL     1       8.808  -3.307  -0.466  0.00  0.00    -0.248 OA
BRANCH  13  15
ATOM     15  C   UNL     1      10.770  -2.161  -1.308  0.00  0.00    +0.100 C 
ATOM     16  C   UNL     1      11.084  -0.963  -2.214  0.00  0.00    +0.015 C 
ATOM     17  C   UNL     1      10.443  -1.085  -3.596  0.00  0.00    +0.001 C 
ATOM     18  C   UNL     1      10.810  -2.399  -4.278  0.00  0.00    +0.000 C 
ATOM     19  C   UNL     1      10.515  -3.604  -3.391  0.00  0.00    +0.001 C 
ATOM     20  C   UNL     1      11.172  -3.466  -2.017  0.00  0.00    +0.015 C 
ENDBRANCH  13  15
ENDBRANCH  12  13
ENDBRANCH   2  12
TORSDOF 5
