REMARK  Name = 
REMARK  3 active torsions:
REMARK  status: ('A' for Active; 'I' for Inactive)
REMARK    1  A    between atoms: O_1  and  C_2
REMARK    2  A    between atoms: C_2  and  C_4
REMARK    3  A    between atoms: N_6  and  C_9
REMARK                            x       y       z     vdW  Elec       q    Type
REMARK                         _______ _______ _______ _____ _____    ______ ____
ROOT
ATOM      1  C   UNL     1       3.168  -1.067   0.619  0.00  0.00    +0.097 A 
ATOM      2  C   UNL     1       2.838  -2.434   0.524  0.00  0.00    +0.149 A 
ATOM      3  N   UNL     1       3.623  -3.213   1.269  0.00  0.00    -0.174 NA
ATOM      4  N   UNL     1       4.486  -2.360   1.874  0.00  0.00    -0.239 N 
ATOM      5  C   UNL     1       4.231  -1.052   1.501  0.00  0.00    +0.129 A 
ENDROOT
BRANCH   4   6
ATOM      6  C   UNL     1       5.497  -2.830   2.758  0.00  0.00    +0.065 A 
ATOM      7  C   UNL     1       5.602  -4.205   3.020  0.00  0.00    +0.028 A 
ATOM      8  C   UNL     1       6.598  -4.682   3.877  0.00  0.00    +0.002 A 
ATOM      9  C   UNL     1       7.491  -3.795   4.475  0.00  0.00    +0.000 A 
ATOM     10  C   UNL     1       7.389  -2.429   4.224  0.00  0.00    +0.002 A 
ATOM     11  C   UNL     1       6.396  -1.944   3.369  0.00  0.00    +0.028 A 
ENDBRANCH   4   6
BRANCH   1  12
ATOM     12  C   UNL     1       2.509   0.031  -0.059  0.00  0.00    +0.340 C 
ATOM     13  O   UNL     1       1.521  -0.118  -0.761  0.00  0.00    -0.245 OA
BRANCH  12  14
ATOM     14  O   UNL     1       3.067   1.254   0.130  0.00  0.00    -0.477 OA
ATOM     15  H   UNL     1       3.868   1.237   0.681  0.00  0.00    +0.295 HD
ENDBRANCH  12  14
ENDBRANCH   1  12
TORSDOF 3
