REMARK  Name = 
REMARK  5 active torsions:
REMARK  status: ('A' for Active; 'I' for Inactive)
REMARK    1  A    between atoms: C_2  and  C_3
REMARK    2  A    between atoms: N_7  and  C_8
REMARK    3  A    between atoms: N_16  and  C_17
REMARK    4  A    between atoms: C_17  and  C_18
REMARK    5  A    between atoms: C_18  and  C_19
REMARK                            x       y       z     vdW  Elec       q    Type
REMARK                         _______ _______ _______ _____ _____    ______ ____
ROOT
ATOM      1  C   UNL     1       3.741   0.004   0.106  0.00  0.00    +0.116 A 
ATOM      2  C   UNL     1       4.613   1.115   0.092  0.00  0.00    +0.156 A 
ATOM      3  N   UNL     1       5.908   0.762   0.109  0.00  0.00    -0.169 NA
ATOM      4  N   UNL     1       5.842  -0.592   0.149  0.00  0.00    -0.182 N 
ATOM      5  C   UNL     1       6.949  -1.452   0.123  0.00  0.00    +0.221 A 
ATOM      6  N   UNL     1       8.229  -0.929   0.098  0.00  0.00    -0.313 N 
ATOM      7  H   UNL     1       8.289   0.089   0.080  0.00  0.00    +0.149 HD
ATOM      8  N   UNL     1       6.726  -2.736   0.100  0.00  0.00    -0.181 NA
ATOM      9  C   UNL     1       5.428  -3.214   0.130  0.00  0.00    +0.224 A 
ATOM     10  N   UNL     1       5.354  -4.579   0.180  0.00  0.00    -0.283 N 
ATOM     11  H   UNL     1       6.240  -5.034   0.335  0.00  0.00    +0.155 HD
ATOM     12  N   UNL     1       4.378  -2.435   0.140  0.00  0.00    -0.194 NA
ATOM     13  C   UNL     1       4.571  -1.095   0.135  0.00  0.00    +0.180 A 
ENDROOT
BRANCH  10  14
ATOM     14  C   UNL     1       4.222  -5.405   0.170  0.00  0.00    +0.034 A 
ATOM     15  C   UNL     1       4.291  -6.659   0.796  0.00  0.00    +0.023 A 
ATOM     16  C   UNL     1       3.167  -7.487   0.881  0.00  0.00    +0.002 A 
ATOM     17  C   UNL     1       1.954  -7.072   0.338  0.00  0.00    +0.000 A 
ATOM     18  C   UNL     1       1.868  -5.835  -0.292  0.00  0.00    +0.002 A 
ATOM     19  C   UNL     1       2.993  -5.011  -0.371  0.00  0.00    +0.023 A 
ENDBRANCH  10  14
BRANCH   1  21
ATOM     20  N   UNL     1       1.154   0.041   0.058  0.00  0.00    -0.191 NA
ATOM     21  C   UNL     1       2.316   0.004   0.084  0.00  0.00    +0.104 C 
ENDBRANCH   1  21
BRANCH   6  22
ATOM     22  C   UNL     1       9.302  -1.670  -0.550  0.00  0.00    +0.110 C 
BRANCH  22  23
ATOM     23  C   UNL     1      10.647  -0.943  -0.522  0.00  0.00    +0.073 C 
BRANCH  23  24
ATOM     24  C   UNL     1      11.167  -0.668   0.845  0.00  0.00    +0.037 A 
ATOM     25  N   UNL     1      11.400  -1.637   1.791  0.00  0.00    -0.348 N 
ATOM     26  H   UNL     1      11.238  -2.630   1.697  0.00  0.00    +0.166 HD
ATOM     27  C   UNL     1      11.893  -1.017   2.904  0.00  0.00    +0.196 A 
ATOM     28  N   UNL     1      11.995   0.279   2.728  0.00  0.00    -0.244 NA
ATOM     29  C   UNL     1      11.548   0.509   1.454  0.00  0.00    +0.133 A 
ENDBRANCH  23  24
ENDBRANCH  22  23
ENDBRANCH   6  22
TORSDOF 5
