REMARK  Name = 
REMARK  22 active torsions:
REMARK  status: ('A' for Active; 'I' for Inactive)
REMARK    1  A    between atoms: C_2  and  O_3
REMARK    2  A    between atoms: C_2  and  C_4
REMARK    3  A    between atoms: C_2  and  C_23
REMARK    4  A    between atoms: N_6  and  C_7
REMARK    5  A    between atoms: C_7  and  C_8
REMARK    6  A    between atoms: C_8  and  C_9
REMARK    7  A    between atoms: N_11  and  C_12
REMARK    8  A    between atoms: C_12  and  C_13
REMARK    9  A    between atoms: C_13  and  S_14
REMARK   10  A    between atoms: S_14  and  C_15
REMARK   11  A    between atoms: C_15  and  C_17
REMARK   12  A    between atoms: C_17  and  C_18
REMARK   13  A    between atoms: C_18  and  C_19
REMARK   14  A    between atoms: C_19  and  C_20
REMARK   15  A    between atoms: C_20  and  C_21
REMARK   16  A    between atoms: C_21  and  C_22
REMARK   17  A    between atoms: C_23  and  C_24
REMARK   18  A    between atoms: C_23  and  C_25
REMARK   19  A    between atoms: C_23  and  C_26
REMARK   20  A    between atoms: C_26  and  O_27
REMARK   21  A    between atoms: O_27  and  P_28
REMARK   22  A    between atoms: P_28  and  O_30
REMARK                            x       y       z     vdW  Elec       q    Type
REMARK                         _______ _______ _______ _____ _____    ______ ____
ROOT
ATOM      1  C   UNL     1       3.270   5.652  -4.742  0.00  0.00    +0.242 C 
ATOM      2  N   UNL     1       3.004   5.020  -3.544  0.00  0.00    -0.313 N 
ATOM      3  H   UNL     1       3.731   4.530  -3.045  0.00  0.00    +0.149 HD
ATOM      4  O   UNL     1       2.392   6.197  -5.408  0.00  0.00    -0.273 OA
ENDROOT
BRANCH   2   5
ATOM      5  C   UNL     1       1.650   4.870  -3.038  0.00  0.00    +0.113 C 
BRANCH   5   6
ATOM      6  C   UNL     1       1.037   6.189  -2.586  0.00  0.00    +0.114 C 
BRANCH   6   7
ATOM      7  C   UNL     1      -0.364   5.938  -2.079  0.00  0.00    +0.215 C 
ATOM      8  N   UNL     1      -1.334   6.699  -2.691  0.00  0.00    -0.314 N 
ATOM      9  H   UNL     1      -1.112   7.119  -3.588  0.00  0.00    +0.149 HD
ATOM     10  O   UNL     1      -0.599   5.129  -1.186  0.00  0.00    -0.276 OA
BRANCH   8  11
ATOM     11  C   UNL     1      -2.741   6.494  -2.391  0.00  0.00    +0.115 C 
BRANCH  11  12
ATOM     12  C   UNL     1      -3.606   7.704  -2.744  0.00  0.00    +0.096 C 
BRANCH  12  13
ATOM     13  S   UNL     1      -3.591   8.023  -4.540  0.00  0.00    -0.087 S 
BRANCH  13  14
ATOM     14  C   UNL     1      -4.615   9.461  -4.587  0.00  0.00    +0.189 C 
ATOM     15  O   UNL     1      -5.111   9.931  -3.571  0.00  0.00    -0.285 OA
BRANCH  14  16
ATOM     16  C   UNL     1      -4.855   9.999  -5.984  0.00  0.00    +0.086 C 
BRANCH  16  17
ATOM     17  C   UNL     1      -5.126  11.503  -5.968  0.00  0.00    +0.008 C 
BRANCH  17  18
ATOM     18  C   UNL     1      -5.330  12.052  -7.382  0.00  0.00    +0.000 C 
BRANCH  18  19
ATOM     19  C   UNL     1      -5.580  13.561  -7.359  0.00  0.00    -0.000 C 
BRANCH  19  20
ATOM     20  C   UNL     1      -5.786  14.122  -8.766  0.00  0.00    -0.003 C 
ATOM     21  C   UNL     1      -6.032  15.622  -8.734  0.00  0.00    +0.004 C 
ENDBRANCH  19  20
ENDBRANCH  18  19
ENDBRANCH  17  18
ENDBRANCH  16  17
ENDBRANCH  14  16
ENDBRANCH  13  14
ENDBRANCH  12  13
ENDBRANCH  11  12
ENDBRANCH   8  11
ENDBRANCH   6   7
ENDBRANCH   5   6
ENDBRANCH   2   5
BRANCH   1  22
ATOM     22  C   UNL     1       4.762   5.699  -5.162  0.00  0.00    +0.208 C 
BRANCH  22  23
ATOM     23  C   UNL     1       5.586   6.841  -4.486  0.00  0.00    +0.023 C 
ATOM     24  C   UNL     1       5.003   8.215  -4.881  0.00  0.00    +0.016 C 
ATOM     25  C   UNL     1       7.040   6.793  -5.005  0.00  0.00    +0.016 C 
BRANCH  23  26
ATOM     26  C   UNL     1       5.571   6.697  -2.946  0.00  0.00    +0.179 C 
BRANCH  26  27
ATOM     27  O   UNL     1       6.387   7.656  -2.290  0.00  0.00    -0.309 OA
BRANCH  27  28
ATOM     28  P   UNL     1       6.323   7.692  -0.666  0.00  0.00    +0.319 P 
ATOM     29  H   UNL     1       6.752   8.986  -0.311  0.00  0.00    +0.159 HD
ATOM     30  O   UNL     1       5.093   7.004  -0.146  0.00  0.00    -0.262 OA
BRANCH  28  31
ATOM     31  O   UNL     1       7.587   6.747  -0.323  0.00  0.00    -0.326 OA
ATOM     32  H   UNL     1       7.342   5.804  -0.339  0.00  0.00    +0.220 HD
ENDBRANCH  28  31
ENDBRANCH  27  28
ENDBRANCH  26  27
ENDBRANCH  23  26
ENDBRANCH  22  23
BRANCH  22  33
ATOM     33  O   UNL     1       5.394   4.426  -5.004  0.00  0.00    -0.382 OA
ATOM     34  H   UNL     1       5.454   4.199  -4.066  0.00  0.00    +0.210 HD
ENDBRANCH  22  33
ENDBRANCH   1  22
TORSDOF 19
