REMARK  Name = 
REMARK  7 active torsions:
REMARK  status: ('A' for Active; 'I' for Inactive)
REMARK    1  A    between atoms: C_1  and  C_2
REMARK    2  A    between atoms: C_2  and  C_3
REMARK    3  A    between atoms: C_2  and  O_4
REMARK    4  A    between atoms: O_4  and  C_5
REMARK    5  A    between atoms: N_22  and  C_23
REMARK    6  A    between atoms: C_23  and  C_24
REMARK    7  A    between atoms: C_24  and  O_25
REMARK                            x       y       z     vdW  Elec       q    Type
REMARK                         _______ _______ _______ _____ _____    ______ ____
ROOT
ATOM      1  C   UNL     1       3.945  -1.951   2.018  0.00  0.00    +0.121 A 
ATOM      2  C   UNL     1       3.517  -3.023   1.261  0.00  0.00    +0.050 A 
ATOM      3  C   UNL     1       4.387  -4.125   1.105  0.00  0.00    -0.036 A 
ATOM      4  C   UNL     1       4.726  -4.370  -0.381  0.00  0.00    +0.040 C 
ATOM      5  C   UNL     1       5.640  -5.553  -0.586  0.00  0.00    +0.042 C 
ATOM      6  C   UNL     1       6.838  -5.351   0.359  0.00  0.00    -0.014 A 
ATOM      7  C   UNL     1       8.073  -5.912   0.123  0.00  0.00    +0.055 A 
ATOM      8  N   UNL     1       9.251  -5.377  -0.301  0.00  0.00    -0.337 N 
ATOM      9  C   UNL     1      10.202  -6.362  -0.452  0.00  0.00    +0.050 A 
ATOM     10  C   UNL     1       9.652  -7.570   0.068  0.00  0.00    +0.008 A 
ATOM     11  C   UNL     1      10.457  -8.724   0.015  0.00  0.00    +0.010 A 
ATOM     12  C   UNL     1      11.747  -8.645  -0.551  0.00  0.00    +0.001 A 
ATOM     13  C   UNL     1      12.263  -7.435  -1.012  0.00  0.00    +0.002 A 
ATOM     14  C   UNL     1      11.500  -6.273  -0.967  0.00  0.00    +0.026 A 
ATOM     15  C   UNL     1       8.420  -7.152   0.575  0.00  0.00    +0.017 A 
ATOM     16  C   UNL     1       7.466  -7.785   1.413  0.00  0.00    +0.013 A 
ATOM     17  C   UNL     1       7.164  -9.069   1.861  0.00  0.00    +0.110 C 
ATOM     18  N   UNL     1       6.115  -9.092   2.613  0.00  0.00    -0.184 NA
ATOM     19  C   UNL     1       5.599  -7.784   2.757  0.00  0.00    +0.268 C 
ATOM     20  O   UNL     1       4.551  -7.544   3.341  0.00  0.00    -0.268 OA
ATOM     21  C   UNL     1       6.481  -6.906   2.007  0.00  0.00    +0.056 A 
ATOM     22  C   UNL     1       6.377  -5.525   1.676  0.00  0.00    +0.000 A 
ATOM     23  C   UNL     1       5.408  -4.459   2.040  0.00  0.00    -0.013 A 
ATOM     24  C   UNL     1       5.818  -3.349   2.804  0.00  0.00    +0.012 A 
ATOM     25  C   UNL     1       5.138  -2.099   2.734  0.00  0.00    +0.046 A 
ENDROOT
BRANCH   1  26
ATOM     26  O   UNL     1       3.391  -0.697   1.975  0.00  0.00    -0.489 OA
BRANCH  26  28
ATOM     27  C   UNL     1       1.143  -1.117   2.795  0.00  0.00    +0.051 C 
ATOM     28  C   UNL     1       1.992  -0.566   1.653  0.00  0.00    +0.167 C 
ATOM     29  C   UNL     1       1.683   0.924   1.472  0.00  0.00    +0.051 C 
ENDBRANCH  26  28
ENDBRANCH   1  26
BRANCH   8  30
ATOM     30  C   UNL     1       9.465  -3.947  -0.408  0.00  0.00    +0.150 C 
BRANCH  30  31
ATOM     31  C   UNL     1       9.005  -3.383  -1.738  0.00  0.00    +0.177 C 
BRANCH  31  32
ATOM     32  O   UNL     1       9.312  -1.993  -1.773  0.00  0.00    -0.393 OA
ATOM     33  H   UNL     1       8.627  -1.557  -2.308  0.00  0.00    +0.209 HD
ENDBRANCH  31  32
ENDBRANCH  30  31
ENDBRANCH   8  30
TORSDOF 5
