REMARK  Name = 
REMARK  2 active torsions:
REMARK  status: ('A' for Active; 'I' for Inactive)
REMARK    1  A    between atoms: C_2  and  C_10
REMARK    2  A    between atoms: N_3  and  C_4
REMARK                            x       y       z     vdW  Elec       q    Type
REMARK                         _______ _______ _______ _____ _____    ______ ____
ROOT
ATOM      1  O   UNL     1       1.000   0.417  -0.401  0.00  0.00    -0.268 OA
ATOM      2  C   UNL     1       2.164   0.171  -0.104  0.00  0.00    +0.268 C 
ATOM      3  N   UNL     1       2.772  -1.073  -0.143  0.00  0.00    -0.280 N 
ATOM      4  H   UNL     1       3.703  -1.097   0.262  0.00  0.00    +0.155 HD
ENDROOT
BRANCH   2   5
ATOM      5  C   UNL     1       3.053   1.241   0.379  0.00  0.00    +0.147 A 
ATOM      6  C   UNL     1       2.685   2.599   0.575  0.00  0.00    +0.054 A 
ATOM      7  C   UNL     1       3.823   3.227   1.012  0.00  0.00    +0.105 A 
ATOM      8  N   UNL     1       4.785   2.264   1.058  0.00  0.00    -0.284 N 
ATOM      9  H   UNL     1       5.759   2.370   1.326  0.00  0.00    +0.188 HD
ATOM     10  N   UNL     1       4.350   1.041   0.697  0.00  0.00    -0.169 NA
ENDBRANCH   2   5
BRANCH   3  11
ATOM     11  C   UNL     1       2.191  -2.274  -0.590  0.00  0.00    +0.034 A 
ATOM     12  C   UNL     1       2.824  -3.482  -0.276  0.00  0.00    +0.023 A 
ATOM     13  C   UNL     1       2.259  -4.702  -0.665  0.00  0.00    +0.002 A 
ATOM     14  C   UNL     1       1.072  -4.724  -1.396  0.00  0.00    +0.000 A 
ATOM     15  C   UNL     1       0.455  -3.527  -1.743  0.00  0.00    +0.002 A 
ATOM     16  C   UNL     1       1.010  -2.310  -1.343  0.00  0.00    +0.023 A 
ENDBRANCH   3  11
TORSDOF 2
