REMARK  Name = 
REMARK  7 active torsions:
REMARK  status: ('A' for Active; 'I' for Inactive)
REMARK    1  A    between atoms: CA_2  and  N_3
REMARK    2  A    between atoms: CA_2  and  C_4
REMARK    3  A    between atoms: CA_2  and  C_6
REMARK    4  A    between atoms: C_4  and  O_5
REMARK    5  A    between atoms: C_6  and  C_7
REMARK    6  A    between atoms: N_9  and  O_10
REMARK    7  A    between atoms: O_10  and  O_11
REMARK                            x       y       z     vdW  Elec       q    Type
REMARK                         _______ _______ _______ _____ _____    ______ ____
ROOT
ATOM      1  C   UNL     1       4.067   0.990   1.202  0.00  0.00    -0.017 A 
ATOM      2  C   UNL     1       4.923  -0.034   1.731  0.00  0.00    +0.007 A 
ATOM      3  C   UNL     1       4.686  -1.263   2.387  0.00  0.00    +0.010 A 
ATOM      4  C   UNL     1       5.767  -2.067   2.759  0.00  0.00    +0.001 A 
ATOM      5  C   UNL     1       7.073  -1.673   2.488  0.00  0.00    +0.002 A 
ATOM      6  C   UNL     1       7.338  -0.464   1.837  0.00  0.00    +0.030 A 
ATOM      7  C   UNL     1       6.246   0.338   1.472  0.00  0.00    +0.091 A 
ATOM      8  N   UNL     1       6.190   1.546   0.822  0.00  0.00    -0.152 N 
ATOM      9  C   UNL     1       4.897   1.966   0.677  0.00  0.00    +0.137 A 
ENDROOT
BRANCH   1  10
ATOM     10  C   UNL     1       2.566   0.964   1.158  0.00  0.00    +0.058 C 
BRANCH  10  11
ATOM     11  CA  UNL     1       1.866   1.672   2.335  0.00  0.00    +0.081 C 
BRANCH  11  12
ATOM     12  N   UNL     1       2.133   1.026   3.641  0.00  0.00    -0.325 NA
ATOM     13  H1  UNL     1       3.144   0.905   3.738  0.00  0.00    +0.119 HD
ATOM     14  H2  UNL     1       1.884   1.686   4.379  0.00  0.00    +0.119 HD
ENDBRANCH  11  12
BRANCH  11  15
ATOM     15  C   UNL     1       0.345   1.693   2.082  0.00  0.00    +0.174 C 
BRANCH  15  16
ATOM     16  O   UNL     1      -0.331   2.372   3.138  0.00  0.00    -0.393 OA
ATOM     17  H   UNL     1      -0.201   1.808   3.922  0.00  0.00    +0.209 HD
ENDBRANCH  15  16
ENDBRANCH  11  15
ENDBRANCH  10  11
ENDBRANCH   1  10
BRANCH   8  18
ATOM     18  O   UNL     1       7.280   2.197   0.226  0.00  0.00    -0.240 OA
BRANCH  18  19
ATOM     19  O   UNL     1       8.306   2.566   1.192  0.00  0.00    -0.179 OA
ATOM     20  H   UNL     1       8.896   2.999   0.550  0.00  0.00    +0.270 HD
ENDBRANCH  18  19
ENDBRANCH   8  18
TORSDOF 7
