REMARK  Name = 
REMARK  9 active torsions:
REMARK  status: ('A' for Active; 'I' for Inactive)
REMARK    1  A    between atoms: C_1  and  C_2
REMARK    2  A    between atoms: C_2  and  C_3
REMARK    3  A    between atoms: C_2  and  C_4
REMARK    4  A    between atoms: C_2  and  C_5
REMARK    5  A    between atoms: C_5  and  C_6
REMARK    6  A    between atoms: C_6  and  O_8
REMARK    7  A    between atoms: O_8  and  N_9
REMARK    8  A    between atoms: C_10  and  C_11
REMARK    9  A    between atoms: C_14  and  O_15
REMARK                            x       y       z     vdW  Elec       q    Type
REMARK                         _______ _______ _______ _____ _____    ______ ____
ROOT
ATOM      1  N   UNL     1       6.631  -0.629  -2.528  0.00  0.00    -0.082 NA
ATOM      2  C   UNL     1       7.208  -0.945  -3.641  0.00  0.00    +0.161 C 
ENDROOT
BRANCH   2   3
ATOM      3  C   UNL     1       8.684  -0.966  -3.726  0.00  0.00    -0.004 A 
ATOM      4  C   UNL     1       9.314  -1.290  -4.931  0.00  0.00    +0.013 A 
ATOM      5  C   UNL     1      10.710  -1.281  -5.000  0.00  0.00    +0.046 A 
ATOM      6  C   UNL     1      11.461  -0.948  -3.874  0.00  0.00    +0.117 A 
ATOM      7  C   UNL     1      10.842  -0.638  -2.668  0.00  0.00    +0.046 A 
ATOM      8  C   UNL     1       9.449  -0.648  -2.595  0.00  0.00    +0.013 A 
BRANCH   6   9
ATOM      9  O   UNL     1      12.818  -0.931  -3.994  0.00  0.00    -0.507 OA
ATOM     10  H   UNL     1      13.198  -0.610  -3.158  0.00  0.00    +0.292 HD
ENDBRANCH   6   9
ENDBRANCH   2   3
BRANCH   1  11
ATOM     11  O   UNL     1       5.231  -0.660  -2.641  0.00  0.00    -0.317 OA
BRANCH  11  12
ATOM     12  C   UNL     1       4.684  -0.311  -1.424  0.00  0.00    +0.336 C 
ATOM     13  O   UNL     1       5.293   0.007  -0.408  0.00  0.00    -0.248 OA
BRANCH  12  14
ATOM     14  C   UNL     1       3.174  -0.383  -1.479  0.00  0.00    +0.129 C 
BRANCH  14  16
ATOM     15  C   UNL     1       3.021  -2.124   0.377  0.00  0.00    +0.011 C 
ATOM     16  C   UNL     1       2.579  -1.742  -1.046  0.00  0.00    -0.028 C 
ATOM     17  C   UNL     1       1.043  -1.626  -1.056  0.00  0.00    +0.011 C 
ATOM     18  C   UNL     1       2.994  -2.854  -2.022  0.00  0.00    +0.011 C 
ENDBRANCH  14  16
ENDBRANCH  12  14
ENDBRANCH  11  12
ENDBRANCH   1  11
TORSDOF 6
