REMARK  Name = 
REMARK  4 active torsions:
REMARK  status: ('A' for Active; 'I' for Inactive)
REMARK    1  A    between atoms: C_5  and  N_6
REMARK    2  A    between atoms: C_7  and  C_9
REMARK    3  A    between atoms: C_13  and  N_14
REMARK    4  A    between atoms: C_15  and  C_17
REMARK                            x       y       z     vdW  Elec       q    Type
REMARK                         _______ _______ _______ _____ _____    ______ ____
ROOT
ATOM      1  C   UNL     1       8.599  -0.986  -0.842  0.00  0.00    +0.168 A 
ATOM      2  C   UNL     1       9.343  -2.162  -1.173  0.00  0.00    +0.084 A 
ATOM      3  C   UNL     1      10.553  -1.689  -1.612  0.00  0.00    +0.129 A 
ATOM      4  N   UNL     1      10.478  -0.331  -1.569  0.00  0.00    -0.282 N 
ATOM      5  H   UNL     1      11.201   0.333  -1.824  0.00  0.00    +0.188 HD
ATOM      6  N   UNL     1       9.301   0.137  -1.106  0.00  0.00    -0.167 NA
ENDROOT
BRANCH   1   9
ATOM      7  N   UNL     1       6.794   0.308   0.087  0.00  0.00    -0.280 N 
ATOM      8  H   UNL     1       7.346   1.070  -0.300  0.00  0.00    +0.155 HD
ATOM      9  C   UNL     1       7.264  -0.962  -0.226  0.00  0.00    +0.270 C 
ATOM     10  O   UNL     1       6.665  -2.017  -0.022  0.00  0.00    -0.268 OA
BRANCH   7  15
ATOM     11  F   UNL     1       2.287   1.540   3.076  0.00  0.00    -0.205 F 
ATOM     12  C   UNL     1       3.381   1.239   2.364  0.00  0.00    +0.124 A 
ATOM     13  C   UNL     1       4.006   2.223   1.607  0.00  0.00    +0.040 A 
ATOM     14  C   UNL     1       5.150   1.907   0.861  0.00  0.00    +0.026 A 
ATOM     15  C   UNL     1       5.651   0.598   0.855  0.00  0.00    +0.034 A 
ATOM     16  C   UNL     1       5.013  -0.369   1.643  0.00  0.00    +0.026 A 
ATOM     17  C   UNL     1       3.880  -0.053   2.396  0.00  0.00    +0.040 A 
ENDBRANCH   7  15
ENDBRANCH   1   9
BRANCH   2  18
ATOM     18  N   UNL     1       8.933  -3.485  -1.037  0.00  0.00    -0.278 N 
ATOM     19  H   UNL     1       7.979  -3.612  -0.698  0.00  0.00    +0.155 HD
ATOM     20  C   UNL     1       9.728  -4.586  -1.305  0.00  0.00    +0.254 C 
ATOM     21  O   UNL     1      10.866  -4.550  -1.762  0.00  0.00    -0.270 OA
BRANCH  20  22
ATOM     22  C   UNL     1       9.144  -5.910  -0.991  0.00  0.00    +0.107 A 
ATOM     23  C   UNL     1       9.973  -6.927  -0.509  0.00  0.00    +0.138 A 
ATOM     24  F   UNL     1      11.276  -6.710  -0.275  0.00  0.00    -0.205 F 
ATOM     25  C   UNL     1       9.467  -8.195  -0.219  0.00  0.00    +0.039 A 
ATOM     26  C   UNL     1       8.115  -8.466  -0.416  0.00  0.00    +0.006 A 
ATOM     27  C   UNL     1       7.278  -7.463  -0.905  0.00  0.00    +0.039 A 
ATOM     28  C   UNL     1       7.796  -6.197  -1.188  0.00  0.00    +0.138 A 
ATOM     29  F   UNL     1       6.960  -5.264  -1.668  0.00  0.00    -0.205 F 
ENDBRANCH  20  22
ENDBRANCH   2  18
TORSDOF 4
