REMARK  Name = 
REMARK  8 active torsions:
REMARK  status: ('A' for Active; 'I' for Inactive)
REMARK    1  A    between atoms: C_1  and  C_2
REMARK    2  A    between atoms: C_2  and  N_3
REMARK    3  A    between atoms: C_7  and  C_8
REMARK    4  A    between atoms: C_14  and  C_17
REMARK    5  A    between atoms: C_19  and  C_20
REMARK    6  A    between atoms: N_22  and  C_23
REMARK    7  A    between atoms: N_22  and  C_24
REMARK    8  A    between atoms: C_25  and  N_26
REMARK                            x       y       z     vdW  Elec       q    Type
REMARK                         _______ _______ _______ _____ _____    ______ ____
ROOT
ATOM      1  C   UNL     1       3.898  -0.785   2.736  0.00  0.00    +0.027 A 
ATOM      2  C   UNL     1       3.257  -1.996   2.297  0.00  0.00    +0.028 A 
ATOM      3  C   UNL     1       3.958  -3.065   2.837  0.00  0.00    +0.139 A 
ATOM      4  N   UNL     1       3.751  -4.378   2.623  0.00  0.00    -0.237 NA
ATOM      5  C   UNL     1       2.738  -4.625   1.746  0.00  0.00    +0.121 A 
ATOM      6  C   UNL     1       1.910  -3.681   1.135  0.00  0.00    +0.001 A 
ATOM      7  N   UNL     1       4.924  -2.554   3.654  0.00  0.00    -0.345 N 
ATOM      8  H   UNL     1       5.563  -3.125   4.187  0.00  0.00    +0.167 HD
ATOM      9  C   UNL     1       2.168  -2.342   1.481  0.00  0.00    +0.022 A 
ATOM     10  C   UNL     1       4.910  -1.178   3.592  0.00  0.00    +0.095 A 
ENDROOT
BRANCH   6  11
ATOM     11  C   UNL     1       0.799  -4.002   0.206  0.00  0.00    -0.016 A 
ATOM     12  C   UNL     1       0.086  -5.204   0.261  0.00  0.00    +0.010 A 
ATOM     13  C   UNL     1      -1.033  -5.411  -0.556  0.00  0.00    +0.024 A 
ATOM     14  C   UNL     1      -1.532  -4.397  -1.385  0.00  0.00    +0.037 A 
ATOM     15  C   UNL     1      -0.825  -3.179  -1.465  0.00  0.00    +0.058 A 
ATOM     16  C   UNL     1       0.371  -3.051  -0.746  0.00  0.00    +0.023 A 
BRANCH  15  17
ATOM     17  C   UNL     1      -1.372  -2.038  -2.281  0.00  0.00    +0.248 C 
ATOM     18  N   UNL     1      -1.279  -0.699  -1.855  0.00  0.00    -0.304 N 
ATOM     19  C   UNL     1      -1.829   0.333  -2.724  0.00  0.00    +0.132 C 
ATOM     20  C   UNL     1      -0.605  -0.194  -0.670  0.00  0.00    +0.132 C 
ATOM     21  O   UNL     1      -1.974  -2.324  -3.318  0.00  0.00    -0.270 OA
ENDBRANCH  15  17
BRANCH  14  22
ATOM     22  N   UNL     1      -2.594  -4.720  -2.242  0.00  0.00    -0.357 N 
ATOM     23  H   UNL     1      -3.299  -5.345  -1.873  0.00  0.00    +0.142 HD
ATOM     24  H   UNL     1      -2.966  -3.914  -2.754  0.00  0.00    +0.142 HD
ENDBRANCH  14  22
ENDBRANCH   6  11
BRANCH   1  26
ATOM     25  N   UNL     1       4.159   1.825   2.685  0.00  0.00    -0.264 N 
ATOM     26  C   UNL     1       3.585   0.627   2.310  0.00  0.00    +0.071 A 
ATOM     27  C   UNL     1       2.644   0.988   1.362  0.00  0.00    +0.049 A 
ATOM     28  C   UNL     1       2.710   2.382   1.247  0.00  0.00    +0.135 A 
ATOM     29  N   UNL     1       3.625   2.901   2.057  0.00  0.00    -0.179 NA
BRANCH  25  31
ATOM     30  C   UNL     1       6.599   2.045   2.904  0.00  0.00    +0.029 C 
ATOM     31  C   UNL     1       5.250   2.094   3.600  0.00  0.00    +0.141 C 
ENDBRANCH  25  31
ENDBRANCH   1  26
TORSDOF 5
