REMARK  Name = 
REMARK  11 active torsions:
REMARK  status: ('A' for Active; 'I' for Inactive)
REMARK    1  A    between atoms: C_2  and  C_3
REMARK    2  A    between atoms: C_3  and  C_4
REMARK    3  A    between atoms: C_5  and  C_6
REMARK    4  A    between atoms: C_5  and  C_7
REMARK    5  A    between atoms: C_9  and  C_10
REMARK    6  A    between atoms: C_9  and  C_11
REMARK    7  A    between atoms: C_13  and  O_15
REMARK    8  A    between atoms: O_15  and  C_16
REMARK    9  A    between atoms: C_17  and  O_24
REMARK   10  A    between atoms: O_24  and  C_25
REMARK   11  A    between atoms: C_28  and  C_30
REMARK                            x       y       z     vdW  Elec       q    Type
REMARK                         _______ _______ _______ _____ _____    ______ ____
ROOT
ATOM      1  C   UNL     1       4.156   1.580  -0.585  0.00  0.00    +0.090 C 
ATOM      2  C   UNL     1       3.988   3.096  -0.545  0.00  0.00    +0.101 C 
ATOM      3  O   UNL     1       3.200   3.686  -1.587  0.00  0.00    -0.368 OA
ATOM      4  C   UNL     1       2.591   3.646  -0.294  0.00  0.00    +0.196 C 
ATOM      5  C   UNL     1       5.157   3.920  -0.095  0.00  0.00    +0.041 C 
ATOM      6  C   UNL     1       5.665   3.420   1.250  0.00  0.00    +0.050 C 
ATOM      7  C   UNL     1       5.961   1.916   1.199  0.00  0.00    +0.207 C 
ATOM      8  C   UNL     1       4.695   1.109   0.794  0.00  0.00    +0.167 C 
ENDROOT
BRANCH   1  10
ATOM      9  C   UNL     1       5.835  -0.174  -1.696  0.00  0.00    +0.155 C 
ATOM     10  C   UNL     1       4.834   0.997  -1.827  0.00  0.00    +0.101 C 
ATOM     11  C   UNL     1       4.076   1.213  -3.113  0.00  0.00    +0.045 C 
ATOM     12  O   UNL     1       6.243   1.185  -1.961  0.00  0.00    -0.364 OA
BRANCH   9  13
ATOM     13  C   UNL     1       6.150  -1.158  -2.783  0.00  0.00    +0.061 C 
BRANCH  13  14
ATOM     14  C   UNL     1       5.797  -2.599  -2.489  0.00  0.00    -0.026 C 
ATOM     15  C   UNL     1       4.615  -3.219  -2.680  0.00  0.00    -0.080 C 
ATOM     16  C   UNL     1       4.481  -4.712  -2.516  0.00  0.00    +0.038 C 
ATOM     17  C   UNL     1       3.344  -2.536  -3.095  0.00  0.00    +0.038 C 
ENDBRANCH  13  14
ENDBRANCH   9  13
ENDBRANCH   1  10
BRANCH   8  18
ATOM     18  O   UNL     1       3.675   1.310   1.806  0.00  0.00    -0.376 OA
ATOM     19  C   UNL     1       2.606   0.374   1.739  0.00  0.00    +0.194 C 
ENDBRANCH   8  18
BRANCH   7  20
ATOM     20  O   UNL     1       6.432   1.561   2.517  0.00  0.00    -0.444 OA
BRANCH  20  21
ATOM     21  C   UNL     1       7.094   0.392   2.650  0.00  0.00    +0.407 C 
ATOM     22  N   UNL     1       7.594   0.202   3.912  0.00  0.00    -0.221 N 
ATOM     23  H   UNL     1       8.014  -0.714   4.034  0.00  0.00    +0.161 HD
ATOM     24  C   UNL     1       8.053   1.192   4.758  0.00  0.00    +0.236 C 
ATOM     25  O   UNL     1       7.967   2.401   4.544  0.00  0.00    -0.274 OA
ATOM     26  O   UNL     1       7.254  -0.437   1.766  0.00  0.00    -0.226 OA
BRANCH  24  27
ATOM     27  C   UNL     1       8.592   0.698   6.087  0.00  0.00    +0.204 C 
ATOM     28 CL   UNL     1       9.396  -0.878   5.926  0.00  0.00    -0.116 Cl
ENDBRANCH  24  27
ENDBRANCH  20  21
ENDBRANCH   7  20
TORSDOF 7
