REMARK  Name = 
REMARK  18 active torsions:
REMARK  status: ('A' for Active; 'I' for Inactive)
REMARK    1  A    between atoms: C_2  and  C_3
REMARK    2  A    between atoms: C_2  and  C_12
REMARK    3  A    between atoms: C_2  and  C_16
REMARK    4  A    between atoms: C_3  and  N_4
REMARK    5  A    between atoms: C_5  and  C_7
REMARK    6  A    between atoms: N_14  and  O_15
REMARK    7  A    between atoms: C_16  and  C_18
REMARK    8  A    between atoms: C_16  and  C_22
REMARK    9  A    between atoms: C_18  and  C_19
REMARK   10  A    between atoms: C_19  and  C_20
REMARK   11  A    between atoms: C_19  and  C_21
REMARK   12  A    between atoms: N_24  and  C_25
REMARK   13  A    between atoms: C_25  and  C_27
REMARK   14  A    between atoms: C_25  and  C_31
REMARK   15  A    between atoms: N_29  and  C_30
REMARK   16  A    between atoms: C_31  and  C_32
REMARK   17  A    between atoms: C_31  and  C_33
REMARK   18  A    between atoms: C_31  and  C_34
REMARK                            x       y       z     vdW  Elec       q    Type
REMARK                         _______ _______ _______ _____ _____    ______ ____
ROOT
ATOM      1  C   UNL     1       6.658  -0.541  -0.335  0.00  0.00    +0.089 C 
ENDROOT
BRANCH   1   2
ATOM      2  C   UNL     1       7.112  -1.013   1.058  0.00  0.00    +0.218 C 
ATOM      3  N   UNL     1       6.644  -2.247   1.436  0.00  0.00    -0.303 N 
ATOM      4  H   UNL     1       5.951  -2.684   0.847  0.00  0.00    +0.149 HD
ATOM      5  O   UNL     1       7.881  -0.356   1.754  0.00  0.00    -0.275 OA
BRANCH   3   6
ATOM      6  C   UNL     1       6.808  -2.818   2.785  0.00  0.00    +0.164 C 
BRANCH   6   7
ATOM      7  C   UNL     1       8.283  -3.288   2.952  0.00  0.00    +0.234 C 
ATOM      8  N   UNL     1       9.154  -2.335   3.434  0.00  0.00    -0.317 N 
ATOM      9  H   UNL     1       8.899  -1.366   3.237  0.00  0.00    +0.148 HD
ATOM     10  C   UNL     1      10.555  -2.660   3.552  0.00  0.00    +0.128 C 
ATOM     11  O   UNL     1       8.674  -4.408   2.620  0.00  0.00    -0.274 OA
ENDBRANCH   6   7
BRANCH   6  12
ATOM     12  C   UNL     1       5.764  -3.972   3.033  0.00  0.00    -0.011 C 
ATOM     13  C   UNL     1       5.861  -5.102   1.984  0.00  0.00    +0.013 C 
ATOM     14  C   UNL     1       4.323  -3.408   2.972  0.00  0.00    +0.013 C 
ATOM     15  C   UNL     1       5.941  -4.583   4.440  0.00  0.00    +0.013 C 
ENDBRANCH   6  12
ENDBRANCH   3   6
ENDBRANCH   1   2
BRANCH   1  16
ATOM     16  C   UNL     1       7.389  -1.365  -1.448  0.00  0.00    +0.106 C 
BRANCH  16  17
ATOM     17  C   UNL     1       6.919  -0.961  -2.849  0.00  0.00    +0.241 C 
ATOM     18  N   UNL     1       7.616   0.020  -3.517  0.00  0.00    -0.197 N 
ATOM     19  H   UNL     1       8.625   0.136  -3.403  0.00  0.00    +0.182 HD
ATOM     20  O   UNL     1       5.898  -1.452  -3.342  0.00  0.00    -0.273 OA
BRANCH  18  21
ATOM     21  O   UNL     1       7.164   0.241  -4.847  0.00  0.00    -0.295 OA
ATOM     22  H   UNL     1       6.400  -0.372  -4.920  0.00  0.00    +0.241 HD
ENDBRANCH  18  21
ENDBRANCH  16  17
BRANCH  16  23
ATOM     23  C   UNL     1       8.925  -1.323  -1.323  0.00  0.00    +0.118 C 
BRANCH  23  24
ATOM     24  N   UNL     1       9.596  -2.146  -2.324  0.00  0.00    -0.309 N 
ATOM     25  H   UNL     1       9.533  -3.162  -2.284  0.00  0.00    +0.149 HD
ATOM     26  C   UNL     1      10.441  -1.632  -3.293  0.00  0.00    +0.269 C 
ATOM     27  O   UNL     1      10.588  -0.414  -3.407  0.00  0.00    -0.268 OA
BRANCH  26  28
ATOM     28  C   UNL     1      11.065  -2.647  -4.143  0.00  0.00    +0.163 A 
ATOM     29  S   UNL     1      12.186  -2.214  -5.375  0.00  0.00    -0.071 S 
ATOM     30  C   UNL     1      12.318  -3.862  -5.819  0.00  0.00    +0.067 A 
ATOM     31  C   UNL     1      11.512  -4.628  -5.003  0.00  0.00    +0.119 A 
ATOM     32  N   UNL     1      10.803  -3.940  -4.034  0.00  0.00    -0.243 NA
ENDBRANCH  26  28
ENDBRANCH  23  24
ENDBRANCH  16  23
ENDBRANCH   1  16
BRANCH   1  33
ATOM     33  C   UNL     1       5.106  -0.626  -0.470  0.00  0.00    +0.016 C 
BRANCH  33  34
ATOM     34  C   UNL     1       4.257  -0.011   0.669  0.00  0.00    -0.016 C 
ATOM     35  C   UNL     1       2.768  -0.285   0.412  0.00  0.00    +0.007 C 
ATOM     36  C   UNL     1       4.476   1.493   0.823  0.00  0.00    +0.007 C 
ENDBRANCH  33  34
ENDBRANCH   1  33
TORSDOF 12
