REMARK  Name = 
REMARK  11 active torsions:
REMARK  status: ('A' for Active; 'I' for Inactive)
REMARK    1  A    between atoms: C_2  and  C_3
REMARK    2  A    between atoms: C_2  and  C_5
REMARK    3  A    between atoms: C_2  and  C_7
REMARK    4  A    between atoms: C_3  and  C_4
REMARK    5  A    between atoms: CA_10  and  C_11
REMARK    6  A    between atoms: C_11  and  O_12
REMARK    7  A    between atoms: C_20  and  O_22
REMARK    8  A    between atoms: O_22  and  C_23
REMARK    9  A    between atoms: C_23  and  C_24
REMARK   10  A    between atoms: C_24  and  C_25
REMARK   11  A    between atoms: C_25  and  C_26
REMARK                            x       y       z     vdW  Elec       q    Type
REMARK                         _______ _______ _______ _____ _____    ______ ____
ROOT
ATOM      1  C   UNL     1       2.520  -1.165   0.915  0.00  0.00    +0.088 C 
ATOM      2  C   UNL     1       1.846  -2.551   1.079  0.00  0.00    +0.040 C 
ATOM      3  C   UNL     1       0.332  -2.531   0.950  0.00  0.00    +0.010 C 
ATOM      4  C   UNL     1      -0.185  -3.961   0.907  0.00  0.00    +0.003 C 
ATOM      5  C   UNL     1       0.410  -4.695  -0.284  0.00  0.00    +0.036 C 
ATOM      6  C   UNL     1       1.953  -4.767  -0.269  0.00  0.00    +0.147 C 
ATOM      7  C   UNL     1       2.548  -3.422   0.044  0.00  0.00    -0.009 C 
ATOM      8  CA  UNL     1       3.708  -2.820  -0.292  0.00  0.00    +0.114 C 
ATOM      9  N   UNL     1       3.808  -1.503   0.248  0.00  0.00    -0.334 N 
ATOM     10  H   UNL     1       4.005  -0.855  -0.524  0.00  0.00    +0.147 HD
ENDROOT
BRANCH   8  11
ATOM     11  C   UNL     1       4.912  -3.412  -0.979  0.00  0.00    +0.351 C 
ATOM     12  OXT UNL     1       4.993  -4.439  -1.619  0.00  0.00    -0.244 OA
BRANCH  11  13
ATOM     13  O   UNL     1       5.980  -2.623  -0.694  0.00  0.00    -0.476 OA
ATOM     14  H   UNL     1       5.700  -1.956  -0.030  0.00  0.00    +0.295 HD
ENDBRANCH  11  13
ENDBRANCH   8  11
BRANCH   1  15
ATOM     15  C   UNL     1       2.767  -0.378   2.213  0.00  0.00    +0.072 C 
BRANCH  15  16
ATOM     16  C   UNL     1       1.511   0.167   2.923  0.00  0.00    +0.009 C 
ATOM     17  C   UNL     1       0.638   1.082   2.079  0.00  0.00    +0.004 C 
ENDBRANCH  15  16
BRANCH  15  18
ATOM     18  C   UNL     1       3.558  -1.238   3.190  0.00  0.00    +0.228 C 
ATOM     19  O   UNL     1       3.087  -1.743   4.202  0.00  0.00    -0.301 OA
ENDBRANCH  15  18
ENDBRANCH   1  15
BRANCH   6  20
ATOM     20  O   UNL     1       2.390  -5.256  -1.543  0.00  0.00    -0.372 OA
BRANCH  20  21
ATOM     21  C   UNL     1       2.039  -6.626  -1.752  0.00  0.00    +0.160 C 
BRANCH  21  22
ATOM     22  C   UNL     1       2.591  -7.159  -3.070  0.00  0.00    +0.028 C 
BRANCH  22  23
ATOM     23  C   UNL     1       2.058  -8.576  -3.311  0.00  0.00    -0.001 C 
ATOM     24  C   UNL     1       2.543  -9.169  -4.621  0.00  0.00    +0.004 C 
ENDBRANCH  22  23
ENDBRANCH  21  22
ENDBRANCH  20  21
ENDBRANCH   6  20
TORSDOF 9
