REMARK  Name = 
REMARK  21 active torsions:
REMARK  status: ('A' for Active; 'I' for Inactive)
REMARK    1  A    between atoms: CA_2  and  C_100
REMARK    2  A    between atoms: CA_12  and  CB_14
REMARK    3  A    between atoms: CB_14  and  CG_15
REMARK    4  A    between atoms: CZ_18  and  OH_19
REMARK    5  A    between atoms: CA_25  and  CB_27
REMARK    6  A    between atoms: CB_27  and  CG_28
REMARK    7  A    between atoms: CG_28  and  CD_29
REMARK    8  A    between atoms: CD_29  and  OE1_30
REMARK    9  A    between atoms: CA_46  and  CB_48
REMARK   10  A    between atoms: CA_60  and  CB_62
REMARK   11  A    between atoms: CB_62  and  CG_63
REMARK   12  A    between atoms: CA_75  and  N_77
REMARK   13  A    between atoms: CA_87  and  CB_89
REMARK   14  A    between atoms: CB_89  and  CG2_91
REMARK   15  A    between atoms: CB_89  and  OG1_92
REMARK   16  A    between atoms: N_102  and  CA_103
REMARK   17  A    between atoms: CA_103  and  CB_105
REMARK   18  A    between atoms: CA_103  and  C_113
REMARK   19  A    between atoms: CB_105  and  CG_106
REMARK   20  A    between atoms: CZ_109  and  OH_110
REMARK   21  A    between atoms: C_113  and  O_114
REMARK                            x       y       z     vdW  Elec       q    Type
REMARK                         _______ _______ _______ _____ _____    ______ ____
ROOT
ATOM      1  CA  CYS A  13      -0.000  -0.000  -0.000  0.00  0.00    +0.169 C 
ATOM      2  N   CYS A  13      -0.000  -0.000  -0.000  0.00  0.00    -0.302 N 
ATOM      3  H   CYS A  13       0.000   0.000   0.000  0.00  0.00    +0.150 HD
ATOM      4  C   GLY A  12      -0.000  -0.000   0.000  0.00  0.00    +0.231 C 
ATOM      5  O   GLY A  12      -0.000  -0.000   0.000  0.00  0.00    -0.274 OA
ATOM      6  CA  GLY A  12      -0.000  -0.000   0.000  0.00  0.00    +0.200 C 
ATOM      7  N   GLY A  12      -0.000  -0.000  -0.000  0.00  0.00    -0.305 N 
ATOM      8  H   GLY A  12       0.000   0.000   0.000  0.00  0.00    +0.149 HD
ATOM      9  C   THR A  11      -0.000  -0.000  -0.000  0.00  0.00    +0.236 C 
ATOM     10  O   THR A  11      -0.000  -0.000   0.000  0.00  0.00    -0.274 OA
ATOM     11  CA  THR A  11      -0.000  -0.000   0.000  0.00  0.00    +0.187 C 
ATOM     12  N   THR A  11      -0.000  -0.000  -0.000  0.00  0.00    -0.300 N 
ATOM     13  H   THR A  11       0.000   0.000   0.000  0.00  0.00    +0.150 HD
ATOM     14  C   CYS A  10      -0.000  -0.000  -0.000  0.00  0.00    +0.235 C 
ATOM     15  O   CYS A  10      -0.000  -0.000   0.000  0.00  0.00    -0.274 OA
ATOM     16  CA  CYS A  10      -0.000  -0.000   0.000  0.00  0.00    +0.169 C 
ATOM     17  N   CYS A  10      -0.000  -0.000  -0.000  0.00  0.00    -0.302 N 
ATOM     18  H   CYS A  10       0.000   0.000   0.000  0.00  0.00    +0.150 HD
ATOM     19  C   ALA A   9      -0.000  -0.000   0.000  0.00  0.00    +0.234 C 
ATOM     20  CA  ALA A   9      -0.000  -0.000  -0.000  0.00  0.00    +0.156 C 
ATOM     21  CB  ALA A   9      -0.000  -0.000  -0.000  0.00  0.00    +0.038 C 
ATOM     22  N   ALA A   9      -0.000  -0.000  -0.000  0.00  0.00    -0.303 N 
ATOM     23  H   ALA A   9       0.000   0.000   0.000  0.00  0.00    +0.149 HD
ATOM     24  C   PRO A   8      -0.000  -0.000   0.000  0.00  0.00    +0.234 C 
ATOM     25  CA  PRO A   8      -0.000  -0.000  -0.000  0.00  0.00    +0.162 C 
ATOM     26  N   PRO A   8      -0.000  -0.000   0.000  0.00  0.00    -0.288 N 
ATOM     27  C   ASN A   7      -0.000  -0.000   0.000  0.00  0.00    +0.237 C 
ATOM     28  CA  ASN A   7      -0.000  -0.000  -0.000  0.00  0.00    +0.168 C 
ATOM     29  N   ASN A   7      -0.000  -0.000  -0.000  0.00  0.00    -0.302 N 
ATOM     30  H   ASN A   7       0.000   0.000   0.000  0.00  0.00    +0.150 HD
ATOM     31  C   CYS A   6      -0.000  -0.000   0.000  0.00  0.00    +0.235 C 
ATOM     32  CA  CYS A   6      -0.000  -0.000  -0.000  0.00  0.00    +0.169 C 
ATOM     33  N   CYS A   6      -0.000  -0.000   0.000  0.00  0.00    -0.302 N 
ATOM     34  H   CYS A   6       0.000   0.000   0.000  0.00  0.00    +0.150 HD
ATOM     35  C   CYS A   5      -0.000  -0.000   0.000  0.00  0.00    +0.235 C 
ATOM     36  O   CYS A   5      -0.000  -0.000   0.000  0.00  0.00    -0.274 OA
ATOM     37  CA  CYS A   5      -0.000  -0.000   0.000  0.00  0.00    +0.169 C 
ATOM     38  N   CYS A   5      -0.000  -0.000  -0.000  0.00  0.00    -0.302 N 
ATOM     39  H   CYS A   5       0.000   0.000   0.000  0.00  0.00    +0.150 HD
ATOM     40  C   TYR A   4      -0.000  -0.000   0.000  0.00  0.00    +0.234 C 
ATOM     41  CA  TYR A   4      -0.000  -0.000  -0.000  0.00  0.00    +0.163 C 
ATOM     42  N   TYR A   4      -0.000  -0.000   0.000  0.00  0.00    -0.302 N 
ATOM     43  H   TYR A   4       0.000   0.000   0.000  0.00  0.00    +0.150 HD
ATOM     44  C   GLU A   3      -0.000  -0.000   0.000  0.00  0.00    +0.234 C 
ATOM     45  CA  GLU A   3      -0.000  -0.000  -0.000  0.00  0.00    +0.159 C 
ATOM     46  N   GLU A   3      -0.000  -0.000  -0.000  0.00  0.00    -0.302 N 
ATOM     47  H   GLU A   3       0.000   0.000   0.000  0.00  0.00    +0.150 HD
ATOM     48  C   CYS A   2      -0.000  -0.000   0.000  0.00  0.00    +0.235 C 
ATOM     49  CA  CYS A   2      -0.000  -0.000  -0.000  0.00  0.00    +0.169 C 
ATOM     50  N   CYS A   2      -0.000  -0.000  -0.000  0.00  0.00    -0.302 N 
ATOM     51  H   CYS A   2       0.000   0.000   0.000  0.00  0.00    +0.150 HD
ATOM     52  C   CYS A   1      -0.000  -0.000  -0.000  0.00  0.00    +0.231 C 
ATOM     53  O   CYS A   1      -0.000  -0.000   0.000  0.00  0.00    -0.274 OA
ATOM     54  CA  CYS A   1      -0.000  -0.000   0.000  0.00  0.00    +0.148 C 
ATOM     55  CB  CYS A   1      -0.000  -0.000   0.000  0.00  0.00    +0.109 C 
ATOM     56  SG  CYS A   1      -0.000  -0.000   0.000  0.00  0.00    -0.091 S 
ATOM     57  SG  CYS A   6      -0.000  -0.000   0.000  0.00  0.00    -0.091 S 
ATOM     58  CB  CYS A   2      -0.000  -0.000  -0.000  0.00  0.00    +0.112 C 
ATOM     59  SG  CYS A   2      -0.000  -0.000   0.000  0.00  0.00    -0.091 S 
ATOM     60  SG  CYS A  10      -0.000  -0.000   0.000  0.00  0.00    -0.091 S 
ATOM     61  O   CYS A   2      -0.000  -0.000   0.000  0.00  0.00    -0.274 OA
ATOM     62  O   GLU A   3      -0.000  -0.000   0.000  0.00  0.00    -0.274 OA
ATOM     63  O   TYR A   4      -0.000  -0.000   0.000  0.00  0.00    -0.274 OA
ATOM     64  CB  CYS A   5      -0.000  -0.000   0.000  0.00  0.00    +0.112 C 
ATOM     65  SG  CYS A   5      -0.000  -0.000   0.000  0.00  0.00    -0.091 S 
ATOM     66  SG  CYS A  13      -0.000  -0.000   0.000  0.00  0.00    -0.091 S 
ATOM     67  CB  CYS A   6      -0.000  -0.000  -0.000  0.00  0.00    +0.112 C 
ATOM     68  O   CYS A   6      -0.000  -0.000   0.000  0.00  0.00    -0.274 OA
ATOM     69  O   ASN A   7      -0.000  -0.000   0.000  0.00  0.00    -0.274 OA
ATOM     70  CD  PRO A   8      -0.000  -0.000   0.000  0.00  0.00    +0.109 C 
ATOM     71  CG  PRO A   8      -0.000  -0.000   0.000  0.00  0.00    +0.021 C 
ATOM     72  CB  PRO A   8      -0.000  -0.000  -0.000  0.00  0.00    +0.033 C 
ATOM     73  O   PRO A   8      -0.000  -0.000   0.000  0.00  0.00    -0.274 OA
ATOM     74  O   ALA A   9      -0.000  -0.000   0.000  0.00  0.00    -0.274 OA
ATOM     75  CB  CYS A  10      -0.000  -0.000   0.000  0.00  0.00    +0.112 C 
ATOM     76  CB  CYS A  13      -0.000  -0.000   0.000  0.00  0.00    +0.112 C 
ENDROOT
BRANCH   1  77
ATOM     77  C   CYS A  13      -0.000  -0.000   0.000  0.00  0.00    +0.235 C 
ATOM     78  N   TYR A  14      -0.000  -0.000  -0.000  0.00  0.00    -0.301 N 
ATOM     79  H   TYR A  14      -0.000  -0.000   0.000  0.00  0.00    +0.150 HD
ATOM     80  O   CYS A  13      -0.000  -0.000  -0.000  0.00  0.00    -0.274 OA
BRANCH  78  81
ATOM     81  CA  TYR A  14      -0.000  -0.000  -0.000  0.00  0.00    +0.186 C 
BRANCH  81  82
ATOM     82  C   TYR A  14      -0.000  -0.000   0.000  0.00  0.00    +0.326 C 
ATOM     83  OXT TYR A  14      -0.000  -0.000  -0.000  0.00  0.00    -0.249 OA
BRANCH  82  84
ATOM     84  O   TYR A  14      -0.000  -0.000  -0.000  0.00  0.00    -0.479 OA
ATOM     85  H   TYR A  14      -0.000  -0.000  -0.000  0.00  0.00    +0.295 HD
ENDBRANCH  82  84
ENDBRANCH  81  82
BRANCH  81  86
ATOM     86  CB  TYR A  14      -0.000  -0.000  -0.000  0.00  0.00    +0.069 C 
BRANCH  86  87
ATOM     87  CG  TYR A  14      -0.000  -0.000  -0.000  0.00  0.00    -0.045 A 
ATOM     88  CD2 TYR A  14      -0.000  -0.000  -0.000  0.00  0.00    +0.007 A 
ATOM     89  CE2 TYR A  14      -0.000  -0.000  -0.000  0.00  0.00    +0.045 A 
ATOM     90  CZ  TYR A  14      -0.000  -0.000  -0.000  0.00  0.00    +0.117 A 
ATOM     91  CE1 TYR A  14      -0.000  -0.000  -0.000  0.00  0.00    +0.045 A 
ATOM     92  CD1 TYR A  14      -0.000  -0.000  -0.000  0.00  0.00    +0.007 A 
BRANCH  90  93
ATOM     93  OH  TYR A  14      -0.000  -0.000  -0.000  0.00  0.00    -0.507 OA
ATOM     94  HH  TYR A  14      -0.000  -0.000  -0.000  0.00  0.00    +0.292 HD
ENDBRANCH  90  93
ENDBRANCH  86  87
ENDBRANCH  81  86
ENDBRANCH  78  81
ENDBRANCH   1  77
BRANCH  54  95
ATOM     95  N   CYS A   1      -0.000  -0.000  -0.000  0.00  0.00    -0.319 NA
ATOM     96  H1  CYS A   1       0.000   0.000   0.000  0.00  0.00    +0.119 HD
ATOM     97  H2  CYS A   1       0.000   0.000   0.000  0.00  0.00    +0.119 HD
ENDBRANCH  54  95
BRANCH  11  98
ATOM     98  CB  THR A  11      -0.000  -0.000  -0.000  0.00  0.00    +0.141 C 
ATOM     99  CG2 THR A  11      -0.000  -0.000   0.000  0.00  0.00    +0.040 C 
BRANCH  98 100
ATOM    100  OG1 THR A  11      -0.000  -0.000   0.000  0.00  0.00    -0.390 OA
ATOM    101  HG1 THR A  11      -0.000  -0.000   0.000  0.00  0.00    +0.210 HD
ENDBRANCH  98 100
ENDBRANCH  11  98
BRANCH  28 102
ATOM    102  CB  ASN A   7      -0.000  -0.000  -0.000  0.00  0.00    +0.127 C 
BRANCH 102 103
ATOM    103  CG  ASN A   7      -0.000  -0.000  -0.000  0.00  0.00    +0.213 C 
ATOM    104  OD1 ASN A   7      -0.000  -0.000  -0.000  0.00  0.00    -0.276 OA
ATOM    105  ND2 ASN A   7      -0.000  -0.000  -0.000  0.00  0.00    -0.329 N 
ATOM    106 HD21 ASN A   7      -0.000  -0.000  -0.000  0.00  0.00    +0.145 HD
ATOM    107 HD22 ASN A   7      -0.000  -0.000  -0.000  0.00  0.00    +0.145 HD
ENDBRANCH 102 103
ENDBRANCH  28 102
BRANCH  41 108
ATOM    108  CB  TYR A   4      -0.000  -0.000  -0.000  0.00  0.00    +0.067 C 
BRANCH 108 109
ATOM    109  CG  TYR A   4      -0.000  -0.000  -0.000  0.00  0.00    -0.045 A 
ATOM    110  CD2 TYR A   4      -0.000  -0.000  -0.000  0.00  0.00    +0.007 A 
ATOM    111  CE2 TYR A   4      -0.000  -0.000  -0.000  0.00  0.00    +0.045 A 
ATOM    112  CZ  TYR A   4      -0.000  -0.000  -0.000  0.00  0.00    +0.117 A 
ATOM    113  CE1 TYR A   4      -0.000  -0.000  -0.000  0.00  0.00    +0.045 A 
ATOM    114  CD1 TYR A   4      -0.000  -0.000  -0.000  0.00  0.00    +0.007 A 
BRANCH 112 115
ATOM    115  OH  TYR A   4      -0.000  -0.000  -0.000  0.00  0.00    -0.507 OA
ATOM    116  HH  TYR A   4      -0.000  -0.000  -0.000  0.00  0.00    +0.292 HD
ENDBRANCH 112 115
ENDBRANCH 108 109
ENDBRANCH  41 108
BRANCH  45 117
ATOM    117  CB  GLU A   3      -0.000  -0.000  -0.000  0.00  0.00    +0.043 C 
BRANCH 117 118
ATOM    118  CG  GLU A   3      -0.000  -0.000  -0.000  0.00  0.00    +0.123 C 
BRANCH 118 119
ATOM    119  CD  GLU A   3      -0.000  -0.000  -0.000  0.00  0.00    +0.305 C 
ATOM    120  OE2 GLU A   3      -0.000  -0.000  -0.000  0.00  0.00    -0.251 OA
BRANCH 119 121
ATOM    121  OE1 GLU A   3      -0.000  -0.000  -0.000  0.00  0.00    -0.481 OA
ATOM    122  HE1 GLU A   3      -0.000  -0.000  -0.000  0.00  0.00    +0.295 HD
ENDBRANCH 119 121
ENDBRANCH 118 119
ENDBRANCH 117 118
ENDBRANCH  45 117
TORSDOF 19
