REMARK  Name = 
REMARK  11 active torsions:
REMARK  status: ('A' for Active; 'I' for Inactive)
REMARK    1  A    between atoms: O_1  and  C_2
REMARK    2  A    between atoms: C_2  and  C_3
REMARK    3  A    between atoms: C_3  and  O_4
REMARK    4  A    between atoms: O_4  and  C_5
REMARK    5  A    between atoms: C_5  and  C_6
REMARK    6  A    between atoms: C_6  and  O_7
REMARK    7  A    between atoms: O_7  and  C_8
REMARK    8  A    between atoms: C_8  and  C_10
REMARK    9  A    between atoms: C_15  and  N_16
REMARK   10  A    between atoms: N_16  and  C_17
REMARK   11  A    between atoms: C_21  and  C_23
REMARK                            x       y       z     vdW  Elec       q    Type
REMARK                         _______ _______ _______ _____ _____    ______ ____
ROOT
ATOM      1  C   UNL     1       8.532   5.329   2.203  0.00  0.00    +0.080 A 
ATOM      2  C   UNL     1       9.856   5.465   2.678  0.00  0.00    +0.045 A 
ATOM      3  C   UNL     1      10.331   6.765   2.952  0.00  0.00    +0.024 A 
ATOM      4  C   UNL     1       9.565   7.899   2.682  0.00  0.00    +0.002 A 
ATOM      5  C   UNL     1       8.294   7.763   2.147  0.00  0.00    +0.001 A 
ATOM      6  C   UNL     1       7.776   6.488   1.921  0.00  0.00    +0.017 A 
ENDROOT
BRANCH   1   7
ATOM      7  C   UNL     1       7.935   3.990   1.902  0.00  0.00    +0.341 C 
ATOM      8  O   UNL     1       8.562   2.942   1.910  0.00  0.00    -0.245 OA
BRANCH   7   9
ATOM      9  O   UNL     1       6.631   4.126   1.538  0.00  0.00    -0.459 OA
BRANCH   9  10
ATOM     10  C   UNL     1       6.221   3.343   0.412  0.00  0.00    +0.260 C 
BRANCH  10  11
ATOM     11  C   UNL     1       5.090   2.369   0.726  0.00  0.00    +0.201 C 
BRANCH  11  12
ATOM     12  O   UNL     1       4.719   1.741  -0.505  0.00  0.00    -0.374 OA
BRANCH  12  13
ATOM     13  C   UNL     1       3.682   0.776  -0.352  0.00  0.00    +0.187 C 
BRANCH  13  14
ATOM     14  C   UNL     1       3.399   0.142  -1.710  0.00  0.00    +0.184 C 
BRANCH  14  15
ATOM     15  O   UNL     1       2.370  -0.834  -1.604  0.00  0.00    -0.393 OA
ATOM     16  H   UNL     1       2.249  -1.213  -2.493  0.00  0.00    +0.209 HD
ENDBRANCH  14  15
ENDBRANCH  13  14
ENDBRANCH  12  13
ENDBRANCH  11  12
ENDBRANCH  10  11
ENDBRANCH   9  10
ENDBRANCH   7   9
ENDBRANCH   1   7
BRANCH   2  17
ATOM     17  N   UNL     1      10.721   4.361   2.919  0.00  0.00    -0.314 N 
ATOM     18  H   UNL     1      10.272   3.464   2.698  0.00  0.00    +0.152 HD
BRANCH  17  19
ATOM     19  C   UNL     1      12.115   4.298   2.666  0.00  0.00    +0.032 A 
ATOM     20  C   UNL     1      12.736   5.030   1.641  0.00  0.00    +0.035 A 
ATOM     21  C   UNL     1      14.116   4.914   1.385  0.00  0.00    +0.057 A 
ATOM     22  C   UNL     1      14.883   4.059   2.186  0.00  0.00    +0.012 A 
ATOM     23  C   UNL     1      14.279   3.321   3.202  0.00  0.00    +0.002 A 
ATOM     24  C   UNL     1      12.903   3.429   3.428  0.00  0.00    +0.023 A 
BRANCH  21  25
ATOM     25  C   UNL     1      14.743   5.689   0.253  0.00  0.00    +0.417 C 
ATOM     26  F   UNL     1      14.677   7.037   0.438  0.00  0.00    -0.166 F 
ATOM     27  F   UNL     1      14.136   5.447  -0.944  0.00  0.00    -0.166 F 
ATOM     28  F   UNL     1      16.063   5.406   0.060  0.00  0.00    -0.166 F 
ENDBRANCH  21  25
ENDBRANCH  17  19
ENDBRANCH   2  17
TORSDOF 11
