REMARK  Name = 
REMARK  4 active torsions:
REMARK  status: ('A' for Active; 'I' for Inactive)
REMARK    1  A    between atoms: C_2  and  N_3
REMARK    2  A    between atoms: C_2  and  O_4
REMARK    3  A    between atoms: C_2  and  C_5
REMARK    4  A    between atoms: C_5  and  C_6
REMARK                            x       y       z     vdW  Elec       q    Type
REMARK                         _______ _______ _______ _____ _____    ______ ____
ROOT
ATOM      1  C   UNL     1       4.192  -0.978  -1.098  0.00  0.00    -0.019 A 
ATOM      2  C   UNL     1       5.039   0.054  -1.620  0.00  0.00    +0.003 A 
ATOM      3  C   UNL     1       6.360  -0.352  -1.428  0.00  0.00    +0.047 A 
ATOM      4  C   UNL     1       7.456   0.432  -1.806  0.00  0.00    +0.026 A 
ATOM      5  C   UNL     1       7.194   1.669  -2.404  0.00  0.00    +0.002 A 
ATOM      6  C   UNL     1       5.887   2.101  -2.613  0.00  0.00    +0.001 A 
ATOM      7  N   UNL     1       6.320  -1.592  -0.836  0.00  0.00    -0.360 N 
ATOM      8  H   UNL     1       7.137  -2.130  -0.583  0.00  0.00    +0.165 HD
ATOM      9  C   UNL     1       4.803   1.306  -2.225  0.00  0.00    +0.010 A 
ATOM     10  C   UNL     1       5.023  -1.983  -0.640  0.00  0.00    +0.087 A 
ENDROOT
BRANCH   1  11
ATOM     11  C   UNL     1       2.689  -0.962  -1.047  0.00  0.00    +0.084 C 
BRANCH  11  12
ATOM     12  C   UNL     1       2.113  -0.318   0.235  0.00  0.00    +0.184 C 
BRANCH  12  13
ATOM     13  N   UNL     1       2.534  -0.957   1.466  0.00  0.00    -0.306 NA
ATOM     14  H   UNL     1       2.247  -1.933   1.442  0.00  0.00    +0.121 HD
ATOM     15  H   UNL     1       3.552  -0.976   1.497  0.00  0.00    +0.121 HD
ENDBRANCH  12  13
BRANCH  12  16
ATOM     16  O   UNL     1       2.454   1.050   0.304  0.00  0.00    -0.377 OA
ATOM     17  H   UNL     1       3.401   1.073   0.520  0.00  0.00    +0.211 HD
ENDBRANCH  12  16
ENDBRANCH  11  12
ENDBRANCH   1  11
TORSDOF 4
