REMARK  Name = 
REMARK  7 active torsions:
REMARK  status: ('A' for Active; 'I' for Inactive)
REMARK    1  A    between atoms: O_1  and  C_2
REMARK    2  A    between atoms: C_2  and  C_23
REMARK    3  A    between atoms: N_5  and  C_6
REMARK    4  A    between atoms: C_6  and  C_7
REMARK    5  A    between atoms: C_7  and  C_8
REMARK    6  A    between atoms: C_8  and  C_9
REMARK    7  A    between atoms: C_9  and  C_14
REMARK                            x       y       z     vdW  Elec       q    Type
REMARK                         _______ _______ _______ _____ _____    ______ ____
ROOT
ATOM      1  C   UNL     1       2.130  -3.573  -3.176  0.00  0.00    +0.093 C 
ATOM      2  C   UNL     1       2.629  -3.115  -1.789  0.00  0.00    +0.055 C 
ATOM      3  C   UNL     1       2.438  -1.614  -1.562  0.00  0.00    +0.087 C 
ATOM      4  N   UNL     1       2.979  -0.783  -2.645  0.00  0.00    -0.302 NA
ATOM      5  C   UNL     1       2.359  -1.163  -3.924  0.00  0.00    +0.087 C 
ATOM      6  C   UNL     1       2.595  -2.627  -4.299  0.00  0.00    +0.055 C 
ENDROOT
BRANCH   1   7
ATOM      7  C   UNL     1       2.583  -5.012  -3.451  0.00  0.00    -0.016 A 
ATOM      8  C   UNL     1       3.950  -5.343  -3.514  0.00  0.00    +0.008 A 
ATOM      9  C   UNL     1       4.368  -6.658  -3.724  0.00  0.00    +0.020 A 
ATOM     10  C   UNL     1       3.422  -7.670  -3.880  0.00  0.00    +0.041 A 
ATOM     11 CL   UNL     1       3.932  -9.295  -4.112  0.00  0.00    -0.084 Cl
ATOM     12  C   UNL     1       2.066  -7.367  -3.841  0.00  0.00    +0.020 A 
ATOM     13  C   UNL     1       1.651  -6.050  -3.630  0.00  0.00    +0.008 A 
ENDBRANCH   1   7
BRANCH   1  14
ATOM     14  O   UNL     1       0.691  -3.553  -3.157  0.00  0.00    -0.384 OA
ATOM     15  H   UNL     1       0.392  -2.649  -2.970  0.00  0.00    +0.211 HD
ENDBRANCH   1  14
BRANCH   4  16
ATOM     16  C   UNL     1       4.456  -0.777  -2.660  0.00  0.00    +0.084 C 
BRANCH  16  17
ATOM     17  C   UNL     1       4.995   0.258  -3.651  0.00  0.00    +0.018 C 
BRANCH  17  18
ATOM     18  C   UNL     1       6.533   0.279  -3.754  0.00  0.00    +0.034 C 
BRANCH  18  19
ATOM     19  C   UNL     1       7.106   1.229  -4.855  0.00  0.00    +0.087 C 
ATOM     20  S   UNL     1       6.548   2.989  -4.562  0.00  0.00    -0.138 S 
ATOM     21  C   UNL     1       5.875   3.350  -6.205  0.00  0.00    +0.081 C 
ATOM     22  C   UNL     1       6.370   2.357  -7.232  0.00  0.00    +0.081 C 
ATOM     23  S   UNL     1       6.382   0.718  -6.489  0.00  0.00    -0.138 S 
BRANCH  19  24
ATOM     24  C   UNL     1       8.653   1.228  -4.835  0.00  0.00    -0.021 A 
ATOM     25  C   UNL     1       9.334   1.622  -3.657  0.00  0.00    +0.008 A 
ATOM     26  C   UNL     1      10.727   1.700  -3.608  0.00  0.00    +0.038 A 
ATOM     27  C   UNL     1      11.470   1.381  -4.733  0.00  0.00    +0.123 A 
ATOM     28  F   UNL     1      12.805   1.467  -4.694  0.00  0.00    -0.205 F 
ATOM     29  C   UNL     1      10.844   0.981  -5.904  0.00  0.00    +0.038 A 
ATOM     30  C   UNL     1       9.449   0.901  -5.952  0.00  0.00    +0.008 A 
ENDBRANCH  19  24
ENDBRANCH  18  19
ENDBRANCH  17  18
ENDBRANCH  16  17
ENDBRANCH   4  16
TORSDOF 7
