REMARK  Name = 
REMARK  11 active torsions:
REMARK  status: ('A' for Active; 'I' for Inactive)
REMARK    1  A    between atoms: CA_2  and  C_3
REMARK    2  A    between atoms: CA_2  and  C_5
REMARK    3  A    between atoms: CA_2  and  N_7
REMARK    4  A    between atoms: C_3  and  C_4
REMARK    5  A    between atoms: C_5  and  O_6
REMARK    6  A    between atoms: N_14  and  C_15
REMARK    7  A    between atoms: C_15  and  C_16
REMARK    8  A    between atoms: C_15  and  C_17
REMARK    9  A    between atoms: N_19  and  C_20
REMARK   10  A    between atoms: C_20  and  C_21
REMARK   11  A    between atoms: C_24  and  C_27
REMARK                            x       y       z     vdW  Elec       q    Type
REMARK                         _______ _______ _______ _____ _____    ______ ____
ROOT
ATOM      1  N   UNL     1       2.750  -0.405  -1.419  0.00  0.00    -0.308 N 
ATOM      2  H   UNL     1       2.443  -1.301  -1.055  0.00  0.00    +0.149 HD
ATOM      3  C   UNL     1       4.126  -0.544  -1.613  0.00  0.00    +0.219 A 
ATOM      4  N   UNL     1       4.570  -1.820  -1.710  0.00  0.00    -0.197 NA
ATOM      5  C   UNL     1       5.887  -2.061  -1.962  0.00  0.00    +0.152 A 
ATOM      6  N   UNL     1       6.397  -3.339  -2.167  0.00  0.00    -0.323 N 
ATOM      7  H   UNL     1       7.416  -3.324  -2.138  0.00  0.00    +0.148 HD
ATOM      8  C   UNL     1       6.745  -0.951  -2.062  0.00  0.00    +0.148 A 
ATOM      9  N   UNL     1       8.103  -0.854  -2.288  0.00  0.00    -0.231 NA
ATOM     10  C   UNL     1       8.346   0.439  -2.291  0.00  0.00    +0.201 A 
ATOM     11  N   UNL     1       7.212   1.178  -2.072  0.00  0.00    -0.312 N 
ATOM     12  C   UNL     1       6.175   0.297  -1.921  0.00  0.00    +0.167 A 
ATOM     13  N   UNL     1       4.885   0.561  -1.694  0.00  0.00    -0.195 NA
ENDROOT
BRANCH  11  14
ATOM     14  C   UNL     1       7.126   2.631  -2.027  0.00  0.00    +0.084 C 
ATOM     15  C   UNL     1       7.483   3.257  -3.377  0.00  0.00    +0.030 C 
ATOM     16  C   UNL     1       7.992   3.212  -0.909  0.00  0.00    +0.030 C 
ENDBRANCH  11  14
BRANCH   1  17
ATOM     17  CA  UNL     1       2.320   0.784  -0.674  0.00  0.00    +0.098 C 
BRANCH  17  18
ATOM     18  C   UNL     1       0.980   0.490   0.044  0.00  0.00    +0.021 C 
ATOM     19  C   UNL     1      -0.227   0.294  -0.867  0.00  0.00    +0.006 C 
ENDBRANCH  17  18
BRANCH  17  20
ATOM     20  C   UNL     1       2.222   2.033  -1.586  0.00  0.00    +0.178 C 
BRANCH  20  21
ATOM     21  O   UNL     1       1.900   3.208  -0.839  0.00  0.00    -0.393 OA
ATOM     22  H   UNL     1       0.953   3.169  -0.625  0.00  0.00    +0.209 HD
ENDBRANCH  20  21
ENDBRANCH  17  20
ENDBRANCH   1  17
BRANCH   6  23
ATOM     23  C   UNL     1       5.794  -4.470  -1.493  0.00  0.00    +0.138 C 
BRANCH  23  24
ATOM     24  C   UNL     1       6.612  -5.704  -1.832  0.00  0.00    -0.030 A 
ATOM     25  C   UNL     1       6.802  -6.081  -3.169  0.00  0.00    +0.006 A 
ATOM     26  C   UNL     1       7.645  -7.149  -3.508  0.00  0.00    +0.010 A 
ATOM     27  C   UNL     1       8.319  -7.893  -2.525  0.00  0.00    +0.000 A 
ATOM     28  C   UNL     1       8.083  -7.530  -1.184  0.00  0.00    +0.010 A 
ATOM     29  C   UNL     1       7.246  -6.458  -0.839  0.00  0.00    +0.006 A 
BRANCH  27  30
ATOM     30  C   UNL     1       9.265  -8.984  -2.862  0.00  0.00    +0.071 A 
ATOM     31  N   UNL     1      10.260  -9.200  -1.959  0.00  0.00    -0.255 NA
ATOM     32  C   UNL     1      11.166 -10.168  -2.223  0.00  0.00    +0.111 A 
ATOM     33  C   UNL     1      11.138 -10.960  -3.355  0.00  0.00    +0.020 A 
ATOM     34  C   UNL     1      10.120 -10.746  -4.272  0.00  0.00    +0.004 A 
ATOM     35  C   UNL     1       9.175  -9.748  -4.027  0.00  0.00    +0.028 A 
ENDBRANCH  27  30
ENDBRANCH  23  24
ENDBRANCH   6  23
TORSDOF 8
