REMARK  Name = 
REMARK  2 active torsions:
REMARK  status: ('A' for Active; 'I' for Inactive)
REMARK    1  A    between atoms: N_1  and  N_2
REMARK    2  A    between atoms: C_3  and  C_5
REMARK                            x       y       z     vdW  Elec       q    Type
REMARK                         _______ _______ _______ _____ _____    ______ ____
ROOT
ATOM      1  C   UNL     1       4.734  -0.230  -1.211  0.00  0.00    +0.145 A 
ATOM      2  N   UNL     1       5.542   0.903  -1.207  0.00  0.00    -0.223 NA
ATOM      3  C   UNL     1       6.780   0.443  -1.223  0.00  0.00    +0.146 A 
ATOM      4  N   UNL     1       6.808  -0.944  -1.245  0.00  0.00    -0.305 N 
ATOM      5  C   UNL     1       7.985  -1.686  -1.252  0.00  0.00    +0.093 A 
ATOM      6  C   UNL     1       9.185  -1.077  -1.242  0.00  0.00    +0.026 A 
ATOM      7  C   UNL     1       9.254   0.402  -1.230  0.00  0.00    -0.013 A 
ATOM      8  C   UNL     1      10.493   1.052  -1.232  0.00  0.00    +0.008 A 
ATOM      9  C   UNL     1      10.546   2.446  -1.228  0.00  0.00    +0.001 A 
ATOM     10  C   UNL     1       9.366   3.196  -1.213  0.00  0.00    +0.001 A 
ATOM     11  C   UNL     1       8.124   2.559  -1.206  0.00  0.00    +0.012 A 
ATOM     12  C   UNL     1       8.057   1.165  -1.219  0.00  0.00    +0.025 A 
ATOM     13  C   UNL     1       5.509  -1.373  -1.249  0.00  0.00    +0.125 A 
ENDROOT
BRANCH   1  16
ATOM     14  N   UNL     1       2.765   1.103  -1.162  0.00  0.00    -0.248 N 
ATOM     15  H   UNL     1       3.434   1.861  -1.306  0.00  0.00    +0.169 HD
ATOM     16  C   UNL     1       3.271  -0.192  -1.161  0.00  0.00    +0.277 C 
ATOM     17  O   UNL     1       2.573  -1.202  -1.101  0.00  0.00    -0.267 OA
BRANCH  14  18
ATOM     18  N   UNL     1       1.372   1.336  -1.201  0.00  0.00    -0.254 NA
ATOM     19  H   UNL     1       0.916   0.520  -0.771  0.00  0.00    +0.140 HD
ATOM     20  H   UNL     1       1.152   2.125  -0.591  0.00  0.00    +0.140 HD
ENDBRANCH  14  18
ENDBRANCH   1  16
TORSDOF 2
