REMARK  Name = 
REMARK  7 active torsions:
REMARK  status: ('A' for Active; 'I' for Inactive)
REMARK    1  A    between atoms: C_2  and  C_3
REMARK    2  A    between atoms: C_2  and  C_5
REMARK    3  A    between atoms: C_2  and  C_11
REMARK    4  A    between atoms: C_3  and  C_4
REMARK    5  A    between atoms: C_12  and  O_13
REMARK    6  A    between atoms: C_20  and  O_21
REMARK    7  A    between atoms: O_21  and  C_22
REMARK                            x       y       z     vdW  Elec       q    Type
REMARK                         _______ _______ _______ _____ _____    ______ ____
ROOT
ATOM      1  C   UNL     1       2.567  -0.808   1.273  0.00  0.00    +0.086 A 
ATOM      2  C   UNL     1       3.221  -0.194   2.462  0.00  0.00    +0.345 A 
ATOM      3  O   UNL     1       3.489   1.000   2.530  0.00  0.00    -0.245 OA
ATOM      4  O   UNL     1       3.545  -1.031   3.526  0.00  0.00    -0.422 OA
ATOM      5  C   UNL     1       3.280  -2.410   3.505  0.00  0.00    +0.146 A 
ATOM      6  C   UNL     1       3.642  -3.153   4.629  0.00  0.00    +0.092 A 
ATOM      7  C   UNL     1       3.398  -4.524   4.659  0.00  0.00    +0.124 A 
ATOM      8  C   UNL     1       2.790  -5.129   3.557  0.00  0.00    +0.046 A 
ATOM      9  C   UNL     1       2.430  -4.365   2.437  0.00  0.00    +0.019 A 
ATOM     10  C   UNL     1       2.683  -2.991   2.398  0.00  0.00    +0.059 A 
ATOM     11  C   UNL     1       2.339  -2.134   1.267  0.00  0.00    +0.138 A 
ENDROOT
BRANCH   7  12
ATOM     12  O   UNL     1       3.790  -5.158   5.804  0.00  0.00    -0.495 OA
ATOM     13  C   UNL     1       3.596  -6.567   5.859  0.00  0.00    +0.277 C 
ENDBRANCH   7  12
BRANCH  11  14
ATOM     14  O   UNL     1       1.756  -2.769   0.190  0.00  0.00    -0.506 OA
ATOM     15  H   UNL     1       2.491  -3.044  -0.388  0.00  0.00    +0.292 HD
ENDBRANCH  11  14
BRANCH   1  16
ATOM     16  C   UNL     1       2.138   0.085   0.105  0.00  0.00    +0.059 C 
BRANCH  16  17
ATOM     17  C   UNL     1       3.235   0.269  -0.943  0.00  0.00    -0.040 A 
ATOM     18  C   UNL     1       4.439   0.924  -0.652  0.00  0.00    +0.004 A 
ATOM     19  C   UNL     1       5.414   1.096  -1.642  0.00  0.00    +0.000 A 
ATOM     20  C   UNL     1       5.194   0.626  -2.934  0.00  0.00    +0.000 A 
ATOM     21  C   UNL     1       4.000  -0.021  -3.242  0.00  0.00    +0.000 A 
ATOM     22  C   UNL     1       3.030  -0.202  -2.253  0.00  0.00    +0.004 A 
ENDBRANCH  16  17
BRANCH  16  23
ATOM     23  C   UNL     1       1.461   1.417   0.512  0.00  0.00    +0.010 C 
ATOM     24  C   UNL     1       0.750   2.115  -0.645  0.00  0.00    +0.005 C 
ENDBRANCH  16  23
ENDBRANCH   1  16
TORSDOF 5
