REMARK  Name = 
REMARK  12 active torsions:
REMARK  status: ('A' for Active; 'I' for Inactive)
REMARK    1  A    between atoms: CA_2  and  CB_3
REMARK    2  A    between atoms: CA_2  and  N_4
REMARK    3  A    between atoms: CA_2  and  C_23
REMARK    4  A    between atoms: C_5  and  C_7
REMARK    5  A    between atoms: C_7  and  C_8
REMARK    6  A    between atoms: C_8  and  C_9
REMARK    7  A    between atoms: C_9  and  P_10
REMARK    8  A    between atoms: P_10  and  O_11
REMARK    9  A    between atoms: P_10  and  O_13
REMARK   10  A    between atoms: O_13  and  C_14
REMARK   11  A    between atoms: C_17  and  N_20
REMARK   12  A    between atoms: C_23  and  O_24
REMARK                            x       y       z     vdW  Elec       q    Type
REMARK                         _______ _______ _______ _____ _____    ______ ____
ROOT
ATOM      1  P   UNK A   0       2.126   7.776   0.818  0.00  0.00    +0.379 P 
ATOM      2  O   UNK A   0       0.951   6.792   0.800  0.00  0.00    -0.244 OA
ENDROOT
BRANCH   1   3
ATOM      3  O   UNK A   0       0.950   9.035   0.661  0.00  0.00    -0.315 OA
ATOM      4  H   UNK A   0       0.093   8.556   0.730  0.00  0.00    +0.221 HD
ENDBRANCH   1   3
BRANCH   1   5
ATOM      5  C   UNK A   0       2.384   8.297   2.609  0.00  0.00    +0.141 C 
BRANCH   5   6
ATOM      6  C   UNK A   0       3.794   8.762   2.939  0.00  0.00    +0.022 C 
BRANCH   6   7
ATOM      7  C   UNK A   0       4.302   9.910   2.066  0.00  0.00    +0.096 C 
BRANCH   7  10
ATOM      8  N   ALA A   1       6.328  11.213   1.680  0.00  0.00    -0.303 N 
ATOM      9  H   ALA A   1       5.842  11.567   0.867  0.00  0.00    +0.149 HD
ATOM     10  C   UNK A   0       5.709  10.293   2.487  0.00  0.00    +0.214 C 
ATOM     11  O   UNK A   0       6.294   9.791   3.442  0.00  0.00    -0.276 OA
BRANCH   8  12
ATOM     12  CA  ALA A   1       7.699  11.684   1.907  0.00  0.00    +0.178 C 
ATOM     13  CB  ALA A   1       7.897  12.379   3.251  0.00  0.00    +0.040 C 
BRANCH  12  14
ATOM     14  C   ALA A   1       8.754  10.587   1.689  0.00  0.00    +0.325 C 
ATOM     15  OXT ALA A   1       9.636  10.666   0.842  0.00  0.00    -0.249 OA
BRANCH  14  16
ATOM     16  O   ALA A   1       8.658   9.525   2.521  0.00  0.00    -0.479 OA
ATOM     17  H   ALA A   1       7.875   9.577   3.124  0.00  0.00    +0.295 HD
ENDBRANCH  14  16
ENDBRANCH  12  14
ENDBRANCH   8  12
ENDBRANCH   7  10
ENDBRANCH   6   7
ENDBRANCH   5   6
ENDBRANCH   1   5
BRANCH   1  18
ATOM     18  O   UNK A   0       3.302   6.517   0.975  0.00  0.00    -0.424 OA
BRANCH  18  19
ATOM     19  C   UNK A   0       3.924   5.877  -0.050  0.00  0.00    +0.130 A 
ATOM     20  C   UNK A   0       3.340   5.621  -1.282  0.00  0.00    +0.053 A 
ATOM     21  C   UNK A   0       4.021   4.815  -2.205  0.00  0.00    +0.088 A 
ATOM     22  C   UNK A   0       5.280   4.281  -1.881  0.00  0.00    +0.273 A 
ATOM     23  C   UNK A   0       5.878   4.570  -0.650  0.00  0.00    +0.088 A 
ATOM     24  C   UNK A   0       5.189   5.367   0.263  0.00  0.00    +0.053 A 
BRANCH  22  25
ATOM     25  N   UNK A   0       5.959   3.376  -2.818  0.00  0.00    +0.080 N 
ATOM     26  O   UNK A   0       5.371   3.094  -3.872  0.00  0.00    +0.041 OA
ATOM     27  O   UNK A   0       7.074   2.943  -2.497  0.00  0.00    -0.576 OA
ENDBRANCH  22  25
ENDBRANCH  18  19
ENDBRANCH   1  18
TORSDOF 11
