REMARK  Name = 
REMARK  9 active torsions:
REMARK  status: ('A' for Active; 'I' for Inactive)
REMARK    1  A    between atoms: C_2  and  N_3
REMARK    2  A    between atoms: C_2  and  B_12
REMARK    3  A    between atoms: C_2  and  C_15
REMARK    4  A    between atoms: C_4  and  C_6
REMARK    5  A    between atoms: C_6  and  C_7
REMARK    6  A    between atoms: B_12  and  O_13
REMARK    7  A    between atoms: B_12  and  O_14
REMARK    8  A    between atoms: C_17  and  C_21
REMARK    9  A    between atoms: C_21  and  O_22
REMARK                            x       y       z     vdW  Elec       q    Type
REMARK                         _______ _______ _______ _____ _____    ______ ____
ROOT
ATOM      1  C   UNL     1       2.034  -0.172   0.026  0.00  0.00    +0.000 C 
ENDROOT
BRANCH   1   2
ATOM      2  C   UNL     1       2.466  -1.219   1.040  0.00  0.00    +0.000 A 
ATOM      3  C   UNL     1       1.480  -1.957   1.715  0.00  0.00    +0.000 A 
ATOM      4  C   UNL     1       1.833  -2.961   2.612  0.00  0.00    +0.000 A 
ATOM      5  C   UNL     1       3.175  -3.254   2.853  0.00  0.00    +0.000 A 
ATOM      6  C   UNL     1       4.193  -2.533   2.198  0.00  0.00    +0.000 A 
ATOM      7  C   UNL     1       3.823  -1.510   1.293  0.00  0.00    +0.000 A 
BRANCH   6   8
ATOM      8  C   UNL     1       5.640  -2.835   2.431  0.00  0.00    +0.000 C 
ATOM      9  O   UNL     1       6.491  -2.174   1.862  0.00  0.00    +0.000 OA
BRANCH   8  10
ATOM     10  O   UNL     1       6.056  -3.831   3.253  0.00  0.00    +0.000 OA
ATOM     11  H   UNL     1       5.472  -4.426   3.739  0.00  0.00    +0.000 HD
ENDBRANCH   8  10
ENDBRANCH   6   8
ENDBRANCH   1   2
BRANCH   1  12
ATOM     12  N   UNL     1       2.559  -0.517  -1.285  0.00  0.00    +0.000 N 
ATOM     13  H   UNL     1       3.581  -0.494  -1.420  0.00  0.00    +0.000 HD
ATOM     14  C   UNL     1       1.765  -0.859  -2.339  0.00  0.00    +0.000 C 
ATOM     15  O   UNL     1       0.550  -0.927  -2.213  0.00  0.00    +0.000 OA
BRANCH  14  16
ATOM     16  C   UNL     1       2.374  -1.157  -3.681  0.00  0.00    +0.000 C 
BRANCH  16  17
ATOM     17  C   UNL     1       2.121  -2.578  -4.072  0.00  0.00    +0.000 A 
ATOM     18  S   UNL     1       1.246  -3.077  -5.418  0.00  0.00    +0.000 S 
ATOM     19  C   UNL     1       1.441  -4.726  -5.145  0.00  0.00    +0.000 A 
ATOM     20  C   UNL     1       2.199  -4.900  -3.994  0.00  0.00    +0.000 A 
ATOM     21  C   UNL     1       2.580  -3.698  -3.390  0.00  0.00    +0.000 A 
ENDBRANCH  16  17
ENDBRANCH  14  16
ENDBRANCH   1  12
BRANCH   1  22
ATOM     22  B   UNL     1       2.469   1.336   0.363  0.00  0.00    +0.000 B 
BRANCH  22  23
ATOM     23  O   UNL     1       2.084   2.414  -0.555  0.00  0.00    +0.000 OA
ATOM     24  H   UNL     1       1.215   2.145  -0.949  0.00  0.00    +0.000 HD
ENDBRANCH  22  23
BRANCH  22  25
ATOM     25  O   UNL     1       3.283   1.653   1.533  0.00  0.00    +0.000 OA
ATOM     26  H   UNL     1       4.177   1.860   1.157  0.00  0.00    +0.000 HD
ENDBRANCH  22  25
ENDBRANCH   1  22
TORSDOF 9
