REMARK  Name = 
REMARK  12 active torsions:
REMARK  status: ('A' for Active; 'I' for Inactive)
REMARK    1  A    between atoms: C_1  and  O_2
REMARK    2  A    between atoms: O_2  and  C_3
REMARK    3  A    between atoms: C_3  and  C_5
REMARK    4  A    between atoms: C_3  and  C_30
REMARK    5  A    between atoms: C_5  and  C_6
REMARK    6  A    between atoms: C_9  and  O_10
REMARK    7  A    between atoms: O_10  and  C_11
REMARK    8  A    between atoms: C_11  and  C_12
REMARK    9  A    between atoms: C_12  and  C_13
REMARK   10  A    between atoms: C_14  and  C_15
REMARK   11  A    between atoms: C_17  and  C_19
REMARK   12  A    between atoms: C_30  and  O_31
REMARK                            x       y       z     vdW  Elec       q    Type
REMARK                         _______ _______ _______ _____ _____    ______ ____
ROOT
ATOM      1  C   UNL     1       0.800  -0.701   2.574  0.00  0.00    -0.030 A 
ATOM      2  C   UNL     1       0.065  -1.913   2.529  0.00  0.00    +0.026 A 
ATOM      3  S   UNL     1       0.696  -3.525   2.486  0.00  0.00    -0.096 S 
ATOM      4  C   UNL     1      -0.849  -4.230   2.438  0.00  0.00    +0.046 A 
ATOM      5  C   UNL     1      -1.841  -3.282   2.447  0.00  0.00    +0.020 A 
ATOM      6  C   UNL     1      -1.343  -1.932   2.512  0.00  0.00    +0.031 A 
ATOM      7  C   UNL     1      -2.054  -0.700   2.543  0.00  0.00    +0.129 A 
ATOM      8  C   UNL     1      -1.330   0.489   2.653  0.00  0.00    +0.046 A 
ATOM      9  C   UNL     1       0.055   0.483   2.681  0.00  0.00    +0.008 A 
ENDROOT
BRANCH   1  10
ATOM     10  C   UNL     1       2.315  -0.614   2.485  0.00  0.00    +0.079 C 
BRANCH  10  11
ATOM     11  C   UNL     1       2.832   0.105   1.225  0.00  0.00    +0.230 C 
BRANCH  11  13
ATOM     12  C   UNL     1       3.078   2.304   2.165  0.00  0.00    +0.195 C 
ATOM     13  O   UNL     1       2.477   1.505   1.150  0.00  0.00    -0.368 OA
ENDBRANCH  11  13
BRANCH  11  14
ATOM     14  C   UNL     1       2.299  -0.579  -0.040  0.00  0.00    +0.334 C 
ATOM     15  O   UNL     1       2.499  -1.745  -0.345  0.00  0.00    -0.248 OA
BRANCH  14  16
ATOM     16  O   UNL     1       1.581   0.275  -0.817  0.00  0.00    -0.479 OA
ATOM     17  H   UNL     1       1.570   1.148  -0.359  0.00  0.00    +0.295 HD
ENDBRANCH  14  16
ENDBRANCH  11  14
ENDBRANCH  10  11
ENDBRANCH   1  10
BRANCH   7  18
ATOM     18  O   UNL     1      -3.429  -0.747   2.465  0.00  0.00    -0.491 OA
BRANCH  18  19
ATOM     19  C   UNL     1      -4.094   0.521   2.427  0.00  0.00    +0.235 C 
BRANCH  19  20
ATOM     20  C   UNL     1      -5.598   0.321   2.275  0.00  0.00    +0.100 C 
BRANCH  20  21
ATOM     21  C   UNL     1      -6.311   1.624   2.310  0.00  0.00    +0.086 A 
ATOM     22  N   UNL     1      -6.666   2.177   3.515  0.00  0.00    -0.214 NA
ATOM     23  C   UNL     1      -7.224   3.331   3.203  0.00  0.00    +0.228 A 
ATOM     24  O   UNL     1      -7.261   3.583   1.854  0.00  0.00    -0.440 OA
ATOM     25  C   UNL     1      -6.668   2.481   1.290  0.00  0.00    +0.126 A 
ATOM     26  C   UNL     1      -6.532   2.466  -0.177  0.00  0.00    +0.088 C 
BRANCH  23  27
ATOM     27  C   UNL     1      -7.762   4.340   4.112  0.00  0.00    +0.037 A 
ATOM     28  C   UNL     1      -7.729   4.082   5.493  0.00  0.00    +0.013 A 
ATOM     29  C   UNL     1      -8.209   5.009   6.415  0.00  0.00    +0.001 A 
ATOM     30  C   UNL     1      -8.732   6.219   5.969  0.00  0.00    +0.000 A 
ATOM     31  C   UNL     1      -8.779   6.494   4.602  0.00  0.00    +0.001 A 
ATOM     32  C   UNL     1      -8.296   5.560   3.676  0.00  0.00    +0.013 A 
ENDBRANCH  23  27
ENDBRANCH  20  21
ENDBRANCH  19  20
ENDBRANCH  18  19
ENDBRANCH   7  18
TORSDOF 10
