REMARK  Name = 
REMARK  5 active torsions:
REMARK  status: ('A' for Active; 'I' for Inactive)
REMARK    1  A    between atoms: C_2  and  C_4
REMARK    2  A    between atoms: C_7  and  C_8
REMARK    3  A    between atoms: C_8  and  N_9
REMARK    4  A    between atoms: N_12  and  S_16
REMARK    5  A    between atoms: S_16  and  C_19
REMARK                            x       y       z     vdW  Elec       q    Type
REMARK                         _______ _______ _______ _____ _____    ______ ____
ROOT
ATOM      1  N   UNL     1       4.841  -5.847   1.209  0.00  0.00    -0.295 N 
ATOM      2  C   UNL     1       4.808  -6.962   2.048  0.00  0.00    +0.232 C 
ATOM      3  O   UNL     1       5.147  -6.913   3.231  0.00  0.00    -0.274 OA
ATOM      4  C   UNL     1       4.496  -8.302   1.389  0.00  0.00    +0.205 C 
ATOM      5  N   UNL     1       3.561  -8.239   0.237  0.00  0.00    -0.166 NA
ATOM      6  C   UNL     1       4.019  -7.201  -0.725  0.00  0.00    +0.129 C 
ATOM      7  C   UNL     1       4.137  -5.829  -0.068  0.00  0.00    +0.125 C 
ENDROOT
BRANCH   5   8
ATOM      8  S   UNL     1       1.930  -8.210   0.714  0.00  0.00    +0.068 S 
ATOM      9  O   UNL     1       1.678  -6.949   1.381  0.00  0.00    -0.152 OA
ATOM     10  O   UNL     1       1.608  -9.470   1.349  0.00  0.00    -0.152 OA
BRANCH   8  11
ATOM     11  C   UNL     1       0.945  -8.130  -0.757  0.00  0.00    +0.144 A 
ATOM     12  S   UNL     1       1.149  -9.396  -1.877  0.00  0.00    -0.068 S 
ATOM     13  C   UNL     1       0.177  -8.606  -3.058  0.00  0.00    +0.023 A 
ATOM     14  C   UNL     1      -0.080  -9.044  -4.370  0.00  0.00    +0.035 A 
ATOM     15  C   UNL     1      -0.885  -8.253  -5.189  0.00  0.00    +0.042 A 
ATOM     16  C   UNL     1      -1.433  -7.065  -4.725  0.00  0.00    +0.020 A 
ATOM     17  C   UNL     1      -1.179  -6.639  -3.418  0.00  0.00    +0.010 A 
ATOM     18 CL   UNL     1      -1.196  -8.756  -6.806  0.00  0.00    -0.084 Cl
ATOM     19  C   UNL     1      -0.357  -7.412  -2.565  0.00  0.00    -0.009 A 
ATOM     20  C   UNL     1       0.073  -7.169  -1.221  0.00  0.00    +0.045 A 
ENDBRANCH   8  11
ENDBRANCH   5   8
BRANCH   1  21
ATOM     21  C   UNL     1       5.278  -4.567   1.747  0.00  0.00    +0.143 C 
BRANCH  21  25
ATOM     22  C   UNL     1       9.412  -3.522   1.044  0.00  0.00    +0.065 A 
ATOM     23  C   UNL     1       9.093  -4.706   1.713  0.00  0.00    +0.016 A 
ATOM     24  C   UNL     1       7.756  -5.065   1.897  0.00  0.00    +0.006 A 
ATOM     25  C   UNL     1       6.720  -4.255   1.405  0.00  0.00    -0.030 A 
ATOM     26  C   UNL     1       7.052  -3.109   0.668  0.00  0.00    +0.006 A 
ATOM     27  C   UNL     1       8.391  -2.741   0.492  0.00  0.00    +0.016 A 
BRANCH  22  31
ATOM     28  N   UNL     1      11.129  -1.742   0.914  0.00  0.00    -0.247 N 
ATOM     29  H   UNL     1      10.431  -1.126   1.319  0.00  0.00    +0.288 HD
ATOM     30  H   UNL     1      12.060  -1.490   1.224  0.00  0.00    +0.288 HD
ATOM     31  C   UNL     1      10.833  -3.075   0.983  0.00  0.00    +0.308 C 
ATOM     32  N   UNL     1      11.784  -3.948   1.039  0.00  0.00    -0.099 NA
ATOM     33  H   UNL     1      12.689  -3.482   0.971  0.00  0.00    +0.363 HD
ENDBRANCH  22  31
ENDBRANCH  21  25
ENDBRANCH   1  21
TORSDOF 5
