REMARK  Name = 
REMARK  10 active torsions:
REMARK  status: ('A' for Active; 'I' for Inactive)
REMARK    1  A    between atoms: C_1  and  C_2
REMARK    2  A    between atoms: C_2  and  O_3
REMARK    3  A    between atoms: O_3  and  C_4
REMARK    4  A    between atoms: C_7  and  C_8
REMARK    5  A    between atoms: C_8  and  C_9
REMARK    6  A    between atoms: C_9  and  N_10
REMARK    7  A    between atoms: N_10  and  C_11
REMARK    8  A    between atoms: C_11  and  N_13
REMARK    9  A    between atoms: N_13  and  C_14
REMARK   10  A    between atoms: C_17  and  C_18
REMARK                            x       y       z     vdW  Elec       q    Type
REMARK                         _______ _______ _______ _____ _____    ______ ____
ROOT
ATOM      1  N   UNL     1       7.269  -3.521  -1.540  0.00  0.00    -0.326 N 
ATOM      2  H   UNL     1       8.246  -3.521  -1.812  0.00  0.00    +0.148 HD
ENDROOT
BRANCH   1   3
ATOM      3  C   UNL     1       6.634  -4.751  -1.711  0.00  0.00    +0.136 C 
ATOM      4  S   UNL     1       5.030  -4.920  -2.179  0.00  0.00    -0.019 S 
BRANCH   3   5
ATOM      5  N   UNL     1       7.479  -5.789  -1.344  0.00  0.00    -0.282 N 
ATOM      6  H   UNL     1       7.917  -5.654  -0.440  0.00  0.00    +0.155 HD
BRANCH   5   7
ATOM      7  C   UNL     1       7.308  -7.155  -1.638  0.00  0.00    +0.124 A 
ATOM      8  N   UNL     1       7.620  -8.015  -0.646  0.00  0.00    -0.240 NA
ATOM      9  C   UNL     1       7.474  -9.337  -0.912  0.00  0.00    +0.116 A 
ATOM     10  C   UNL     1       7.098  -9.854  -2.147  0.00  0.00    -0.032 A 
ATOM     11  C   UNL     1       6.991 -11.328  -2.380  0.00  0.00    +0.045 C 
ATOM     12  C   UNL     1       6.838  -8.941  -3.164  0.00  0.00    +0.008 A 
ATOM     13  C   UNL     1       6.946  -7.577  -2.909  0.00  0.00    +0.044 A 
ENDBRANCH   5   7
ENDBRANCH   3   5
ENDBRANCH   1   3
BRANCH   1  14
ATOM     14  C   UNL     1       6.556  -2.241  -1.580  0.00  0.00    +0.109 C 
BRANCH  14  15
ATOM     15  C   UNL     1       7.427  -0.985  -1.481  0.00  0.00    +0.077 C 
BRANCH  15  20
ATOM     16  C   UNL     1       5.168   1.799  -0.188  0.00  0.00    +0.159 A 
ATOM     17  C   UNL     1       4.682   2.261  -1.410  0.00  0.00    +0.068 A 
ATOM     18  C   UNL     1       5.148   1.680  -2.577  0.00  0.00    +0.115 A 
ATOM     19  N   UNL     1       6.052   0.679  -2.611  0.00  0.00    -0.257 NA
ATOM     20  C   UNL     1       6.522   0.221  -1.422  0.00  0.00    +0.081 A 
ATOM     21  C   UNL     1       6.103   0.757  -0.201  0.00  0.00    +0.186 A 
ATOM     22  F   UNL     1       6.576   0.252   0.949  0.00  0.00    -0.200 F 
BRANCH  16  23
ATOM     23  O   UNL     1       4.784   2.288   1.038  0.00  0.00    -0.489 OA
BRANCH  23  25
ATOM     24  C   UNL     1       3.471   3.783   2.422  0.00  0.00    +0.048 C 
ATOM     25  C   UNL     1       3.818   3.341   1.015  0.00  0.00    +0.226 C 
ENDBRANCH  23  25
ENDBRANCH  16  23
ENDBRANCH  15  20
ENDBRANCH  14  15
ENDBRANCH   1  14
TORSDOF 8
