REMARK  Name = 
REMARK  4 active torsions:
REMARK  status: ('A' for Active; 'I' for Inactive)
REMARK    1  A    between atoms: C_5  and  C_8
REMARK    2  A    between atoms: N_14  and  C_15
REMARK    3  A    between atoms: C_15  and  C_16
REMARK    4  A    between atoms: C_16  and  C_17
REMARK                            x       y       z     vdW  Elec       q    Type
REMARK                         _______ _______ _______ _____ _____    ______ ____
ROOT
ATOM      1  C   UNL     1       6.899   0.059  -0.610  0.00  0.00    +0.077 C 
ATOM      2  C   UNL     1       7.443  -1.334  -0.764  0.00  0.00    +0.134 C 
ATOM      3  S   UNL     1       9.192  -1.551  -0.775  0.00  0.00    -0.083 S 
ATOM      4  C   UNL     1       9.772   0.031  -1.229  0.00  0.00    +0.169 C 
ATOM      5  N   UNL     1      10.981   0.229  -1.654  0.00  0.00    -0.262 NA
ATOM      6  N   UNL     1       8.902   1.081  -1.088  0.00  0.00    -0.216 N 
ATOM      7  H   UNL     1       9.359   1.973  -1.281  0.00  0.00    +0.176 HD
ATOM      8  N   UNL     1       7.582   1.156  -0.759  0.00  0.00    -0.184 NA
ENDROOT
BRANCH   1  13
ATOM      9 CL   UNL     1       0.922   0.368   0.240  0.00  0.00    -0.084 Cl
ATOM     10  C   UNL     1       2.628   0.288   0.044  0.00  0.00    +0.041 A 
ATOM     11  C   UNL     1       3.245  -0.951  -0.063  0.00  0.00    +0.020 A 
ATOM     12  C   UNL     1       4.626  -1.021  -0.253  0.00  0.00    +0.011 A 
ATOM     13  C   UNL     1       5.411   0.144  -0.337  0.00  0.00    -0.001 A 
ATOM     14  C   UNL     1       4.775   1.387  -0.210  0.00  0.00    +0.011 A 
ATOM     15  C   UNL     1       3.387   1.456  -0.023  0.00  0.00    +0.020 A 
ENDBRANCH   1  13
BRANCH   5  16
ATOM     16  C   UNL     1      11.840  -0.960  -1.807  0.00  0.00    +0.148 C 
BRANCH  16  17
ATOM     17  C   UNL     1      13.267  -0.590  -2.216  0.00  0.00    +0.050 C 
BRANCH  17  18
ATOM     18  C   UNL     1      14.072  -1.858  -2.376  0.00  0.00    -0.033 C 
ATOM     19  C   UNL     1      14.620  -2.274  -3.524  0.00  0.00    +0.004 C 
ENDBRANCH  17  18
ENDBRANCH  16  17
ENDBRANCH   5  16
TORSDOF 4
