REMARK  Name = 
REMARK  9 active torsions:
REMARK  status: ('A' for Active; 'I' for Inactive)
REMARK    1  A    between atoms: C_1  and  N_2
REMARK    2  A    between atoms: N_2  and  C_3
REMARK    3  A    between atoms: C_3  and  N_5
REMARK    4  A    between atoms: N_5  and  C_6
REMARK    5  A    between atoms: C_6  and  C_7
REMARK    6  A    between atoms: C_7  and  S_8
REMARK    7  A    between atoms: S_8  and  C_9
REMARK    8  A    between atoms: C_9  and  C_10
REMARK    9  A    between atoms: C_11  and  C_12
REMARK                            x       y       z     vdW  Elec       q    Type
REMARK                         _______ _______ _______ _____ _____    ______ ____
ROOT
ATOM      1  C   UNL     1       6.909   1.754  -1.333  0.00  0.00    +0.088 C 
ENDROOT
BRANCH   1   2
ATOM      2  C   UNL     1       5.403   2.008  -1.418  0.00  0.00    +0.114 C 
BRANCH   2   3
ATOM      3  N   UNL     1       4.618   1.215  -0.478  0.00  0.00    -0.326 N 
ATOM      4  H   UNL     1       5.050   0.374  -0.124  0.00  0.00    +0.148 HD
BRANCH   3   5
ATOM      5  C   UNL     1       3.255   1.274  -0.384  0.00  0.00    +0.130 C 
ATOM      6  S   UNL     1       2.248   2.327  -1.201  0.00  0.00    -0.019 S 
BRANCH   5   8
ATOM      7  C   UNL     1       3.324  -0.523   1.386  0.00  0.00    +0.127 C 
ATOM      8  N   UNL     1       2.678   0.398   0.481  0.00  0.00    -0.330 N 
ATOM      9  H   UNL     1       1.671   0.491   0.545  0.00  0.00    +0.147 HD
ENDBRANCH   5   8
ENDBRANCH   3   5
ENDBRANCH   2   3
ENDBRANCH   1   2
BRANCH   1  10
ATOM     10  S   UNL     1       7.695   2.805  -2.589  0.00  0.00    -0.153 S 
BRANCH  10  11
ATOM     11  C   UNL     1       9.453   2.424  -2.285  0.00  0.00    +0.126 C 
BRANCH  11  12
ATOM     12  C   UNL     1      10.299   3.250  -3.198  0.00  0.00    +0.072 A 
ATOM     13  N   UNL     1      11.069   2.654  -4.175  0.00  0.00    -0.240 NA
ATOM     14  C   UNL     1      11.607   3.638  -4.856  0.00  0.00    +0.197 A 
ATOM     15  N   UNL     1      11.249   4.852  -4.345  0.00  0.00    -0.348 N 
ATOM     16  H   UNL     1      11.517   5.752  -4.719  0.00  0.00    +0.166 HD
ATOM     17  C   UNL     1      10.433   4.630  -3.264  0.00  0.00    +0.036 A 
ATOM     18  C   UNL     1       9.826   5.731  -2.485  0.00  0.00    +0.065 C 
ENDBRANCH  11  12
ENDBRANCH  10  11
ENDBRANCH   1  10
TORSDOF 7
