REMARK  Name = 
REMARK  4 active torsions:
REMARK  status: ('A' for Active; 'I' for Inactive)
REMARK    1  A    between atoms: C_1  and  C_2
REMARK    2  A    between atoms: C_4  and  C_10
REMARK    3  A    between atoms: C_6  and  C_7
REMARK    4  A    between atoms: C_8  and  O_9
REMARK                            x       y       z     vdW  Elec       q    Type
REMARK                         _______ _______ _______ _____ _____    ______ ____
ROOT
ATOM      1  C   UNL     1       0.909  -0.111   0.038  0.00  0.00    +0.047 C 
ATOM      2  C   UNL     1       2.410  -0.080   0.040  0.00  0.00    -0.008 A 
ATOM      3  C   UNL     1       3.163  -1.260   0.042  0.00  0.00    +0.123 A 
ATOM      4  C   UNL     1       4.566  -1.228   0.044  0.00  0.00    -0.008 A 
ATOM      5  C   UNL     1       5.391  -2.484   0.046  0.00  0.00    +0.047 C 
ATOM      6  C   UNL     1       5.213   0.024   0.043  0.00  0.00    +0.020 A 
ATOM      7  C   UNL     1       4.482   1.220   0.040  0.00  0.00    +0.038 A 
ATOM      8  C   UNL     1       3.081   1.149   0.039  0.00  0.00    +0.020 A 
ENDROOT
BRANCH   7   9
ATOM      9  C   UNL     1       5.109   2.540   0.036  0.00  0.00    +0.228 A 
ATOM     10  O   UNL     1       6.483   2.597   0.033  0.00  0.00    -0.435 OA
ATOM     11  C   UNL     1       6.755   3.937   0.027  0.00  0.00    +0.156 A 
ATOM     12  C   UNL     1       5.547   4.614   0.027  0.00  0.00    +0.110 A 
ATOM     13  C   UNL     1       5.547   6.014   0.020  0.00  0.00    +0.031 A 
ATOM     14  C   UNL     1       6.783   6.674   0.013  0.00  0.00    +0.002 A 
ATOM     15  C   UNL     1       7.986   5.955   0.014  0.00  0.00    +0.004 A 
ATOM     16  C   UNL     1       8.001   4.553   0.022  0.00  0.00    +0.048 A 
ATOM     17  N   UNL     1       4.513   3.720   0.033  0.00  0.00    -0.209 NA
ENDBRANCH   7   9
BRANCH   3  18
ATOM     18  O   UNL     1       2.464  -2.437   0.041  0.00  0.00    -0.506 OA
ATOM     19  H   UNL     1       3.080  -3.184   0.034  0.00  0.00    +0.292 HD
ENDBRANCH   3  18
TORSDOF 2
