REMARK  Name = 
REMARK  8 active torsions:
REMARK  status: ('A' for Active; 'I' for Inactive)
REMARK    1  A    between atoms: C_1  and  O_2
REMARK    2  A    between atoms: O_2  and  C_3
REMARK    3  A    between atoms: N_5  and  C_6
REMARK    4  A    between atoms: N_5  and  C_7
REMARK    5  A    between atoms: C_8  and  N_9
REMARK    6  A    between atoms: C_11  and  C_15
REMARK    7  A    between atoms: N_17  and  C_18
REMARK    8  A    between atoms: C_18  and  C_19
REMARK                            x       y       z     vdW  Elec       q    Type
REMARK                         _______ _______ _______ _____ _____    ______ ____
ROOT
ATOM      1  C   UNL     1       5.217  -1.990   1.375  0.00  0.00    +0.118 A 
ATOM      2  C   UNL     1       5.526  -3.294   1.004  0.00  0.00    +0.144 A 
ATOM      3  N   UNL     1       5.270  -3.766  -0.289  0.00  0.00    -0.342 N 
ATOM      4  H   UNL     1       4.330  -3.566  -0.602  0.00  0.00    +0.144 HD
ATOM      5  H   UNL     1       5.510  -4.752  -0.321  0.00  0.00    +0.144 HD
ATOM      6  N   UNL     1       6.136  -4.159   1.827  0.00  0.00    -0.209 NA
ATOM      7  C   UNL     1       6.465  -3.695   3.048  0.00  0.00    +0.184 A 
ATOM      8  N   UNL     1       6.249  -2.435   3.487  0.00  0.00    -0.209 NA
ATOM      9  C   UNL     1       5.624  -1.603   2.648  0.00  0.00    +0.144 A 
ENDROOT
BRANCH   7  10
ATOM     10  C   UNL     1       7.024  -4.638   4.037  0.00  0.00    +0.139 A 
ATOM     11  C   UNL     1       7.825  -4.288   5.171  0.00  0.00    +0.050 A 
ATOM     12  C   UNL     1       8.438  -3.133   5.687  0.00  0.00    +0.015 A 
ATOM     13  C   UNL     1       9.090  -3.241   6.915  0.00  0.00    +0.020 A 
ATOM     14  C   UNL     1       9.083  -4.462   7.576  0.00  0.00    +0.113 A 
ATOM     15  N   UNL     1       8.542  -5.608   7.106  0.00  0.00    -0.236 NA
ATOM     16  C   UNL     1       7.956  -5.458   5.901  0.00  0.00    +0.159 A 
ATOM     17  N   UNL     1       7.400  -6.438   5.128  0.00  0.00    -0.241 N 
ATOM     18  N   UNL     1       6.775  -5.969   4.019  0.00  0.00    -0.165 NA
BRANCH  17  19
ATOM     19  C   UNL     1       7.391  -7.859   5.439  0.00  0.00    +0.183 C 
BRANCH  19  20
ATOM     20  C   UNL     1       8.598  -8.599   4.913  0.00  0.00    +0.009 A 
ATOM     21  C   UNL     1       8.951  -8.575   3.554  0.00  0.00    +0.008 A 
ATOM     22  C   UNL     1       9.972  -9.400   3.069  0.00  0.00    +0.000 A 
ATOM     23  C   UNL     1      10.647 -10.264   3.929  0.00  0.00    +0.003 A 
ATOM     24  C   UNL     1      10.332 -10.271   5.285  0.00  0.00    +0.039 A 
ATOM     25  C   UNL     1       9.324  -9.437   5.765  0.00  0.00    +0.128 A 
ATOM     26  F   UNL     1       9.032  -9.478   7.073  0.00  0.00    -0.205 F 
ENDBRANCH  19  20
ENDBRANCH  17  19
ENDBRANCH   7  10
BRANCH   1  28
ATOM     27  C   UNL     1       5.076  -0.269  -0.372  0.00  0.00    +0.407 C 
ATOM     28  N   UNL     1       4.467  -1.121   0.536  0.00  0.00    -0.234 N 
ATOM     29  C   UNL     1       3.029  -1.086   0.735  0.00  0.00    +0.142 C 
ATOM     30  O   UNL     1       4.457   0.529  -1.069  0.00  0.00    -0.226 OA
BRANCH  27  32
ATOM     31  C   UNL     1       7.078   0.460  -1.341  0.00  0.00    +0.282 C 
ATOM     32  O   UNL     1       6.432  -0.407  -0.412  0.00  0.00    -0.453 OA
ENDBRANCH  27  32
ENDBRANCH   1  28
BRANCH   9  33
ATOM     33  N   UNL     1       5.461  -0.294   3.111  0.00  0.00    -0.342 N 
ATOM     34  H   UNL     1       5.753  -0.252   4.082  0.00  0.00    +0.144 HD
ATOM     35  H   UNL     1       4.528   0.066   2.956  0.00  0.00    +0.144 HD
ENDBRANCH   9  33
TORSDOF 6
