REMARK  Name = 
REMARK  17 active torsions:
REMARK  status: ('A' for Active; 'I' for Inactive)
REMARK    1  A    between atoms: C_2  and  C_3
REMARK    2  A    between atoms: C_2  and  N_4
REMARK    3  A    between atoms: C_2  and  C_20
REMARK    4  A    between atoms: C_5  and  C_7
REMARK    5  A    between atoms: C_7  and  O_9
REMARK    6  A    between atoms: C_7  and  C_10
REMARK    7  A    between atoms: C_10  and  N_12
REMARK    8  A    between atoms: C_10  and  C_13
REMARK    9  A    between atoms: C_16  and  C_17
REMARK   10  A    between atoms: N_22  and  C_23
REMARK   11  A    between atoms: C_23  and  C_25
REMARK   12  A    between atoms: C_23  and  C_29
REMARK   13  A    between atoms: C_25  and  C_26
REMARK   14  A    between atoms: C_26  and  C_27
REMARK   15  A    between atoms: C_26  and  C_28
REMARK   16  A    between atoms: C_29  and  O_31
REMARK   17  A    between atoms: O_31  and  C_32
REMARK                            x       y       z     vdW  Elec       q    Type
REMARK                         _______ _______ _______ _____ _____    ______ ____
ROOT
ATOM      1  N   UNL     1       5.350  -0.009   5.679  0.00  0.00    -0.302 N 
ATOM      2  H   UNL     1       5.339   0.779   5.031  0.00  0.00    +0.150 HD
ATOM      3  C   UNL     1       4.108  -0.507   6.018  0.00  0.00    +0.244 C 
ATOM      4  O   UNL     1       3.927  -1.251   6.977  0.00  0.00    -0.273 OA
ENDROOT
BRANCH   1   5
ATOM      5  C   UNL     1       6.556  -0.260   6.461  0.00  0.00    +0.156 C 
ATOM      6  C   UNL     1       7.786  -0.220   5.560  0.00  0.00    +0.038 C 
BRANCH   5   7
ATOM      7  C   UNL     1       6.674   0.811   7.561  0.00  0.00    +0.234 C 
ATOM      8  N   UNL     1       5.997   0.511   8.720  0.00  0.00    -0.301 N 
ATOM      9  H   UNL     1       5.287  -0.221   8.663  0.00  0.00    +0.150 HD
ATOM     10  O   UNL     1       7.260   1.877   7.384  0.00  0.00    -0.274 OA
BRANCH   8  11
ATOM     11  C   UNL     1       5.869   1.464   9.833  0.00  0.00    +0.182 C 
BRANCH  11  12
ATOM     12  C   UNL     1       4.450   1.396  10.443  0.00  0.00    +0.327 C 
ATOM     13  O   UNL     1       4.065   2.080  11.383  0.00  0.00    -0.249 OA
BRANCH  12  14
ATOM     14  O   UNL     1       3.686   0.467   9.797  0.00  0.00    -0.467 OA
ATOM     15  C   UNL     1       2.355   0.335  10.294  0.00  0.00    +0.280 C 
ENDBRANCH  12  14
ENDBRANCH  11  12
BRANCH  11  16
ATOM     16  C   UNL     1       6.906   1.208  10.946  0.00  0.00    +0.036 C 
BRANCH  16  17
ATOM     17  C   UNL     1       8.387   1.313  10.520  0.00  0.00    -0.015 C 
ATOM     18  C   UNL     1       9.312   0.886  11.666  0.00  0.00    +0.007 C 
ATOM     19  C   UNL     1       8.778   2.724  10.077  0.00  0.00    +0.007 C 
ENDBRANCH  16  17
ENDBRANCH  11  16
ENDBRANCH   8  11
ENDBRANCH   5   7
ENDBRANCH   1   5
BRANCH   3  20
ATOM     20  C   UNL     1       2.990  -0.089   5.038  0.00  0.00    +0.221 C 
BRANCH  20  21
ATOM     21  O   UNL     1       3.277   1.232   4.549  0.00  0.00    -0.381 OA
ATOM     22  H   UNL     1       2.910   1.856   5.199  0.00  0.00    +0.211 HD
ENDBRANCH  20  21
BRANCH  20  23
ATOM     23  C   UNL     1       2.863  -1.143   3.892  0.00  0.00    +0.119 C 
BRANCH  23  24
ATOM     24  C   UNL     1       1.642  -0.910   3.001  0.00  0.00    -0.028 A 
ATOM     25  C   UNL     1       1.584   0.194   2.134  0.00  0.00    +0.005 A 
ATOM     26  C   UNL     1       0.502   0.376   1.267  0.00  0.00    +0.003 A 
ATOM     27  C   UNL     1      -0.548  -0.546   1.236  0.00  0.00    -0.050 A 
ATOM     28  C   UNL     1      -1.678  -0.358   0.266  0.00  0.00    +0.044 C 
ATOM     29  C   UNL     1      -0.508  -1.639   2.108  0.00  0.00    +0.003 A 
ATOM     30  C   UNL     1       0.574  -1.819   2.981  0.00  0.00    +0.005 A 
ENDBRANCH  23  24
BRANCH  23  31
ATOM     31  N   UNL     1       4.061  -1.256   3.038  0.00  0.00    -0.321 NA
ATOM     32  H   UNL     1       4.889  -1.370   3.618  0.00  0.00    +0.119 HD
ATOM     33  H   UNL     1       3.976  -2.097   2.469  0.00  0.00    +0.119 HD
ENDBRANCH  23  31
ENDBRANCH  20  23
ENDBRANCH   3  20
TORSDOF 12
