REMARK  Name = 
REMARK  22 active torsions:
REMARK  status: ('A' for Active; 'I' for Inactive)
REMARK    1  A    between atoms: C_2  and  O_3
REMARK    2  A    between atoms: C_2  and  C_4
REMARK    3  A    between atoms: C_2  and  C_22
REMARK    4  A    between atoms: N_6  and  C_7
REMARK    5  A    between atoms: C_7  and  C_8
REMARK    6  A    between atoms: C_8  and  C_9
REMARK    7  A    between atoms: N_11  and  C_12
REMARK    8  A    between atoms: C_12  and  C_13
REMARK    9  A    between atoms: C_13  and  S_14
REMARK   10  A    between atoms: S_14  and  C_15
REMARK   11  A    between atoms: C_15  and  C_17
REMARK   12  A    between atoms: C_17  and  C_18
REMARK   13  A    between atoms: C_18  and  C_19
REMARK   14  A    between atoms: C_19  and  C_20
REMARK   15  A    between atoms: C_20  and  C_21
REMARK   16  A    between atoms: C_22  and  C_23
REMARK   17  A    between atoms: C_22  and  C_24
REMARK   18  A    between atoms: C_22  and  C_25
REMARK   19  A    between atoms: C_25  and  O_26
REMARK   20  A    between atoms: O_26  and  P_27
REMARK   21  A    between atoms: P_27  and  O_28
REMARK   22  A    between atoms: P_27  and  O_29
REMARK                            x       y       z     vdW  Elec       q    Type
REMARK                         _______ _______ _______ _____ _____    ______ ____
ROOT
ATOM      1  C   UNL     1       2.672   2.545  -0.973  0.00  0.00    +0.242 C 
ATOM      2  N   UNL     1       2.226   2.705   0.323  0.00  0.00    -0.313 N 
ATOM      3  H   UNL     1       1.756   1.912   0.750  0.00  0.00    +0.149 HD
ATOM      4  O   UNL     1       3.410   3.343  -1.543  0.00  0.00    -0.273 OA
ENDROOT
BRANCH   2   5
ATOM      5  C   UNL     1       2.707   3.780   1.174  0.00  0.00    +0.113 C 
BRANCH   5   6
ATOM      6  C   UNL     1       2.248   5.162   0.712  0.00  0.00    +0.114 C 
BRANCH   6   7
ATOM      7  C   UNL     1       2.776   6.249   1.618  0.00  0.00    +0.215 C 
ATOM      8  N   UNL     1       2.399   7.515   1.219  0.00  0.00    -0.314 N 
ATOM      9  H   UNL     1       1.985   7.632   0.301  0.00  0.00    +0.149 HD
ATOM     10  O   UNL     1       3.457   6.034   2.615  0.00  0.00    -0.276 OA
BRANCH   8  11
ATOM     11  C   UNL     1       2.840   8.709   1.926  0.00  0.00    +0.115 C 
BRANCH  11  12
ATOM     12  C   UNL     1       4.187   9.248   1.432  0.00  0.00    +0.096 C 
BRANCH  12  13
ATOM     13  S   UNL     1       4.062   9.817  -0.298  0.00  0.00    -0.087 S 
BRANCH  13  14
ATOM     14  C   UNL     1       5.705  10.422  -0.520  0.00  0.00    +0.189 C 
ATOM     15  O   UNL     1       6.505  10.480   0.405  0.00  0.00    -0.285 OA
BRANCH  14  16
ATOM     16  C   UNL     1       5.991  10.911  -1.929  0.00  0.00    +0.086 C 
BRANCH  16  17
ATOM     17  C   UNL     1       7.459  10.763  -2.331  0.00  0.00    +0.008 C 
BRANCH  17  18
ATOM     18  C   UNL     1       7.906   9.300  -2.384  0.00  0.00    +0.000 C 
BRANCH  18  19
ATOM     19  C   UNL     1       9.362   9.176  -2.832  0.00  0.00    -0.003 C 
ATOM     20  C   UNL     1       9.815   7.724  -2.842  0.00  0.00    +0.004 C 
ENDBRANCH  18  19
ENDBRANCH  17  18
ENDBRANCH  16  17
ENDBRANCH  14  16
ENDBRANCH  13  14
ENDBRANCH  12  13
ENDBRANCH  11  12
ENDBRANCH   8  11
ENDBRANCH   6   7
ENDBRANCH   5   6
ENDBRANCH   2   5
BRANCH   1  21
ATOM     21  C   UNL     1       2.144   1.269  -1.672  0.00  0.00    +0.208 C 
BRANCH  21  22
ATOM     22  C   UNL     1       0.813   1.453  -2.464  0.00  0.00    +0.024 C 
ATOM     23  C   UNL     1       0.926   2.630  -3.453  0.00  0.00    +0.016 C 
ATOM     24  C   UNL     1      -0.378   1.724  -1.525  0.00  0.00    +0.016 C 
BRANCH  22  25
ATOM     25  C   UNL     1       0.556   0.139  -3.256  0.00  0.00    +0.181 C 
BRANCH  25  26
ATOM     26  O   UNL     1      -0.619   0.197  -4.067  0.00  0.00    -0.286 OA
BRANCH  26  27
ATOM     27  P   UNL     1      -0.879  -1.247  -4.984  0.00  0.00    +0.472 P 
ATOM     28  O   UNL     1      -1.112  -2.539  -5.805  0.00  0.00    -0.228 OA
BRANCH  27  29
ATOM     29  O   UNL     1      -1.767  -1.776  -3.715  0.00  0.00    -0.303 OA
ATOM     30  H   UNL     1      -1.526  -2.703  -3.529  0.00  0.00    +0.222 HD
ENDBRANCH  27  29
BRANCH  27  31
ATOM     31  O   UNL     1      -2.092  -0.404  -5.680  0.00  0.00    -0.303 OA
ATOM     32  H   UNL     1      -2.667  -0.095  -4.957  0.00  0.00    +0.222 HD
ENDBRANCH  27  31
ENDBRANCH  26  27
ENDBRANCH  25  26
ENDBRANCH  22  25
ENDBRANCH  21  22
BRANCH  21  33
ATOM     33  O   UNL     1       2.002   0.210  -0.714  0.00  0.00    -0.382 OA
ATOM     34  H   UNL     1       2.894   0.042  -0.355  0.00  0.00    +0.210 HD
ENDBRANCH  21  33
ENDBRANCH   1  21
TORSDOF 19
