REMARK  Name = 
REMARK  9 active torsions:
REMARK  status: ('A' for Active; 'I' for Inactive)
REMARK    1  A    between atoms: C_2  and  C_3
REMARK    2  A    between atoms: C_2  and  C_7
REMARK    3  A    between atoms: C_2  and  C_11
REMARK    4  A    between atoms: C_3  and  C_4
REMARK    5  A    between atoms: C_4  and  C_5
REMARK    6  A    between atoms: C_4  and  C_6
REMARK    7  A    between atoms: C_7  and  C_8
REMARK    8  A    between atoms: C_8  and  O_9
REMARK    9  A    between atoms: N_13  and  C_14
REMARK                            x       y       z     vdW  Elec       q    Type
REMARK                         _______ _______ _______ _____ _____    ______ ____
ROOT
ATOM      1  C   UNL     1       4.560   1.157  -5.151  0.00  0.00    +0.163 C 
ATOM      2  C   UNL     1       4.888   1.203  -6.934  0.00  0.00    +0.234 C 
ATOM      3  O   UNL     1       4.108   0.574  -7.671  0.00  0.00    -0.274 OA
ATOM      4  N   UNL     1       5.976   1.860  -7.649  0.00  0.00    -0.314 N 
ATOM      5  H   UNL     1       6.285   1.057  -8.182  0.00  0.00    +0.149 HD
ATOM      6  C   UNL     1       5.971   2.879  -8.924  0.00  0.00    +0.104 C 
ATOM      7  C   UNL     1       7.116   2.854 -10.139  0.00  0.00    +0.019 C 
ATOM      8  C   UNL     1       8.587   3.418 -10.119  0.00  0.00    +0.002 C 
ATOM      9  C   UNL     1       9.523   2.596  -9.243  0.00  0.00    +0.002 C 
ATOM     10  C   UNL     1       9.283   3.099  -7.848  0.00  0.00    +0.022 C 
ATOM     11  C   UNL     1       8.960   2.024  -6.879  0.00  0.00    +0.122 C 
ATOM     12  N   UNL     1       8.312   2.520  -5.677  0.00  0.00    -0.346 N 
ATOM     13  C   UNL     1       7.595   3.696  -5.401  0.00  0.00    +0.049 A 
ATOM     14  C   UNL     1       7.404   4.941  -6.041  0.00  0.00    +0.026 A 
ATOM     15  C   UNL     1       6.586   5.903  -5.432  0.00  0.00    +0.002 A 
ATOM     16  C   UNL     1       6.019   5.678  -4.188  0.00  0.00    +0.001 A 
ATOM     17  C   UNL     1       6.123   4.418  -3.607  0.00  0.00    +0.010 A 
ATOM     18  C   UNL     1       6.858   3.407  -4.262  0.00  0.00    +0.003 A 
ATOM     19  C   UNL     1       6.804   2.001  -4.269  0.00  0.00    -0.020 A 
ATOM     20  C   UNL     1       8.001   1.554  -4.749  0.00  0.00    +0.090 A 
ATOM     21  C   UNL     1       5.655   1.138  -4.039  0.00  0.00    +0.069 C 
ENDROOT
BRANCH   1  23
ATOM     22  C   UNL     1       3.580  -1.002  -3.710  0.00  0.00    +0.217 C 
ATOM     23  N   UNL     1       3.379   0.231  -4.401  0.00  0.00    -0.303 N 
ATOM     24  H   UNL     1       2.603   0.796  -4.091  0.00  0.00    +0.149 HD
ATOM     25  O   UNL     1       4.497  -1.745  -4.073  0.00  0.00    -0.275 OA
BRANCH  22  26
ATOM     26  C   UNL     1       2.824  -1.358  -2.266  0.00  0.00    +0.086 C 
BRANCH  26  27
ATOM     27  C   UNL     1       1.334  -0.972  -2.033  0.00  0.00    +0.133 C 
BRANCH  27  28
ATOM     28  C   UNL     1       0.114  -1.931  -2.187  0.00  0.00    +0.305 C 
ATOM     29  O   UNL     1      -0.959  -1.654  -1.662  0.00  0.00    -0.251 OA
BRANCH  28  30
ATOM     30  O   UNL     1       0.272  -3.012  -2.951  0.00  0.00    -0.481 OA
ATOM     31  H   UNL     1       1.149  -3.166  -3.338  0.00  0.00    +0.295 HD
ENDBRANCH  28  30
ENDBRANCH  27  28
ENDBRANCH  26  27
BRANCH  26  32
ATOM     32  C   UNL     1       3.078  -2.748  -1.504  0.00  0.00    +0.016 C 
BRANCH  32  33
ATOM     33  C   UNL     1       4.460  -3.444  -1.431  0.00  0.00    -0.016 C 
ATOM     34  C   UNL     1       4.357  -4.826  -0.732  0.00  0.00    +0.007 C 
ATOM     35  C   UNL     1       5.507  -2.630  -0.677  0.00  0.00    +0.007 C 
ENDBRANCH  32  33
ENDBRANCH  26  32
ENDBRANCH  22  26
ENDBRANCH   1  23
TORSDOF 7
