REMARK  Name = 
REMARK  8 active torsions:
REMARK  status: ('A' for Active; 'I' for Inactive)
REMARK    1  A    between atoms: C_2  and  O_3
REMARK    2  A    between atoms: C_2  and  C_4
REMARK    3  A    between atoms: C_2  and  N_9
REMARK    4  A    between atoms: C_4  and  C_5
REMARK    5  A    between atoms: C_5  and  C_6
REMARK    6  A    between atoms: C_6  and  O_7
REMARK    7  A    between atoms: N_9  and  C_10
REMARK    8  A    between atoms: C_13  and  N_16
REMARK                            x       y       z     vdW  Elec       q    Type
REMARK                         _______ _______ _______ _____ _____    ______ ____
ROOT
ATOM      1  C   UNL     1       4.069  -1.472  -0.788  0.00  0.00    +0.029 A 
ATOM      2  C   UNL     1       4.628  -2.750  -0.825  0.00  0.00    +0.025 A 
ATOM      3  C   UNL     1       5.981  -2.955  -1.137  0.00  0.00    +0.026 A 
ATOM      4  C   UNL     1       6.845  -1.886  -1.398  0.00  0.00    +0.044 A 
ATOM      5  C   UNL     1       6.305  -0.601  -1.239  0.00  0.00    +0.026 A 
ATOM      6  C   UNL     1       4.946  -0.399  -0.934  0.00  0.00    +0.025 A 
ENDROOT
BRANCH   4   7
ATOM      7  N   UNL     1       8.168  -2.093  -1.908  0.00  0.00    -0.210 N 
ATOM      8  C   UNL     1       8.739  -3.325  -2.154  0.00  0.00    +0.227 C 
ATOM      9  O   UNL     1       8.354  -4.444  -1.844  0.00  0.00    -0.275 OA
ATOM     10  C   UNL     1      10.045  -3.130  -2.867  0.00  0.00    +0.106 C 
ATOM     11  C   UNL     1      10.068  -1.661  -3.189  0.00  0.00    +0.106 C 
ATOM     12  C   UNL     1       9.036  -1.085  -2.271  0.00  0.00    +0.227 C 
ATOM     13  O   UNL     1       9.032   0.101  -1.972  0.00  0.00    -0.275 OA
ENDBRANCH   4   7
BRANCH   1  14
ATOM     14  N   UNL     1       2.709  -1.346  -0.514  0.00  0.00    -0.319 N 
ATOM     15  H   UNL     1       2.202  -2.205  -0.705  0.00  0.00    +0.148 HD
BRANCH  14  16
ATOM     16  C   UNL     1       1.969  -0.158  -0.881  0.00  0.00    +0.200 C 
BRANCH  16  17
ATOM     17  O   UNL     1       1.972  -0.038  -2.290  0.00  0.00    -0.374 OA
ATOM     18  H   UNL     1       1.943  -0.948  -2.623  0.00  0.00    +0.212 HD
ENDBRANCH  16  17
BRANCH  16  19
ATOM     19  C   UNL     1       0.518  -0.289  -0.425  0.00  0.00    +0.062 C 
BRANCH  19  20
ATOM     20  C   UNL     1       0.382  -0.404   1.090  0.00  0.00    +0.124 C 
BRANCH  20  21
ATOM     21  C   UNL     1      -1.063  -0.573   1.493  0.00  0.00    +0.305 C 
ATOM     22  O   UNL     1      -2.008  -0.612   0.723  0.00  0.00    -0.251 OA
BRANCH  21  23
ATOM     23  O   UNL     1      -1.213  -0.691   2.830  0.00  0.00    -0.481 OA
ATOM     24  H   UNL     1      -0.374  -0.653   3.327  0.00  0.00    +0.295 HD
ENDBRANCH  21  23
ENDBRANCH  20  21
ENDBRANCH  19  20
ENDBRANCH  16  19
ENDBRANCH  14  16
ENDBRANCH   1  14
TORSDOF 8
