REMARK  Name = 
REMARK  8 active torsions:
REMARK  status: ('A' for Active; 'I' for Inactive)
REMARK    1  A    between atoms: C_2  and  C_3
REMARK    2  A    between atoms: C_2  and  C_5
REMARK    3  A    between atoms: C_2  and  C_12
REMARK    4  A    between atoms: C_3  and  S_4
REMARK    5  A    between atoms: C_5  and  C_6
REMARK    6  A    between atoms: N_14  and  C_15
REMARK    7  A    between atoms: C_15  and  C_16
REMARK    8  A    between atoms: C_16  and  O_17
REMARK                            x       y       z     vdW  Elec       q    Type
REMARK                         _______ _______ _______ _____ _____    ______ ____
ROOT
ATOM      1  C   UNL     1       2.092  -0.002   0.165  0.00  0.00    +0.089 C 
ENDROOT
BRANCH   1   2
ATOM      2  C   UNL     1       2.614  -1.436   0.101  0.00  0.00    +0.218 C 
ATOM      3  N   UNL     1       2.172  -2.296   1.088  0.00  0.00    -0.305 N 
ATOM      4  H   UNL     1       1.836  -1.892   1.954  0.00  0.00    +0.149 HD
ATOM      5  O   UNL     1       3.272  -1.841  -0.852  0.00  0.00    -0.275 OA
BRANCH   3   6
ATOM      6  C   UNL     1       2.731  -3.649   1.194  0.00  0.00    +0.224 C 
BRANCH   6   7
ATOM      7  C   UNL     1       1.976  -4.695   0.375  0.00  0.00    +0.322 C 
ATOM      8  O   UNL     1       2.254  -5.887   0.372  0.00  0.00    -0.249 OA
BRANCH   7   9
ATOM      9  O   UNL     1       0.924  -4.195  -0.314  0.00  0.00    -0.480 OA
ATOM     10  H   UNL     1       0.916  -3.223  -0.223  0.00  0.00    +0.295 HD
ENDBRANCH   7   9
ENDBRANCH   6   7
ENDBRANCH   3   6
ENDBRANCH   1   2
BRANCH   1  11
ATOM     11  C   UNL     1       0.590  -0.051  -0.143  0.00  0.00    +0.078 C 
BRANCH  11  12
ATOM     12  S   UNL     1      -0.188   1.584  -0.300  0.00  0.00    -0.177 S 
ATOM     13  H   UNL     1       0.490   1.982  -1.388  0.00  0.00    +0.102 HD
ENDBRANCH  11  12
ENDBRANCH   1  11
BRANCH   1  14
ATOM     14  C   UNL     1       2.431   0.690   1.499  0.00  0.00    +0.048 C 
BRANCH  14  15
ATOM     15  C   UNL     1       3.915   0.738   1.784  0.00  0.00    -0.047 A 
ATOM     16  C   UNL     1       4.450   0.094   2.907  0.00  0.00    +0.003 A 
ATOM     17  C   UNL     1       5.825   0.123   3.150  0.00  0.00    +0.000 A 
ATOM     18  C   UNL     1       6.676   0.799   2.278  0.00  0.00    +0.000 A 
ATOM     19  C   UNL     1       6.154   1.458   1.169  0.00  0.00    +0.000 A 
ATOM     20  C   UNL     1       4.780   1.434   0.926  0.00  0.00    +0.003 A 
ENDBRANCH  14  15
ENDBRANCH   1  14
TORSDOF 8
