REMARK  Name = 
REMARK  7 active torsions:
REMARK  status: ('A' for Active; 'I' for Inactive)
REMARK    1  A    between atoms: C_1  and  O_2
REMARK    2  A    between atoms: O_2  and  C_3
REMARK    3  A    between atoms: C_4  and  O_5
REMARK    4  A    between atoms: O_5  and  C_6
REMARK    5  A    between atoms: C_8  and  C_11
REMARK    6  A    between atoms: N_13  and  C_14
REMARK    7  A    between atoms: C_22  and  N_23
REMARK                            x       y       z     vdW  Elec       q    Type
REMARK                         _______ _______ _______ _____ _____    ______ ____
ROOT
ATOM      1  C   UNL     1       4.285   3.649  -4.009  0.00  0.00    +0.105 A 
ATOM      2  C   UNL     1       4.219   5.079  -3.933  0.00  0.00    +0.086 A 
ATOM      3  C   UNL     1       4.481   5.511  -5.222  0.00  0.00    +0.164 A 
ATOM      4  N   UNL     1       4.421   6.778  -5.674  0.00  0.00    -0.216 NA
ATOM      5  C   UNL     1       4.066   7.631  -4.707  0.00  0.00    +0.225 A 
ATOM      6  N   UNL     1       3.849   7.362  -3.409  0.00  0.00    -0.220 NA
ATOM      7  N   UNL     1       4.806   4.389  -5.937  0.00  0.00    -0.243 N 
ATOM      8  C   UNL     1       3.942   6.084  -2.992  0.00  0.00    +0.131 A 
ATOM      9  N   UNL     1       4.726   3.251  -5.217  0.00  0.00    -0.168 NA
ENDROOT
BRANCH   1  13
ATOM     10  C   UNL     1       3.121   0.780  -1.035  0.00  0.00    +0.162 A 
ATOM     11  C   UNL     1       4.069   0.445  -2.008  0.00  0.00    +0.050 A 
ATOM     12  C   UNL     1       4.467   1.382  -2.970  0.00  0.00    +0.014 A 
ATOM     13  C   UNL     1       3.897   2.658  -2.996  0.00  0.00    +0.007 A 
ATOM     14  C   UNL     1       2.893   2.955  -2.065  0.00  0.00    +0.059 A 
ATOM     15  C   UNL     1       2.533   2.055  -1.057  0.00  0.00    +0.162 A 
BRANCH  10  17
ATOM     16  C   UNL     1       3.544  -1.160   0.270  0.00  0.00    +0.277 C 
ATOM     17  O   UNL     1       2.678  -0.084  -0.066  0.00  0.00    -0.491 OA
ENDBRANCH  10  17
BRANCH  15  18
ATOM     18  O   UNL     1       1.619   2.345  -0.073  0.00  0.00    -0.491 OA
ATOM     19  C   UNL     1       1.238   3.711   0.071  0.00  0.00    +0.277 C 
ENDBRANCH  15  18
ENDBRANCH   1  13
BRANCH   7  20
ATOM     20  C   UNL     1       5.167   4.438  -7.334  0.00  0.00    +0.109 C 
ATOM     21  C   UNL     1       4.529   3.299  -8.182  0.00  0.00    +0.027 C 
ATOM     22  C   UNL     1       5.872   3.201  -8.930  0.00  0.00    +0.004 C 
ATOM     23  C   UNL     1       6.528   3.742  -7.644  0.00  0.00    +0.027 C 
ENDBRANCH   7  20
BRANCH   8  24
ATOM     24  N   UNL     1       3.778   5.885  -1.626  0.00  0.00    -0.342 N 
ATOM     25  H   UNL     1       4.371   5.160  -1.238  0.00  0.00    +0.144 HD
ATOM     26  H   UNL     1       3.818   6.776  -1.141  0.00  0.00    +0.144 HD
ENDBRANCH   8  24
TORSDOF 5
