REMARK  Name = 
REMARK  10 active torsions:
REMARK  status: ('A' for Active; 'I' for Inactive)
REMARK    1  A    between atoms: CA_2  and  CB_3
REMARK    2  A    between atoms: CA_2  and  N_5
REMARK    3  A    between atoms: CA_2  and  C_16
REMARK    4  A    between atoms: CB_3  and  SG_4
REMARK    5  A    between atoms: C_6  and  O_8
REMARK    6  A    between atoms: O_8  and  C_9
REMARK    7  A    between atoms: C_9  and  C_10
REMARK    8  A    between atoms: N_18  and  CA_19
REMARK    9  A    between atoms: CA_19  and  C_20
REMARK   10  A    between atoms: C_20  and  O_21
REMARK                            x       y       z     vdW  Elec       q    Type
REMARK                         _______ _______ _______ _____ _____    ______ ____
ROOT
ATOM      1  CA  GLY A   1       2.157  -0.076   0.151  0.00  0.00    +0.171 C 
ENDROOT
BRANCH   1   2
ATOM      2  C   GLY A   1       1.426  -0.544  -1.118  0.00  0.00    +0.235 C 
ATOM      3  N   GLY A   1       0.457  -1.505  -0.899  0.00  0.00    -0.303 N 
ATOM      4  H   GLY A   1       0.499  -1.980  -0.002  0.00  0.00    +0.149 HD
ATOM      5  O   GLY A   1       1.572  -0.019  -2.219  0.00  0.00    -0.274 OA
BRANCH   3   6
ATOM      6  CA  GLY A   1      -0.126  -2.235  -2.028  0.00  0.00    +0.224 C 
BRANCH   6   7
ATOM      7  C   GLY A   1      -1.398  -1.607  -2.594  0.00  0.00    +0.322 C 
ATOM      8  OXT GLY A   1      -2.039  -2.088  -3.517  0.00  0.00    -0.249 OA
BRANCH   7   9
ATOM      9  O   GLY A   1      -1.787  -0.483  -1.947  0.00  0.00    -0.480 OA
ATOM     10  H   GLY A   1      -1.122  -0.250  -1.269  0.00  0.00    +0.295 HD
ENDBRANCH   7   9
ENDBRANCH   6   7
ENDBRANCH   3   6
ENDBRANCH   1   2
BRANCH   1  11
ATOM     11  N   GLY A   1       2.697  -1.236   0.870  0.00  0.00    -0.269 N 
ATOM     12  H   GLY A   1       3.677  -1.436   0.730  0.00  0.00    +0.153 HD
ATOM     13  C   UNK A   0       2.279  -1.621   2.110  0.00  0.00    +0.401 C 
ATOM     14  O   UNK A   0       3.053  -2.094   2.928  0.00  0.00    -0.226 OA
BRANCH  13  15
ATOM     15  O   UNK A   0       0.946  -1.492   2.262  0.00  0.00    -0.446 OA
BRANCH  15  16
ATOM     16  C   UNK A   0       0.431  -1.941   3.524  0.00  0.00    +0.269 C 
BRANCH  16  17
ATOM     17  C   UNK A   0      -0.652  -0.969   3.903  0.00  0.00    -0.010 A 
ATOM     18  C   UNK A   0      -0.309   0.238   4.529  0.00  0.00    +0.007 A 
ATOM     19  C   UNK A   0      -1.291   1.182   4.825  0.00  0.00    +0.000 A 
ATOM     20  C   UNK A   0      -2.618   0.930   4.493  0.00  0.00    +0.000 A 
ATOM     21  C   UNK A   0      -2.969  -0.264   3.865  0.00  0.00    +0.000 A 
ATOM     22  C   UNK A   0      -1.991  -1.211   3.569  0.00  0.00    +0.007 A 
ENDBRANCH  16  17
ENDBRANCH  15  16
ENDBRANCH  13  15
ENDBRANCH   1  11
BRANCH   1  23
ATOM     23  CB  GLY A   1       3.273   0.912  -0.229  0.00  0.00    +0.097 C 
BRANCH  23  24
ATOM     24  SG  GLY A   1       4.129   1.590   1.233  0.00  0.00    -0.176 S 
ATOM     25  HG  GLY A   1       3.094   2.294   1.719  0.00  0.00    +0.102 HD
ENDBRANCH  23  24
ENDBRANCH   1  23
TORSDOF 10
