REMARK  Name = 
REMARK  3 active torsions:
REMARK  status: ('A' for Active; 'I' for Inactive)
REMARK    1  A    between atoms: N_1  and  S_2
REMARK    2  A    between atoms: S_2  and  C_5
REMARK    3  A    between atoms: C_10  and  C_14
REMARK                            x       y       z     vdW  Elec       q    Type
REMARK                         _______ _______ _______ _____ _____    ______ ____
ROOT
ATOM      1  C   UNL     1       3.397   0.388   1.674  0.00  0.00    +0.107 A 
ATOM      2  C   UNL     1       3.451   1.696   2.177  0.00  0.00    +0.058 A 
ATOM      3  C   UNL     1       3.868   1.873   3.499  0.00  0.00    +0.091 A 
ATOM      4  C   UNL     1       4.226   0.766   4.262  0.00  0.00    +0.067 A 
ATOM      5  N   UNL     1       4.567   1.300   5.479  0.00  0.00    -0.337 N 
ATOM      6  H   UNL     1       4.881   0.805   6.301  0.00  0.00    +0.167 HD
ATOM      7  C   UNL     1       4.400   2.660   5.412  0.00  0.00    +0.158 A 
ATOM      8  C   UNL     1       4.197  -0.544   3.776  0.00  0.00    +0.030 A 
ATOM      9  N   UNL     1       3.987   3.033   4.219  0.00  0.00    -0.226 NA
ATOM     10  C   UNL     1       3.772  -0.713   2.451  0.00  0.00    +0.030 A 
ENDROOT
BRANCH   7  11
ATOM     11  C   UNL     1       4.650   3.571   6.559  0.00  0.00    +0.113 A 
ATOM     12  N   UNL     1       5.057   3.089   7.792  0.00  0.00    -0.244 NA
ATOM     13  C   UNL     1       5.185   4.105   8.620  0.00  0.00    +0.156 A 
ATOM     14  S   UNL     1       4.842   5.661   7.982  0.00  0.00    -0.083 S 
ATOM     15  C   UNL     1       4.485   4.938   6.470  0.00  0.00    +0.078 A 
ENDBRANCH   7  11
BRANCH   1  16
ATOM     16  S   UNL     1       2.875   0.162   0.000  0.00  0.00    +0.056 S 
ATOM     17  O   UNL     1       3.067   1.393  -0.732  0.00  0.00    -0.153 OA
ATOM     18  O   UNL     1       3.365  -1.108  -0.481  0.00  0.00    -0.153 OA
BRANCH  16  19
ATOM     19  N   UNL     1       1.213  -0.012   0.175  0.00  0.00    -0.204 NA
ATOM     20  H   UNL     1       0.736   0.817  -0.173  0.00  0.00    +0.144 HD
ATOM     21  H   UNL     1       0.916  -0.882  -0.270  0.00  0.00    +0.144 HD
ENDBRANCH  16  19
ENDBRANCH   1  16
TORSDOF 3
