REMARK  Name = 
REMARK  10 active torsions:
REMARK  status: ('A' for Active; 'I' for Inactive)
REMARK    1  A    between atoms: C_7  and  C_8
REMARK    2  A    between atoms: C_16  and  C_17
REMARK    3  A    between atoms: C_16  and  C_18
REMARK    4  A    between atoms: C_18  and  C_19
REMARK    5  A    between atoms: C_19  and  C_20
REMARK    6  A    between atoms: N_22  and  C_23
REMARK    7  A    between atoms: C_24  and  O_25
REMARK    8  A    between atoms: C_28  and  C_29
REMARK    9  A    between atoms: C_29  and  O_30
REMARK   10  A    between atoms: C_32  and  O_33
REMARK                            x       y       z     vdW  Elec       q    Type
REMARK                         _______ _______ _______ _____ _____    ______ ____
ROOT
ATOM      1  C   UNL     1       0.000   0.000   0.000  0.00  0.00    +0.097 C 
ENDROOT
BRANCH   1   2
ATOM      2  C   UNL     1       0.000   0.000   0.000  0.00  0.00    +0.217 C 
ATOM      3  N   UNL     1       0.000   0.000   0.000  0.00  0.00    -0.280 N 
ATOM      4  H   UNL     1       0.000   0.000   0.000  0.00  0.00    +0.155 HD
ATOM      5  O   UNL     1       0.000   0.000   0.000  0.00  0.00    -0.275 OA
BRANCH   3   6
ATOM      6  C   UNL     1       0.000   0.000   0.000  0.00  0.00    +0.118 A 
ATOM      7  C   UNL     1       0.000   0.000   0.000  0.00  0.00    +0.156 A 
ATOM      8  C   UNL     1       0.000   0.000   0.000  0.00  0.00    +0.102 A 
ATOM      9  C   UNL     1       0.000   0.000   0.000  0.00  0.00    +0.022 A 
ATOM     10  C   UNL     1       0.000   0.000   0.000  0.00  0.00    +0.048 A 
ATOM     11  C   UNL     1       0.000   0.000   0.000  0.00  0.00    +0.142 A 
BRANCH   7  12
ATOM     12  O   UNL     1       0.000   0.000   0.000  0.00  0.00    -0.504 OA
ATOM     13  H   UNL     1       0.000   0.000   0.000  0.00  0.00    +0.292 HD
ENDBRANCH   7  12
BRANCH   8  14
ATOM     14  C   UNL     1       0.000   0.000   0.000  0.00  0.00    +0.340 C 
ATOM     15  O   UNL     1       0.000   0.000   0.000  0.00  0.00    -0.245 OA
BRANCH  14  16
ATOM     16  O   UNL     1       0.000   0.000   0.000  0.00  0.00    -0.477 OA
ATOM     17  H   UNL     1       0.000   0.000   0.000  0.00  0.00    +0.295 HD
ENDBRANCH  14  16
ENDBRANCH   8  14
BRANCH  11  18
ATOM     18  O   UNL     1       0.000   0.000   0.000  0.00  0.00    -0.505 OA
ATOM     19  H   UNL     1       0.000   0.000   0.000  0.00  0.00    +0.292 HD
ENDBRANCH  11  18
ENDBRANCH   3   6
ENDBRANCH   1   2
BRANCH   1  20
ATOM     20  C   UNL     1       0.000   0.000   0.000  0.00  0.00    +0.024 C 
BRANCH  20  27
ATOM     21  C   UNL     1       0.000   0.000   0.000  0.00  0.00    +0.024 C 
ATOM     22  C   UNL     1       0.000   0.000   0.000  0.00  0.00    +0.013 C 
ATOM     23  C   UNL     1       0.000   0.000   0.000  0.00  0.00    -0.020 C 
ATOM     24  C   UNL     1       0.000   0.000   0.000  0.00  0.00    +0.037 C 
ATOM     25  C   UNL     1       0.000   0.000   0.000  0.00  0.00    +0.124 C 
ATOM     26  O   UNL     1       0.000   0.000   0.000  0.00  0.00    -0.370 OA
ATOM     27  C   UNL     1       0.000   0.000   0.000  0.00  0.00    +0.032 C 
ATOM     28  C   UNL     1       0.000   0.000   0.000  0.00  0.00    +0.019 C 
ATOM     29  C   UNL     1       0.000   0.000   0.000  0.00  0.00    +0.140 C 
ATOM     30  O   UNL     1       0.000   0.000   0.000  0.00  0.00    -0.297 OA
ATOM     31  C   UNL     1       0.000   0.000   0.000  0.00  0.00    +0.075 C 
ATOM     32  C   UNL     1       0.000   0.000   0.000  0.00  0.00    +0.015 C 
ATOM     33  C   UNL     1       0.000   0.000   0.000  0.00  0.00    +0.042 C 
ATOM     34  C   UNL     1       0.000   0.000   0.000  0.00  0.00    +0.071 C 
ATOM     35  C   UNL     1       0.000   0.000   0.000  0.00  0.00    +0.042 C 
ATOM     36  C   UNL     1       0.000   0.000   0.000  0.00  0.00    +0.038 C 
ENDBRANCH  20  27
ENDBRANCH   1  20
TORSDOF 8
