REMARK  Name = 
REMARK  8 active torsions:
REMARK  status: ('A' for Active; 'I' for Inactive)
REMARK    1  A    between atoms: C_2  and  C_3
REMARK    2  A    between atoms: C_6  and  C_8
REMARK    3  A    between atoms: C_8  and  C_9
REMARK    4  A    between atoms: C_8  and  O_10
REMARK    5  A    between atoms: C_8  and  C_11
REMARK    6  A    between atoms: C_15  and  C_17
REMARK    7  A    between atoms: C_20  and  C_22
REMARK    8  A    between atoms: C_25  and  C_28
REMARK                            x       y       z     vdW  Elec       q    Type
REMARK                         _______ _______ _______ _____ _____    ______ ____
ROOT
ATOM      1  C   UNL     1       2.054   0.001   0.005  0.00  0.00    +0.091 C 
ATOM      2  N   UNL     1       2.605   1.061  -0.878  0.00  0.00    -0.291 N 
ATOM      3  C   UNL     1       3.435   2.161  -0.632  0.00  0.00    +0.247 C 
ATOM      4  O   UNL     1       3.762   2.939  -1.531  0.00  0.00    -0.270 OA
ATOM      5  C   UNL     1       2.310   0.774  -2.311  0.00  0.00    +0.130 C 
ATOM      6  C   UNL     1       2.850  -0.631  -2.730  0.00  0.00    +0.090 C 
ATOM      7  C   UNL     1       2.670  -0.851  -4.232  0.00  0.00    +0.029 C 
ATOM      8  N   UNL     1       2.348  -1.673  -1.771  0.00  0.00    -0.293 N 
ATOM      9  C   UNL     1       1.468  -2.700  -2.108  0.00  0.00    +0.256 C 
ATOM     10  O   UNL     1       1.200  -2.952  -3.288  0.00  0.00    -0.272 OA
ATOM     11  C   UNL     1       2.720  -1.332  -0.393  0.00  0.00    +0.130 C 
ATOM     12  C   UNL     1       1.980   0.121   1.523  0.00  0.00    +0.029 C 
ENDROOT
BRANCH   3  13
ATOM     13  C   UNL     1       3.961   2.505   0.711  0.00  0.00    +0.037 A 
ATOM     14  C   UNL     1       3.982   3.853   1.095  0.00  0.00    +0.014 A 
ATOM     15  C   UNL     1       4.434   4.228   2.356  0.00  0.00    +0.019 A 
ATOM     16  C   UNL     1       4.868   3.252   3.251  0.00  0.00    +0.052 A 
ATOM     17  C   UNL     1       4.912   1.914   2.853  0.00  0.00    +0.019 A 
ATOM     18  C   UNL     1       4.530   1.557   1.558  0.00  0.00    +0.014 A 
BRANCH  16  19
ATOM     19  C   UNL     1       5.279   3.618   4.568  0.00  0.00    +0.099 C 
ATOM     20  N   UNL     1       5.600   3.902   5.646  0.00  0.00    -0.191 NA
ENDBRANCH  16  19
ENDBRANCH   3  13
BRANCH   9  21
ATOM     21  C   UNL     1       0.775  -3.580  -1.014  0.00  0.00    +0.234 C 
ATOM     22  C   UNL     1      -0.139  -2.758  -0.097  0.00  0.00    +0.061 C 
BRANCH  21  23
ATOM     23  C   UNL     1       1.816  -4.418  -0.244  0.00  0.00    +0.427 C 
ATOM     24  F   UNL     1       1.566  -5.746  -0.327  0.00  0.00    -0.167 F 
ATOM     25  F   UNL     1       1.836  -4.110   1.078  0.00  0.00    -0.167 F 
ATOM     26  F   UNL     1       3.078  -4.240  -0.700  0.00  0.00    -0.167 F 
ENDBRANCH  21  23
BRANCH  21  27
ATOM     27  O   UNL     1      -0.178  -4.460  -1.686  0.00  0.00    -0.373 OA
ATOM     28  H   UNL     1       0.293  -4.857  -2.444  0.00  0.00    +0.211 HD
ENDBRANCH  21  27
ENDBRANCH   9  21
TORSDOF 5
