REMARK  Name = 
REMARK  6 active torsions:
REMARK  status: ('A' for Active; 'I' for Inactive)
REMARK    1  A    between atoms: C_1  and  C_2
REMARK    2  A    between atoms: C_5  and  N_6
REMARK    3  A    between atoms: C_7  and  C_9
REMARK    4  A    between atoms: C_13  and  C_15
REMARK    5  A    between atoms: C_20  and  N_21
REMARK    6  A    between atoms: C_27  and  C_28
REMARK                            x       y       z     vdW  Elec       q    Type
REMARK                         _______ _______ _______ _____ _____    ______ ____
ROOT
ATOM      1  C   UNL     1       1.451   0.012   1.471  0.00  0.00    +0.045 C 
ATOM      2  C   UNL     1       2.776   0.014   0.762  0.00  0.00    -0.029 A 
ATOM      3  C   UNL     1       3.285  -1.107   0.081  0.00  0.00    +0.037 A 
ATOM      4  C   UNL     1       4.658  -1.092  -0.262  0.00  0.00    +0.046 A 
ATOM      5  C   UNL     1       5.458   0.045  -0.129  0.00  0.00    +0.035 A 
ATOM      6  C   UNL     1       4.858   1.208   0.335  0.00  0.00    +0.024 A 
ATOM      7  C   UNL     1       3.546   1.185   0.810  0.00  0.00    +0.007 A 
ENDROOT
BRANCH   3   8
ATOM      8  N   UNL     1       2.458  -2.204  -0.283  0.00  0.00    -0.299 N 
ATOM      9  H   UNL     1       1.492  -2.159   0.026  0.00  0.00    +0.154 HD
ATOM     10  C   UNL     1       2.604  -3.015  -1.439  0.00  0.00    +0.132 A 
ATOM     11  C   UNL     1       1.800  -4.152  -1.671  0.00  0.00    +0.040 A 
ATOM     12  C   UNL     1       2.284  -5.057  -2.650  0.00  0.00    +0.015 A 
ATOM     13  C   UNL     1       3.418  -4.796  -3.408  0.00  0.00    +0.020 A 
ATOM     14  C   UNL     1       4.040  -3.593  -3.208  0.00  0.00    +0.113 A 
ATOM     15  N   UNL     1       3.648  -2.727  -2.264  0.00  0.00    -0.240 NA
BRANCH  11  16
ATOM     16  C   UNL     1       0.516  -4.462  -0.985  0.00  0.00    +0.077 A 
ATOM     17  N   UNL     1       0.335  -3.971   0.261  0.00  0.00    -0.235 NA
ATOM     18  C   UNL     1      -0.787  -4.353   0.900  0.00  0.00    +0.221 A 
ATOM     19  N   UNL     1      -1.754  -5.147   0.415  0.00  0.00    -0.244 NA
ATOM     20  C   UNL     1      -1.569  -5.579  -0.838  0.00  0.00    +0.114 A 
ATOM     21  C   UNL     1      -0.462  -5.250  -1.587  0.00  0.00    +0.048 A 
ENDBRANCH  11  16
ENDBRANCH   3   8
BRANCH   5  22
ATOM     22  N   UNL     1       6.825  -0.036  -0.492  0.00  0.00    -0.281 N 
ATOM     23  H   UNL     1       7.110  -0.883  -0.967  0.00  0.00    +0.155 HD
ATOM     24  C   UNL     1       7.778   0.928  -0.201  0.00  0.00    +0.248 C 
ATOM     25  O   UNL     1       7.580   1.946   0.463  0.00  0.00    -0.270 OA
BRANCH  24  26
ATOM     26  C   UNL     1       9.157   0.737  -0.715  0.00  0.00    +0.038 A 
ATOM     27  C   UNL     1       9.913   1.906  -0.900  0.00  0.00    +0.025 A 
ATOM     28  C   UNL     1      11.258   1.857  -1.293  0.00  0.00    +0.056 A 
ATOM     29  C   UNL     1      11.840   0.603  -1.516  0.00  0.00    +0.012 A 
ATOM     30  C   UNL     1      11.092  -0.569  -1.341  0.00  0.00    +0.001 A 
ATOM     31  C   UNL     1       9.751  -0.504  -0.937  0.00  0.00    +0.013 A 
BRANCH  28  32
ATOM     32  C   UNL     1      12.031   3.143  -1.433  0.00  0.00    +0.417 C 
ATOM     33  F   UNL     1      12.058   3.863  -0.278  0.00  0.00    -0.166 F 
ATOM     34  F   UNL     1      11.500   3.969  -2.376  0.00  0.00    -0.166 F 
ATOM     35  F   UNL     1      13.333   2.961  -1.788  0.00  0.00    -0.166 F 
ENDBRANCH  28  32
ENDBRANCH  24  26
ENDBRANCH   5  22
TORSDOF 5
