REMARK  Name = 
REMARK  6 active torsions:
REMARK  status: ('A' for Active; 'I' for Inactive)
REMARK    1  A    between atoms: C_2  and  O_32
REMARK    2  A    between atoms: C_5  and  C_9
REMARK    3  A    between atoms: N_11  and  C_12
REMARK    4  A    between atoms: C_14  and  C_18
REMARK    5  A    between atoms: N_21  and  C_22
REMARK    6  A    between atoms: O_32  and  C_33
REMARK                            x       y       z     vdW  Elec       q    Type
REMARK                         _______ _______ _______ _____ _____    ______ ____
ROOT
ATOM      1  C   UNL     1       6.556  -0.086  -3.686  0.00  0.00    +0.125 A 
ATOM      2  N   UNL     1       7.251  -1.228  -3.623  0.00  0.00    -0.240 NA
ATOM      3  C   UNL     1       8.592  -1.173  -3.730  0.00  0.00    +0.113 A 
ATOM      4  C   UNL     1       9.306   0.002  -3.879  0.00  0.00    +0.028 A 
ATOM      5  C   UNL     1       8.605   1.206  -3.937  0.00  0.00    -0.013 A 
ATOM      6  C   UNL     1       7.196   1.133  -3.855  0.00  0.00    +0.052 A 
ENDROOT
BRANCH   5   7
ATOM      7  C   UNL     1       9.277   2.513  -4.116  0.00  0.00    -0.013 A 
ATOM      8  C   UNL     1      10.471   2.680  -4.820  0.00  0.00    +0.028 A 
ATOM      9  C   UNL     1      10.934   3.968  -5.059  0.00  0.00    +0.113 A 
ATOM     10  N   UNL     1      10.270   5.092  -4.705  0.00  0.00    -0.240 NA
ATOM     11  C   UNL     1       9.120   4.932  -4.029  0.00  0.00    +0.123 A 
ATOM     12  N   UNL     1       8.347   6.073  -3.747  0.00  0.00    -0.299 N 
ATOM     13  H   UNL     1       8.822   6.871  -4.164  0.00  0.00    +0.154 HD
ATOM     14  C   UNL     1       8.668   3.678  -3.639  0.00  0.00    +0.052 A 
BRANCH  12  15
ATOM     15  C   UNL     1       6.939   6.190  -3.819  0.00  0.00    +0.033 A 
ATOM     16  C   UNL     1       6.136   5.341  -4.603  0.00  0.00    +0.026 A 
ATOM     17  C   UNL     1       4.748   5.496  -4.639  0.00  0.00    +0.040 A 
ATOM     18  C   UNL     1       4.157   6.516  -3.907  0.00  0.00    +0.124 A 
ATOM     19  F   UNL     1       2.827   6.669  -3.944  0.00  0.00    -0.205 F 
ATOM     20  C   UNL     1       4.928   7.381  -3.142  0.00  0.00    +0.040 A 
ATOM     21  C   UNL     1       6.316   7.221  -3.104  0.00  0.00    +0.026 A 
ENDBRANCH  12  15
ENDBRANCH   5   7
BRANCH   1  23
ATOM     22  C   UNL     1       4.396  -1.228  -3.404  0.00  0.00    +0.221 C 
ATOM     23  N   UNL     1       5.155  -0.087  -3.573  0.00  0.00    -0.270 N 
ATOM     24  H   UNL     1       4.682   0.805  -3.627  0.00  0.00    +0.156 HD
ATOM     25  O   UNL     1       4.841  -2.373  -3.405  0.00  0.00    -0.275 OA
BRANCH  22  29
ATOM     26  C   UNL     1       1.957  -1.887  -0.562  0.00  0.00    +0.118 C 
ATOM     27  C   UNL     1       2.713  -0.567  -0.763  0.00  0.00    +0.032 C 
ATOM     28  C   UNL     1       2.494   0.009  -2.163  0.00  0.00    +0.015 C 
ATOM     29  C   UNL     1       2.882  -0.983  -3.269  0.00  0.00    +0.076 C 
ATOM     30  C   UNL     1       2.146  -2.323  -3.054  0.00  0.00    +0.015 C 
ATOM     31  C   UNL     1       2.364  -2.892  -1.644  0.00  0.00    +0.032 C 
BRANCH  26  32
ATOM     32  O   UNL     1       0.537  -1.733  -0.669  0.00  0.00    -0.380 OA
ATOM     33  C   UNL     1      -0.046  -0.912   0.328  0.00  0.00    +0.194 C 
ENDBRANCH  26  32
ENDBRANCH  22  29
ENDBRANCH   1  23
TORSDOF 5
