REMARK  Name = 
REMARK  9 active torsions:
REMARK  status: ('A' for Active; 'I' for Inactive)
REMARK    1  A    between atoms: O_1  and  C_2
REMARK    2  A    between atoms: C_2  and  C_4
REMARK    3  A    between atoms: C_4  and  C_5
REMARK    4  A    between atoms: C_5  and  C_6
REMARK    5  A    between atoms: C_6  and  C_7
REMARK    6  A    between atoms: N_9  and  C_10
REMARK    7  A    between atoms: C_13  and  C_14
REMARK    8  A    between atoms: C_14  and  C_15
REMARK    9  A    between atoms: C_15  and  N_16
REMARK                            x       y       z     vdW  Elec       q    Type
REMARK                         _______ _______ _______ _____ _____    ______ ____
ROOT
ATOM      1  C   UNL     1       9.252   1.176  -2.709  0.00  0.00    +0.033 A 
ATOM      2  C   UNL     1       9.844  -0.082  -2.549  0.00  0.00    +0.023 A 
ATOM      3  C   UNL     1      11.240  -0.206  -2.470  0.00  0.00    +0.005 A 
ATOM      4  C   UNL     1      12.062   0.927  -2.535  0.00  0.00    -0.042 A 
ATOM      5  C   UNL     1      11.460   2.182  -2.644  0.00  0.00    +0.005 A 
ATOM      6  C   UNL     1      10.075   2.302  -2.710  0.00  0.00    +0.023 A 
ENDROOT
BRANCH   1   8
ATOM      7  C   UNL     1       7.191   2.366  -3.397  0.00  0.00    +0.217 C 
ATOM      8  N   UNL     1       7.851   1.259  -2.891  0.00  0.00    -0.285 N 
ATOM      9  H   UNL     1       7.332   0.394  -2.806  0.00  0.00    +0.155 HD
ATOM     10  O   UNL     1       7.714   3.423  -3.745  0.00  0.00    -0.275 OA
BRANCH   7  11
ATOM     11  C   UNL     1       5.684   2.211  -3.486  0.00  0.00    +0.096 C 
BRANCH  11  12
ATOM     12  C   UNL     1       5.168   3.020  -4.679  0.00  0.00    +0.020 C 
BRANCH  12  13
ATOM     13  C   UNL     1       3.655   2.994  -4.800  0.00  0.00    +0.121 C 
BRANCH  13  14
ATOM     14  C   UNL     1       3.226   3.777  -6.016  0.00  0.00    +0.305 C 
ATOM     15  O   UNL     1       3.085   3.287  -7.123  0.00  0.00    -0.251 OA
BRANCH  14  16
ATOM     16  O   UNL     1       3.048   5.094  -5.773  0.00  0.00    -0.481 OA
ATOM     17  H   UNL     1       3.238   5.363  -4.854  0.00  0.00    +0.295 HD
ENDBRANCH  14  16
ENDBRANCH  13  14
ENDBRANCH  12  13
ENDBRANCH  11  12
ENDBRANCH   7  11
ENDBRANCH   1   8
BRANCH   4  18
ATOM     18  C   UNL     1      13.569   0.813  -2.559  0.00  0.00    +0.086 C 
BRANCH  18  19
ATOM     19  C   UNL     1      14.229   1.609  -1.431  0.00  0.00    +0.135 C 
BRANCH  19  20
ATOM     20  N   UNL     1      15.756   1.583  -1.432  0.00  0.00    +0.217 N 
ATOM     21  C   UNL     1      16.234   2.390  -0.231  0.00  0.00    +0.130 C 
ATOM     22  C   UNL     1      17.746   2.562  -0.194  0.00  0.00    +0.051 C 
ATOM     23  C   UNL     1      18.250   3.204  -1.480  0.00  0.00    +0.010 C 
ATOM     24  C   UNL     1      17.813   2.378  -2.681  0.00  0.00    +0.051 C 
ATOM     25  C   UNL     1      16.299   2.211  -2.707  0.00  0.00    +0.130 C 
ATOM     26  O   UNL     1      16.182   0.286  -1.322  0.00  0.00    -0.775 OA
ENDBRANCH  19  20
ENDBRANCH  18  19
ENDBRANCH   4  18
TORSDOF 9
