REMARK  Name = 
REMARK  6 active torsions:
REMARK  status: ('A' for Active; 'I' for Inactive)
REMARK    1  A    between atoms: C_1  and  C_2
REMARK    2  A    between atoms: N_4  and  C_5
REMARK    3  A    between atoms: C_5  and  C_6
REMARK    4  A    between atoms: C_6  and  C_7
REMARK    5  A    between atoms: C_10  and  S_13
REMARK    6  A    between atoms: S_13  and  N_14
REMARK                            x       y       z     vdW  Elec       q    Type
REMARK                         _______ _______ _______ _____ _____    ______ ____
ROOT
ATOM      1  C   UNL     1       6.676  -2.683  -0.302  0.00  0.00    -0.046 A 
ATOM      2  C   UNL     1       7.357  -3.838   0.117  0.00  0.00    +0.005 A 
ATOM      3  C   UNL     1       8.749  -3.927   0.003  0.00  0.00    +0.029 A 
ATOM      4  C   UNL     1       9.467  -2.847  -0.515  0.00  0.00    +0.105 A 
ATOM      5  C   UNL     1       8.811  -1.683  -0.910  0.00  0.00    +0.029 A 
ATOM      6  C   UNL     1       7.426  -1.597  -0.783  0.00  0.00    +0.005 A 
ENDROOT
BRANCH   4   7
ATOM      7  S   UNL     1      11.217  -2.955  -0.722  0.00  0.00    +0.056 S 
ATOM      8  O   UNL     1      11.625  -2.075  -1.793  0.00  0.00    -0.153 OA
ATOM      9  O   UNL     1      11.622  -4.339  -0.661  0.00  0.00    -0.153 OA
BRANCH   7  10
ATOM     10  N   UNL     1      11.770  -2.247   0.696  0.00  0.00    -0.204 NA
ATOM     11  H   UNL     1      12.275  -1.388   0.483  0.00  0.00    +0.144 HD
ATOM     12  H   UNL     1      12.304  -2.926   1.238  0.00  0.00    +0.144 HD
ENDBRANCH   7  10
ENDBRANCH   4   7
BRANCH   1  13
ATOM     13  C   UNL     1       5.166  -2.613  -0.186  0.00  0.00    +0.054 C 
BRANCH  13  14
ATOM     14  C   UNL     1       4.489  -1.863  -1.343  0.00  0.00    +0.109 C 
BRANCH  14  17
ATOM     15  C   UNL     1       0.907  -0.945  -0.571  0.00  0.00    +0.109 C 
ATOM     16  C   UNL     1       2.405  -0.873  -0.482  0.00  0.00    +0.210 C 
ATOM     17  N   UNL     1       3.045  -1.833  -1.230  0.00  0.00    -0.315 N 
ATOM     18  H   UNL     1       2.499  -2.486  -1.779  0.00  0.00    +0.149 HD
ATOM     19  O   UNL     1       2.990  -0.028   0.188  0.00  0.00    -0.276 OA
ENDBRANCH  14  17
ENDBRANCH  13  14
ENDBRANCH   1  13
TORSDOF 5
