REMARK  Name = 
REMARK  8 active torsions:
REMARK  status: ('A' for Active; 'I' for Inactive)
REMARK    1  A    between atoms: C_1  and  C_2
REMARK    2  A    between atoms: C_2  and  C_3
REMARK    3  A    between atoms: C_3  and  C_4
REMARK    4  A    between atoms: C_3  and  C_6
REMARK    5  A    between atoms: C_16  and  C_17
REMARK    6  A    between atoms: C_18  and  C_19
REMARK    7  A    between atoms: C_22  and  O_23
REMARK    8  A    between atoms: C_27  and  O_28
REMARK                            x       y       z     vdW  Elec       q    Type
REMARK                         _______ _______ _______ _____ _____    ______ ____
ROOT
ATOM      1  C   UNL     1      -0.000  -0.000  -0.000  0.00  0.00    -0.002 C 
ATOM      2  C   UNL     1      -0.000  -0.000  -0.000  0.00  0.00    -0.022 C 
ATOM      3  C   UNL     1      -0.000  -0.000  -0.000  0.00  0.00    +0.012 C 
ATOM      4  C   UNL     1      -0.000  -0.000  -0.000  0.00  0.00    +0.021 C 
ATOM      5  C   UNL     1      -0.000  -0.000  -0.000  0.00  0.00    -0.066 C 
ATOM      6  C   UNL     1      -0.000  -0.000  -0.000  0.00  0.00    -0.001 C 
ATOM      7  C   UNL     1      -0.000  -0.000  -0.000  0.00  0.00    +0.031 C 
ATOM      8  C   UNL     1      -0.000  -0.000  -0.000  0.00  0.00    +0.005 C 
ATOM      9  C   UNL     1      -0.000  -0.000  -0.000  0.00  0.00    +0.009 C 
ATOM     10  C   UNL     1      -0.000  -0.000  -0.000  0.00  0.00    +0.008 C 
ATOM     11  C   UNL     1      -0.000  -0.000  -0.000  0.00  0.00    +0.005 C 
ENDROOT
BRANCH   6  12
ATOM     12  C   UNL     1      -0.000  -0.000  -0.000  0.00  0.00    -0.001 C 
ATOM     13  C   UNL     1      -0.000  -0.000  -0.000  0.00  0.00    -0.064 C 
ATOM     14  C   UNL     1      -0.000  -0.000  -0.000  0.00  0.00    +0.066 C 
ATOM     15  C   UNL     1      -0.000  -0.000  -0.000  0.00  0.00    +0.146 C 
ATOM     16  C   UNL     1      -0.000  -0.000  -0.000  0.00  0.00    -0.020 C 
ATOM     17  C   UNL     1      -0.000  -0.000  -0.000  0.00  0.00    +0.013 C 
ATOM     18  C   UNL     1      -0.000  -0.000  -0.000  0.00  0.00    +0.146 C 
ATOM     19  C   UNL     1      -0.000  -0.000  -0.000  0.00  0.00    +0.066 C 
BRANCH  15  20
ATOM     20  O   UNL     1      -0.000  -0.000   0.000  0.00  0.00    -0.387 OA
ATOM     21  H   UNL     1      -0.000  -0.000  -0.000  0.00  0.00    +0.210 HD
ENDBRANCH  15  20
BRANCH  18  22
ATOM     22  O   UNL     1      -0.000  -0.000  -0.000  0.00  0.00    -0.387 OA
ATOM     23  H   UNL     1      -0.000  -0.000  -0.000  0.00  0.00    +0.210 HD
ENDBRANCH  18  22
ENDBRANCH   6  12
BRANCH   1  24
ATOM     24  C   UNL     1      -0.000  -0.000  -0.000  0.00  0.00    -0.011 C 
ATOM     25  C   UNL     1      -0.000  -0.000  -0.000  0.00  0.00    +0.008 C 
BRANCH  24  27
ATOM     26  C   UNL     1      -0.000  -0.000  -0.000  0.00  0.00    +0.004 C 
ATOM     27  C   UNL     1      -0.000  -0.000  -0.000  0.00  0.00    +0.000 C 
ENDBRANCH  24  27
ENDBRANCH   1  24
TORSDOF 5
