REMARK  Name = 
REMARK  1 active torsions:
REMARK  status: ('A' for Active; 'I' for Inactive)
REMARK    1  A    between atoms: N_21  and  C_22
REMARK                            x       y       z     vdW  Elec       q    Type
REMARK                         _______ _______ _______ _____ _____    ______ ____
ROOT
ATOM      1  O   UNL     1       4.842  -1.994   4.532  0.00  0.00    -0.275 OA
ATOM      2  C   UNL     1       5.224  -0.939   4.038  0.00  0.00    +0.217 C 
ATOM      3  N   UNL     1       6.392  -0.300   4.342  0.00  0.00    -0.285 N 
ATOM      4  H   UNL     1       6.618   0.404   3.655  0.00  0.00    +0.155 HD
ATOM      5  C   UNL     1       7.497  -0.699   5.116  0.00  0.00    +0.035 A 
ATOM      6  C   UNL     1       7.624  -1.514   6.229  0.00  0.00    +0.023 A 
ATOM      7  C   UNL     1       8.930  -1.800   6.725  0.00  0.00    +0.004 A 
ATOM      8  C   UNL     1      10.100  -1.323   6.083  0.00  0.00    +0.023 A 
ATOM      9  C   UNL     1       9.965  -0.443   5.033  0.00  0.00    +0.035 A 
ATOM     10  N   UNL     1      11.052   0.120   4.266  0.00  0.00    -0.283 N 
ATOM     11  H   UNL     1      11.074  -0.459   3.425  0.00  0.00    +0.155 HD
ATOM     12  C   UNL     1      10.753   1.421   3.840  0.00  0.00    +0.224 A 
ATOM     13  N   UNL     1      10.885   2.420   4.788  0.00  0.00    -0.181 NA
ATOM     14  C   UNL     1      10.150   3.478   4.693  0.00  0.00    +0.221 A 
ATOM     15  N   UNL     1       9.309   3.620   3.576  0.00  0.00    -0.183 N 
ATOM     16  N   UNL     1       8.369   4.583   3.467  0.00  0.00    -0.170 NA
ATOM     17  C   UNL     1       7.557   4.091   2.527  0.00  0.00    +0.140 A 
ATOM     18  C   UNL     1       7.961   2.803   2.065  0.00  0.00    +0.017 A 
ATOM     19  C   UNL     1       7.131   1.836   1.257  0.00  0.00    +0.040 C 
ATOM     20  C   UNL     1       5.651   1.764   1.735  0.00  0.00    +0.005 C 
ATOM     21  C   UNL     1       5.000   0.358   1.680  0.00  0.00    +0.009 C 
ATOM     22  C   UNL     1       9.223   2.620   2.647  0.00  0.00    +0.166 A 
ATOM     23  N   UNL     1      10.056   4.452   5.681  0.00  0.00    -0.310 N 
ATOM     24  H   UNL     1       9.276   5.092   5.534  0.00  0.00    +0.149 HD
ATOM     25  N   UNL     1      10.097   1.566   2.701  0.00  0.00    -0.195 NA
ATOM     26  C   UNL     1       8.661  -0.145   4.629  0.00  0.00    +0.046 A 
ATOM     27  C   UNL     1       4.370  -0.145   3.013  0.00  0.00    +0.096 C 
ENDROOT
BRANCH  23  28
ATOM     28  C   UNL     1      10.353   4.045   7.064  0.00  0.00    +0.073 C 
ATOM     29  C   UNL     1       9.303   3.451   7.965  0.00  0.00    +0.024 C 
ATOM     30  C   UNL     1       9.818   4.838   8.223  0.00  0.00    +0.024 C 
ENDBRANCH  23  28
TORSDOF 1
