REMARK  Name = 
REMARK  17 active torsions:
REMARK  status: ('A' for Active; 'I' for Inactive)
REMARK    1  A    between atoms: C_1  and  C_2
REMARK    2  A    between atoms: C_2  and  C_3
REMARK    3  A    between atoms: C_2  and  O_4
REMARK    4  A    between atoms: O_4  and  C_5
REMARK    5  A    between atoms: C_5  and  C_7
REMARK    6  A    between atoms: C_7  and  C_8
REMARK    7  A    between atoms: C_8  and  C_9
REMARK    8  A    between atoms: C_9  and  C_10
REMARK    9  A    between atoms: C_11  and  C_12
REMARK   10  A    between atoms: C_12  and  C_13
REMARK   11  A    between atoms: C_15  and  O_17
REMARK   12  A    between atoms: C_19  and  O_21
REMARK   13  A    between atoms: C_22  and  C_24
REMARK   14  A    between atoms: C_25  and  C_26
REMARK   15  A    between atoms: C_26  and  C_29
REMARK   16  A    between atoms: C_29  and  O_30
REMARK   17  A    between atoms: O_30  and  C_31
REMARK                            x       y       z     vdW  Elec       q    Type
REMARK                         _______ _______ _______ _____ _____    ______ ____
ROOT
ATOM      1  C   UNL     1       9.348  -8.297  -0.354  0.00  0.00    +0.031 C 
ATOM      2  C   UNL     1      10.711  -8.262   0.381  0.00  0.00    +0.046 C 
ATOM      3  C   UNL     1      11.616  -9.213  -0.450  0.00  0.00    +0.124 C 
ATOM      4  C   UNL     1      10.745  -9.763  -1.586  0.00  0.00    +0.063 C 
ATOM      5  C   UNL     1       9.707  -8.666  -1.797  0.00  0.00    +0.121 C 
ENDROOT
BRANCH   2   6
ATOM      6  C   UNL     1      10.682  -8.638   1.851  0.00  0.00    -0.019 C 
ATOM      7  C   UNL     1       9.592  -8.949   2.578  0.00  0.00    +0.047 C 
BRANCH   7   8
ATOM      8  C   UNL     1       9.583  -9.329   4.035  0.00  0.00    +0.300 C 
ATOM      9  F   UNL     1      10.189  -8.359   4.770  0.00  0.00    -0.197 F 
ATOM     10  F   UNL     1      10.305 -10.467   4.215  0.00  0.00    -0.197 F 
BRANCH   8  11
ATOM     11  C   UNL     1       8.147  -9.539   4.543  0.00  0.00    +0.308 C 
BRANCH  11  12
ATOM     12  O   UNL     1       8.159  -9.917   5.924  0.00  0.00    -0.486 OA
BRANCH  12  13
ATOM     13  C   UNL     1       6.946 -10.259   6.454  0.00  0.00    +0.121 A 
ATOM     14  C   UNL     1       5.712  -9.728   6.068  0.00  0.00    +0.045 A 
ATOM     15  C   UNL     1       4.543 -10.134   6.720  0.00  0.00    +0.004 A 
ATOM     16  C   UNL     1       4.603 -11.065   7.756  0.00  0.00    +0.000 A 
ATOM     17  C   UNL     1       5.833 -11.589   8.147  0.00  0.00    +0.004 A 
ATOM     18  C   UNL     1       7.001 -11.180   7.501  0.00  0.00    +0.045 A 
ENDBRANCH  12  13
ENDBRANCH  11  12
ENDBRANCH   8  11
ENDBRANCH   7   8
ENDBRANCH   2   6
BRANCH   3  19
ATOM     19  O   UNL     1      12.704  -8.470  -1.006  0.00  0.00    -0.391 OA
ATOM     20  H   UNL     1      12.315  -7.881  -1.687  0.00  0.00    +0.210 HD
ENDBRANCH   3  19
BRANCH   5  21
ATOM     21  O   UNL     1      10.335  -7.613  -2.516  0.00  0.00    -0.391 OA
ATOM     22  H   UNL     1       9.636  -6.990  -2.785  0.00  0.00    +0.210 HD
ENDBRANCH   5  21
BRANCH   1  23
ATOM     23  C   UNL     1       8.463  -7.064  -0.121  0.00  0.00    +0.033 C 
BRANCH  23  25
ATOM     24  C   UNL     1       8.278  -5.073  -1.672  0.00  0.00    -0.031 C 
ATOM     25  C   UNL     1       8.922  -5.765  -0.718  0.00  0.00    -0.031 C 
BRANCH  24  26
ATOM     26  C   UNL     1       6.999  -5.483  -2.345  0.00  0.00    +0.027 C 
BRANCH  26  27
ATOM     27  C   UNL     1       5.761  -5.038  -1.569  0.00  0.00    +0.015 C 
BRANCH  27  28
ATOM     28  C   UNL     1       5.628  -3.518  -1.479  0.00  0.00    +0.121 C 
BRANCH  28  29
ATOM     29  C   UNL     1       4.381  -3.135  -0.724  0.00  0.00    +0.307 C 
ATOM     30  O   UNL     1       3.565  -3.922  -0.268  0.00  0.00    -0.251 OA
BRANCH  29  31
ATOM     31  O   UNL     1       4.310  -1.778  -0.616  0.00  0.00    -0.462 OA
BRANCH  31  33
ATOM     32  C   UNL     1       3.538  -1.344   1.635  0.00  0.00    +0.052 C 
ATOM     33  C   UNL     1       3.198  -1.279   0.149  0.00  0.00    +0.170 C 
ATOM     34  C   UNL     1       2.948   0.159  -0.286  0.00  0.00    +0.052 C 
ENDBRANCH  31  33
ENDBRANCH  29  31
ENDBRANCH  28  29
ENDBRANCH  27  28
ENDBRANCH  26  27
ENDBRANCH  24  26
ENDBRANCH  23  25
ENDBRANCH   1  23
TORSDOF 15
