REMARK  Name = 
REMARK  15 active torsions:
REMARK  status: ('A' for Active; 'I' for Inactive)
REMARK    1  A    between atoms: C_2  and  C_3
REMARK    2  A    between atoms: C_3  and  O_4
REMARK    3  A    between atoms: O_4  and  P_5
REMARK    4  A    between atoms: P_5  and  O_6
REMARK    5  A    between atoms: P_5  and  O_7
REMARK    6  A    between atoms: C_10  and  N_12
REMARK    7  A    between atoms: C_18  and  S_19
REMARK    8  A    between atoms: S_19  and  C_20
REMARK    9  A    between atoms: N_23  and  C_24
REMARK   10  A    between atoms: C_24  and  C_25
REMARK   11  A    between atoms: C_25  and  C_26
REMARK   12  A    between atoms: C_26  and  C_27
REMARK   13  A    between atoms: C_26  and  C_28
REMARK   14  A    between atoms: C_29  and  O_31
REMARK   15  A    between atoms: C_32  and  O_34
REMARK                            x       y       z     vdW  Elec       q    Type
REMARK                         _______ _______ _______ _____ _____    ______ ____
ROOT
ATOM      1  N   UNL     1       4.464   1.339   2.561  0.00  0.00    -0.285 N 
ATOM      2  C   UNL     1       4.385   0.888   3.853  0.00  0.00    +0.169 A 
ATOM      3  N   UNL     1       3.847  -0.265   4.286  0.00  0.00    -0.202 NA
ATOM      4  C   UNL     1       3.993  -0.392   5.632  0.00  0.00    +0.192 A 
ATOM      5  N   UNL     1       4.593   0.476   6.480  0.00  0.00    -0.205 NA
ATOM      6  C   UNL     1       5.101   1.642   6.003  0.00  0.00    +0.151 A 
ATOM      7  N   UNL     1       5.692   2.580   6.863  0.00  0.00    -0.327 N 
ATOM      8  H   UNL     1       6.135   3.314   6.313  0.00  0.00    +0.148 HD
ATOM      9  C   UNL     1       4.992   1.873   4.619  0.00  0.00    +0.148 A 
ATOM     10  N   UNL     1       5.432   2.910   3.821  0.00  0.00    -0.231 NA
ATOM     11  C   UNL     1       5.109   2.549   2.596  0.00  0.00    +0.203 A 
ENDROOT
BRANCH   1  15
ATOM     12  C   UNL     1       3.577   0.906  -0.855  0.00  0.00    +0.178 C 
ATOM     13  C   UNL     1       2.251   0.518  -0.218  0.00  0.00    +0.178 C 
ATOM     14  C   UNL     1       2.593   0.249   1.253  0.00  0.00    +0.195 C 
ATOM     15  C   UNL     1       4.085   0.602   1.370  0.00  0.00    +0.253 C 
ATOM     16  O   UNL     1       4.396   1.398   0.216  0.00  0.00    -0.346 OA
BRANCH  13  17
ATOM     17  O   UNL     1       1.689  -0.615  -0.873  0.00  0.00    -0.386 OA
ATOM     18  H   UNL     1       1.676  -1.333  -0.203  0.00  0.00    +0.210 HD
ENDBRANCH  13  17
BRANCH  14  19
ATOM     19  O   UNL     1       2.320  -1.123   1.572  0.00  0.00    -0.385 OA
ATOM     20  H   UNL     1       2.396  -1.199   2.545  0.00  0.00    +0.210 HD
ENDBRANCH  14  19
BRANCH  12  21
ATOM     21  C   UNL     1       3.439   1.970  -1.942  0.00  0.00    +0.206 C 
BRANCH  21  22
ATOM     22  O   UNL     1       4.745   2.296  -2.401  0.00  0.00    -0.284 OA
BRANCH  22  23
ATOM     23  P   UNL     1       4.884   2.950  -3.846  0.00  0.00    +0.472 P 
ATOM     24  O   UNL     1       4.215   4.259  -4.066  0.00  0.00    -0.228 OA
BRANCH  23  25
ATOM     25  O   UNL     1       4.476   1.768  -4.836  0.00  0.00    -0.303 OA
ATOM     26  H   UNL     1       5.093   1.022  -4.743  0.00  0.00    +0.222 HD
ENDBRANCH  23  25
BRANCH  23  27
ATOM     27  O   UNL     1       6.463   3.004  -4.081  0.00  0.00    -0.303 OA
ATOM     28  H   UNL     1       6.828   3.847  -3.751  0.00  0.00    +0.222 HD
ENDBRANCH  23  27
ENDBRANCH  22  23
ENDBRANCH  21  22
ENDBRANCH  12  21
ENDBRANCH   1  15
BRANCH   4  29
ATOM     29  S   UNL     1       3.276  -1.825   6.411  0.00  0.00    -0.089 S 
ATOM     30  C   UNL     1       3.420  -3.022   5.069  0.00  0.00    +0.093 C 
ENDBRANCH   4  29
BRANCH   7  31
ATOM     31  C   UNL     1       6.518   2.015   7.926  0.00  0.00    +0.103 C 
BRANCH  31  32
ATOM     32  C   UNL     1       7.300   3.140   8.624  0.00  0.00    +0.021 C 
BRANCH  32  33
ATOM     33  C   UNL     1       8.081   2.680   9.872  0.00  0.00    -0.016 C 
ATOM     34  C   UNL     1       8.727   3.883  10.567  0.00  0.00    +0.007 C 
ATOM     35  C   UNL     1       9.158   1.644   9.546  0.00  0.00    +0.007 C 
ENDBRANCH  32  33
ENDBRANCH  31  32
ENDBRANCH   7  31
TORSDOF 12
