REMARK  Name = 
REMARK  7 active torsions:
REMARK  status: ('A' for Active; 'I' for Inactive)
REMARK    1  A    between atoms: C_1  and  O_2
REMARK    2  A    between atoms: O_2  and  C_3
REMARK    3  A    between atoms: C_8  and  C_9
REMARK    4  A    between atoms: C_15  and  C_18
REMARK    5  A    between atoms: C_20  and  C_24
REMARK    6  A    between atoms: N_26  and  C_27
REMARK    7  A    between atoms: N_26  and  C_28
REMARK                            x       y       z     vdW  Elec       q    Type
REMARK                         _______ _______ _______ _____ _____    ______ ____
ROOT
ATOM      1  C   UNL     1       3.693  -1.076  -2.104  0.00  0.00    +0.012 A 
ATOM      2  C   UNL     1       3.283  -2.085  -1.169  0.00  0.00    +0.027 A 
ATOM      3  C   UNL     1       2.757  -2.110   0.136  0.00  0.00    +0.022 A 
ATOM      4  C   UNL     1       2.272  -3.312   0.681  0.00  0.00    +0.002 A 
ATOM      5  C   UNL     1       2.483  -4.459  -0.092  0.00  0.00    +0.121 A 
ATOM      6  N   UNL     1       3.095  -4.531  -1.306  0.00  0.00    -0.237 NA
ATOM      7  C   UNL     1       3.442  -3.323  -1.785  0.00  0.00    +0.139 A 
ATOM      8  N   UNL     1       4.034  -3.108  -2.997  0.00  0.00    -0.345 N 
ATOM      9  H   UNL     1       4.282  -3.849  -3.637  0.00  0.00    +0.167 HD
ATOM     10  C   UNL     1       4.185  -1.761  -3.209  0.00  0.00    +0.093 A 
ENDROOT
BRANCH   1  12
ATOM     11  C   UNL     1       2.592   1.106  -1.382  0.00  0.00    +0.128 A 
ATOM     12  C   UNL     1       3.630   0.395  -2.036  0.00  0.00    +0.026 A 
ATOM     13  C   UNL     1       4.628   1.149  -2.686  0.00  0.00    +0.012 A 
ATOM     14  C   UNL     1       4.617   2.545  -2.676  0.00  0.00    +0.001 A 
ATOM     15  C   UNL     1       3.632   3.227  -1.977  0.00  0.00    +0.004 A 
ATOM     16  C   UNL     1       2.636   2.509  -1.321  0.00  0.00    +0.046 A 
BRANCH  11  18
ATOM     17  C   UNL     1       0.314   1.091  -0.701  0.00  0.00    +0.277 C 
ATOM     18  O   UNL     1       1.553   0.398  -0.828  0.00  0.00    -0.495 OA
ENDBRANCH  11  18
ENDBRANCH   1  12
BRANCH   4  19
ATOM     19  C   UNL     1       1.546  -3.313   1.968  0.00  0.00    +0.002 A 
ATOM     20  C   UNL     1       1.588  -4.360   2.884  0.00  0.00    +0.119 A 
ATOM     21  N   UNL     1       0.990  -4.345   4.105  0.00  0.00    -0.262 NA
ATOM     22  C   UNL     1       0.305  -3.221   4.448  0.00  0.00    +0.123 A 
ATOM     23  C   UNL     1       0.115  -2.146   3.603  0.00  0.00    +0.056 A 
ATOM     24  C   UNL     1       0.762  -2.209   2.357  0.00  0.00    +0.024 A 
BRANCH  23  25
ATOM     25  C   UNL     1      -0.587  -0.881   3.944  0.00  0.00    +0.248 C 
ATOM     26  N   UNL     1      -1.733  -0.810   4.737  0.00  0.00    -0.304 N 
ATOM     27  C   UNL     1      -2.339   0.501   4.932  0.00  0.00    +0.132 C 
ATOM     28  C   UNL     1      -2.476  -1.906   5.354  0.00  0.00    +0.132 C 
ATOM     29  O   UNL     1      -0.104   0.139   3.438  0.00  0.00    -0.270 OA
ENDBRANCH  23  25
ENDBRANCH   4  19
TORSDOF 4
