REMARK  Name = 
REMARK  5 active torsions:
REMARK  status: ('A' for Active; 'I' for Inactive)
REMARK    1  A    between atoms: O_1  and  C_2
REMARK    2  A    between atoms: C_2  and  C_4
REMARK    3  A    between atoms: C_4  and  C_6
REMARK    4  A    between atoms: C_7  and  C_8
REMARK    5  A    between atoms: C_13  and  O_14
REMARK                            x       y       z     vdW  Elec       q    Type
REMARK                         _______ _______ _______ _____ _____    ______ ____
ROOT
ATOM      1  C   UNL     1       4.690  -0.741  -1.207  0.00  0.00    +0.059 C 
ATOM      2  C   UNL     1       5.408  -1.710  -1.794  0.00  0.00    +0.015 C 
ENDROOT
BRANCH   2   3
ATOM      3  C   UNL     1       6.882  -1.717  -1.871  0.00  0.00    +0.017 A 
ATOM      4  C   UNL     1       7.590  -2.928  -1.956  0.00  0.00    +0.124 A 
ATOM      5  C   UNL     1       8.983  -2.947  -2.067  0.00  0.00    +0.046 A 
ATOM      6  C   UNL     1       9.691  -1.747  -2.109  0.00  0.00    +0.004 A 
ATOM      7  C   UNL     1       9.009  -0.536  -2.043  0.00  0.00    +0.001 A 
ATOM      8  C   UNL     1       7.616  -0.521  -1.932  0.00  0.00    +0.011 A 
BRANCH   4   9
ATOM      9  O   UNL     1       6.903  -4.113  -1.926  0.00  0.00    -0.506 OA
ATOM     10  H   UNL     1       7.536  -4.845  -2.011  0.00  0.00    +0.292 HD
ENDBRANCH   4   9
ENDBRANCH   2   3
BRANCH   1  11
ATOM     11  C   UNL     1       3.209  -0.792  -1.200  0.00  0.00    +0.262 C 
ATOM     12  O   UNL     1       2.528  -1.686  -1.690  0.00  0.00    -0.280 OA
BRANCH  11  13
ATOM     13  C   UNL     1       2.474   0.383  -0.550  0.00  0.00    +0.377 C 
ATOM     14  O   UNL     1       3.032   1.328  -0.028  0.00  0.00    -0.241 OA
BRANCH  13  15
ATOM     15  O   UNL     1       1.141   0.216  -0.655  0.00  0.00    -0.475 OA
ATOM     16  H   UNL     1       0.963  -0.633  -1.126  0.00  0.00    +0.296 HD
ENDBRANCH  13  15
ENDBRANCH  11  13
ENDBRANCH   1  11
TORSDOF 5
