REMARK  Name = 
REMARK  6 active torsions:
REMARK  status: ('A' for Active; 'I' for Inactive)
REMARK    1  A    between atoms: C_1  and  O_2
REMARK    2  A    between atoms: C_1  and  C_21
REMARK    3  A    between atoms: O_2  and  C_3
REMARK    4  A    between atoms: C_6  and  C_9
REMARK    5  A    between atoms: C_13  and  C_14
REMARK    6  A    between atoms: C_14  and  C_15
REMARK                            x       y       z     vdW  Elec       q    Type
REMARK                         _______ _______ _______ _____ _____    ______ ____
ROOT
ATOM      1  C   UNL     1      -0.577  -2.491  -0.078  0.00  0.00    +0.121 A 
ATOM      2  C   UNL     1      -1.375  -1.372   0.137  0.00  0.00    +0.046 A 
ATOM      3  C   UNL     1      -2.769  -1.448   0.075  0.00  0.00    +0.013 A 
ATOM      4  C   UNL     1      -3.417  -2.646  -0.216  0.00  0.00    +0.003 A 
ATOM      5  C   UNL     1      -2.605  -3.798  -0.332  0.00  0.00    +0.013 A 
ATOM      6  C   UNL     1      -1.193  -3.723  -0.268  0.00  0.00    +0.046 A 
ENDROOT
BRANCH   4   7
ATOM      7  C   UNL     1      -4.865  -2.671  -0.536  0.00  0.00    +0.096 A 
ATOM      8  C   UNL     1      -5.888  -1.640  -0.452  0.00  0.00    +0.002 A 
ATOM      9  C   UNL     1      -6.997  -2.213  -1.048  0.00  0.00    +0.109 A 
ATOM     10  N   UNL     1      -6.654  -3.483  -1.373  0.00  0.00    -0.284 N 
ATOM     11  H   UNL     1      -7.236  -4.198  -1.797  0.00  0.00    +0.188 HD
ATOM     12  N   UNL     1      -5.392  -3.792  -1.068  0.00  0.00    -0.174 NA
BRANCH   8  13
ATOM     13  C   UNL     1      -5.908  -0.302   0.220  0.00  0.00    +0.074 C 
BRANCH  13  14
ATOM     14  C   UNL     1      -5.877   0.870  -0.744  0.00  0.00    -0.040 A 
ATOM     15  C   UNL     1      -6.334   2.101  -0.237  0.00  0.00    +0.023 A 
ATOM     16  C   UNL     1      -6.382   3.220  -1.061  0.00  0.00    +0.111 A 
ATOM     17  N   UNL     1      -5.963   3.211  -2.339  0.00  0.00    -0.263 NA
ATOM     18  C   UNL     1      -5.472   2.042  -2.804  0.00  0.00    +0.111 A 
ATOM     19  C   UNL     1      -5.402   0.864  -2.058  0.00  0.00    +0.023 A 
ENDBRANCH  13  14
ENDBRANCH   8  13
ENDBRANCH   4   7
BRANCH   1  20
ATOM     20  O   UNL     1       0.761  -2.237  -0.003  0.00  0.00    -0.486 OA
BRANCH  20  21
ATOM     21  C   UNL     1       1.648  -2.978  -0.849  0.00  0.00    +0.284 C 
BRANCH  21  22
ATOM     22  C   UNL     1       3.050  -2.386  -0.705  0.00  0.00    +0.079 A 
ATOM     23  C   UNL     1       3.613  -2.298   0.564  0.00  0.00    +0.027 A 
ATOM     24  C   UNL     1       4.909  -1.815   0.701  0.00  0.00    +0.012 A 
ATOM     25  C   UNL     1       5.632  -1.425  -0.429  0.00  0.00    +0.000 A 
ATOM     26  C   UNL     1       4.993  -1.513  -1.683  0.00  0.00    +0.071 A 
ATOM     27  C   UNL     1       5.726  -1.093  -2.794  0.00  0.00    +0.028 A 
ATOM     28  C   UNL     1       7.048  -0.634  -2.692  0.00  0.00    +0.002 A 
ATOM     29  C   UNL     1       7.669  -0.578  -1.451  0.00  0.00    +0.001 A 
ATOM     30  C   UNL     1       6.958  -0.964  -0.319  0.00  0.00    +0.010 A 
ATOM     31  N   UNL     1       3.729  -1.991  -1.819  0.00  0.00    -0.248 NA
ENDBRANCH  21  22
ENDBRANCH  20  21
ENDBRANCH   1  20
TORSDOF 6
