REMARK  Name = 
REMARK  19 active torsions:
REMARK  status: ('A' for Active; 'I' for Inactive)
REMARK    1  A    between atoms: O_1  and  C_2
REMARK    2  A    between atoms: C_2  and  C_3
REMARK    3  A    between atoms: C_2  and  C_23
REMARK    4  A    between atoms: C_3  and  N_4
REMARK    5  A    between atoms: N_4  and  C_5
REMARK    6  A    between atoms: C_5  and  C_6
REMARK    7  A    between atoms: C_6  and  C_7
REMARK    8  A    between atoms: C_7  and  C_8
REMARK    9  A    between atoms: C_8  and  C_9
REMARK   10  A    between atoms: C_9  and  C_10
REMARK   11  A    between atoms: C_10  and  N_11
REMARK   12  A    between atoms: N_11  and  C_12
REMARK   13  A    between atoms: C_12  and  C_13
REMARK   14  A    between atoms: C_13  and  O_14
REMARK   15  A    between atoms: C_13  and  C_15
REMARK   16  A    between atoms: C_17  and  O_18
REMARK   17  A    between atoms: C_19  and  O_20
REMARK   18  A    between atoms: C_25  and  O_26
REMARK   19  A    between atoms: C_27  and  O_28
REMARK                            x       y       z     vdW  Elec       q    Type
REMARK                         _______ _______ _______ _____ _____    ______ ____
ROOT
ATOM      1  C   UNL     1       2.956   2.620   5.711  0.00  0.00    +0.001 C 
ENDROOT
BRANCH   1   2
ATOM      2  C   UNL     1       2.456   3.884   6.398  0.00  0.00    +0.001 C 
BRANCH   2   3
ATOM      3  C   UNL     1       2.945   3.923   7.846  0.00  0.00    +0.015 C 
BRANCH   3   4
ATOM      4  C   UNL     1       2.432   5.173   8.549  0.00  0.00    +0.081 C 
BRANCH   4   5
ATOM      5  N   UNL     1       2.878   5.172   9.938  0.00  0.00    -0.313 NA
ATOM      6  H   UNL     1       3.896   5.116   9.997  0.00  0.00    +0.122 HD
BRANCH   5   7
ATOM      7  C   UNL     1       2.421   6.391  10.617  0.00  0.00    +0.117 C 
BRANCH   7   8
ATOM      8  C   UNL     1       2.938   6.471  12.073  0.00  0.00    +0.158 C 
BRANCH   8   9
ATOM      9  C   UNL     1       2.390   7.697  12.774  0.00  0.00    -0.014 A 
ATOM     10  C   UNL     1       2.627   8.995  12.274  0.00  0.00    +0.010 A 
ATOM     11  C   UNL     1       2.044  10.111  12.876  0.00  0.00    +0.049 A 
ATOM     12  C   UNL     1       1.232   9.934  13.984  0.00  0.00    +0.158 A 
ATOM     13  C   UNL     1       1.005   8.664  14.507  0.00  0.00    +0.159 A 
ATOM     14  C   UNL     1       1.581   7.546  13.912  0.00  0.00    +0.055 A 
BRANCH  13  15
ATOM     15  O   UNL     1       0.192   8.564  15.602  0.00  0.00    -0.503 OA
ATOM     16  H   UNL     1       0.146   7.628  15.858  0.00  0.00    +0.292 HD
ENDBRANCH  13  15
BRANCH  12  17
ATOM     17  O   UNL     1       0.644  11.024  14.557  0.00  0.00    -0.503 OA
ATOM     18  H   UNL     1       0.124  10.657  15.299  0.00  0.00    +0.292 HD
ENDBRANCH  12  17
ENDBRANCH   8   9
BRANCH   8  19
ATOM     19  O   UNL     1       4.368   6.495  12.102  0.00  0.00    -0.386 OA
ATOM     20  H   UNL     1       4.661   7.239  11.554  0.00  0.00    +0.210 HD
ENDBRANCH   8  19
ENDBRANCH   7   8
ENDBRANCH   5   7
ENDBRANCH   4   5
ENDBRANCH   3   4
ENDBRANCH   2   3
ENDBRANCH   1   2
BRANCH   1  21
ATOM     21  C   UNL     1       2.450   2.518   4.271  0.00  0.00    +0.015 C 
BRANCH  21  22
ATOM     22  C   UNL     1       2.944   1.255   3.559  0.00  0.00    +0.081 C 
BRANCH  22  23
ATOM     23  N   UNL     1       2.486   0.057   4.266  0.00  0.00    -0.313 NA
ATOM     24  H   UNL     1       2.905   0.059   5.196  0.00  0.00    +0.122 HD
BRANCH  23  25
ATOM     25  C   UNL     1       2.951  -1.166   3.593  0.00  0.00    +0.117 C 
BRANCH  25  26
ATOM     26  C   UNL     1       2.450  -2.420   4.347  0.00  0.00    +0.158 C 
BRANCH  26  27
ATOM     27  C   UNL     1       2.979  -3.676   3.694  0.00  0.00    -0.014 A 
ATOM     28  C   UNL     1       2.277  -4.244   2.613  0.00  0.00    +0.010 A 
ATOM     29  C   UNL     1       2.778  -5.362   1.946  0.00  0.00    +0.049 A 
ATOM     30  C   UNL     1       3.983  -5.909   2.355  0.00  0.00    +0.158 A 
ATOM     31  C   UNL     1       4.686  -5.365   3.427  0.00  0.00    +0.159 A 
ATOM     32  C   UNL     1       4.193  -4.254   4.100  0.00  0.00    +0.055 A 
BRANCH  30  33
ATOM     33  O   UNL     1       4.486  -6.989   1.689  0.00  0.00    -0.503 OA
ATOM     34  H   UNL     1       5.333  -7.177   2.141  0.00  0.00    +0.292 HD
ENDBRANCH  30  33
BRANCH  31  35
ATOM     35  O   UNL     1       5.869  -5.954   3.779  0.00  0.00    -0.503 OA
ATOM     36  H   UNL     1       6.212  -5.484   4.560  0.00  0.00    +0.292 HD
ENDBRANCH  31  35
ENDBRANCH  26  27
BRANCH  26  37
ATOM     37  O   UNL     1       2.876  -2.361   5.715  0.00  0.00    -0.386 OA
ATOM     38  H   UNL     1       2.303  -1.693   6.130  0.00  0.00    +0.210 HD
ENDBRANCH  26  37
ENDBRANCH  25  26
ENDBRANCH  23  25
ENDBRANCH  22  23
ENDBRANCH  21  22
ENDBRANCH   1  21
TORSDOF 19
