REMARK  Name = 
REMARK  16 active torsions:
REMARK  status: ('A' for Active; 'I' for Inactive)
REMARK    1  A    between atoms: C_2  and  C_3
REMARK    2  A    between atoms: C_2  and  O_7
REMARK    3  A    between atoms: C_2  and  C_19
REMARK    4  A    between atoms: C_3  and  C_4
REMARK    5  A    between atoms: C_4  and  O_5
REMARK    6  A    between atoms: O_7  and  C_8
REMARK    7  A    between atoms: C_8  and  C_10
REMARK    8  A    between atoms: C_11  and  C_12
REMARK    9  A    between atoms: C_15  and  O_16
REMARK   10  A    between atoms: C_19  and  O_21
REMARK   11  A    between atoms: C_19  and  C_33
REMARK   12  A    between atoms: O_21  and  C_22
REMARK   13  A    between atoms: C_22  and  C_24
REMARK   14  A    between atoms: C_25  and  C_26
REMARK   15  A    between atoms: C_29  and  O_30
REMARK   16  A    between atoms: C_33  and  O_34
REMARK                            x       y       z     vdW  Elec       q    Type
REMARK                         _______ _______ _______ _____ _____    ______ ____
ROOT
ATOM      1  C   UNL     1       2.210  -0.237  -0.013  0.00  0.00    +0.239 C 
ENDROOT
BRANCH   1   2
ATOM      2  O   UNL     1       2.845   0.300  -1.199  0.00  0.00    -0.453 OA
BRANCH   2   3
ATOM      3  C   UNL     1       2.349  -0.104  -2.393  0.00  0.00    +0.332 C 
ATOM      4  O   UNL     1       1.288  -0.680  -2.565  0.00  0.00    -0.246 OA
BRANCH   3   5
ATOM      5  C   UNL     1       3.349   0.203  -3.430  0.00  0.00    +0.092 C 
ATOM      6  C   UNL     1       3.189  -0.280  -4.670  0.00  0.00    +0.015 C 
BRANCH   6   7
ATOM      7  C   UNL     1       4.094   0.024  -5.785  0.00  0.00    -0.025 A 
ATOM      8  C   UNL     1       3.544   0.157  -7.067  0.00  0.00    +0.011 A 
ATOM      9  C   UNL     1       4.345   0.524  -8.150  0.00  0.00    +0.046 A 
ATOM     10  C   UNL     1       5.702   0.747  -7.956  0.00  0.00    +0.117 A 
ATOM     11  C   UNL     1       6.281   0.561  -6.705  0.00  0.00    +0.046 A 
ATOM     12  C   UNL     1       5.478   0.189  -5.622  0.00  0.00    +0.011 A 
BRANCH  10  13
ATOM     13  O   UNL     1       6.436   1.161  -9.027  0.00  0.00    -0.507 OA
ATOM     14  H   UNL     1       7.322   1.408  -8.715  0.00  0.00    +0.292 HD
ENDBRANCH  10  13
ENDBRANCH   6   7
ENDBRANCH   3   5
ENDBRANCH   2   3
ENDBRANCH   1   2
BRANCH   1  15
ATOM     15  C   UNL     1       2.532  -1.740   0.075  0.00  0.00    +0.169 C 
BRANCH  15  16
ATOM     16  C   UNL     1       4.015  -1.995   0.109  0.00  0.00    +0.308 C 
ATOM     17  O   UNL     1       4.718  -2.043  -0.890  0.00  0.00    -0.251 OA
BRANCH  16  18
ATOM     18  O   UNL     1       4.521  -2.115   1.357  0.00  0.00    -0.481 OA
ATOM     19  H   UNL     1       3.859  -2.065   2.090  0.00  0.00    +0.295 HD
ENDBRANCH  16  18
ENDBRANCH  15  16
ENDBRANCH   1  15
BRANCH   1  20
ATOM     20  C   UNL     1       2.683   0.616   1.188  0.00  0.00    +0.325 C 
BRANCH  20  21
ATOM     21  C   UNL     1       2.218   0.018   2.509  0.00  0.00    +0.350 C 
ATOM     22  O   UNL     1       2.582  -1.083   2.908  0.00  0.00    -0.247 OA
BRANCH  21  23
ATOM     23  O   UNL     1       1.371   0.799   3.216  0.00  0.00    -0.478 OA
ATOM     24  H   UNL     1       1.215   1.655   2.763  0.00  0.00    +0.295 HD
ENDBRANCH  21  23
ENDBRANCH  20  21
BRANCH  20  25
ATOM     25  O   UNL     1       2.113   1.957   1.098  0.00  0.00    -0.443 OA
BRANCH  25  26
ATOM     26  C   UNL     1       2.888   2.873   0.458  0.00  0.00    +0.333 C 
ATOM     27  O   UNL     1       4.012   2.697   0.027  0.00  0.00    -0.246 OA
BRANCH  26  28
ATOM     28  C   UNL     1       2.127   4.136   0.361  0.00  0.00    +0.092 C 
ATOM     29  C   UNL     1       2.574   5.117  -0.438  0.00  0.00    +0.015 C 
BRANCH  29  30
ATOM     30  C   UNL     1       1.861   6.383  -0.662  0.00  0.00    -0.025 A 
ATOM     31  C   UNL     1       1.942   6.985  -1.926  0.00  0.00    +0.011 A 
ATOM     32  C   UNL     1       1.267   8.179  -2.191  0.00  0.00    +0.046 A 
ATOM     33  C   UNL     1       0.517   8.782  -1.190  0.00  0.00    +0.117 A 
ATOM     34  C   UNL     1       0.448   8.223   0.080  0.00  0.00    +0.046 A 
ATOM     35  C   UNL     1       1.127   7.028   0.345  0.00  0.00    +0.011 A 
BRANCH  33  36
ATOM     36  O   UNL     1      -0.143   9.934  -1.498  0.00  0.00    -0.507 OA
ATOM     37  H   UNL     1      -0.656  10.218  -0.724  0.00  0.00    +0.292 HD
ENDBRANCH  33  36
ENDBRANCH  29  30
ENDBRANCH  26  28
ENDBRANCH  25  26
ENDBRANCH  20  25
ENDBRANCH   1  20
TORSDOF 16
