REMARK  Name = 
REMARK  34 active torsions:
REMARK  status: ('A' for Active; 'I' for Inactive)
REMARK    1  A    between atoms: C_1  and  C_2
REMARK    2  A    between atoms: C_2  and  C_3
REMARK    3  A    between atoms: C_6  and  C_7
REMARK    4  A    between atoms: C_8  and  O_10
REMARK    5  A    between atoms: C_15  and  C_16
REMARK    6  A    between atoms: C_16  and  O_17
REMARK    7  A    between atoms: O_17  and  C_18
REMARK    8  A    between atoms: C_21  and  C_23
REMARK    9  A    between atoms: C_24  and  O_26
REMARK   10  A    between atoms: O_26  and  C_27
REMARK   11  A    between atoms: C_27  and  C_29
REMARK   12  A    between atoms: C_30  and  C_31
REMARK   13  A    between atoms: C_31  and  C_32
REMARK   14  A    between atoms: C_35  and  O_36
REMARK   15  A    between atoms: C_39  and  O_40
REMARK   16  A    between atoms: C_41  and  O_43
REMARK   17  A    between atoms: C_44  and  O_46
REMARK   18  A    between atoms: O_46  and  C_47
REMARK   19  A    between atoms: C_51  and  C_82
REMARK   20  A    between atoms: C_54  and  C_55
REMARK   21  A    between atoms: C_57  and  C_58
REMARK   22  A    between atoms: C_59  and  O_61
REMARK   23  A    between atoms: O_61  and  C_62
REMARK   24  A    between atoms: C_65  and  C_66
REMARK   25  A    between atoms: C_65  and  C_67
REMARK   26  A    between atoms: C_68  and  O_70
REMARK   27  A    between atoms: O_70  and  C_71
REMARK   28  A    between atoms: C_71  and  C_73
REMARK   29  A    between atoms: C_73  and  C_74
REMARK   30  A    between atoms: C_73  and  C_75
REMARK   31  A    between atoms: C_76  and  O_78
REMARK   32  A    between atoms: C_79  and  O_81
REMARK   33  A    between atoms: C_82  and  C_84
REMARK   34  A    between atoms: C_82  and  O_85
REMARK                            x       y       z     vdW  Elec       q    Type
REMARK                         _______ _______ _______ _____ _____    ______ ____
ROOT
ATOM      1  C   UNL     1      19.700  11.670  13.885  0.00  0.00    +0.045 C 
ATOM      2  C   UNL     1      18.873  13.163  14.744  0.00  0.00    +0.154 C 
ATOM      3  C   UNL     1      19.099  13.497  16.754  0.00  0.00    -0.043 C 
ATOM      4  C   UNL     1      18.780  12.151  17.515  0.00  0.00    +0.042 C 
ATOM      5  C   UNL     1      19.622  14.453  18.026  0.00  0.00    +0.004 C 
ATOM      6  C   UNL     1      20.302  15.004  19.710  0.00  0.00    -0.054 C 
ATOM      7  C   UNL     1      20.910  14.171  20.922  0.00  0.00    +0.043 C 
ATOM      8  C   UNL     1      20.111  16.285  20.370  0.00  0.00    -0.020 C 
ATOM      9  C   UNL     1      20.952  17.265  21.625  0.00  0.00    +0.074 C 
ATOM     10  C   UNL     1      20.903  18.945  21.549  0.00  0.00    +0.209 C 
ATOM     11  O   UNL     1      21.308  19.232  20.215  0.00  0.00    -0.455 OA
ATOM     12  C   UNL     1      20.366  18.953  19.303  0.00  0.00    +0.338 C 
ATOM     13  O   UNL     1      19.161  18.972  19.475  0.00  0.00    -0.245 OA
ATOM     14  C   UNL     1      21.102  18.275  18.257  0.00  0.00    +0.062 C 
ATOM     15  C   UNL     1      20.570  17.200  17.684  0.00  0.00    +0.012 C 
ATOM     16  C   UNL     1      21.455  16.340  16.975  0.00  0.00    -0.004 C 
ATOM     17  C   UNL     1      21.048  15.618  15.957  0.00  0.00    -0.024 C 
ATOM     18  C   UNL     1      22.061  14.797  15.280  0.00  0.00    +0.063 C 
ATOM     19  C   UNL     1      21.958  13.317  15.608  0.00  0.00    +0.144 C 
ATOM     20  C   UNL     1      21.793  12.504  14.383  0.00  0.00    -0.048 C 
ATOM     21  C   UNL     1      21.924  13.303  13.058  0.00  0.00    +0.041 C 
ATOM     22  C   UNL     1      20.944  11.485  14.627  0.00  0.00    -0.019 C 
ENDROOT
BRANCH  19  23
ATOM     23  O   UNL     1      22.788  12.688  16.562  0.00  0.00    -0.387 OA
ATOM     24  H   UNL     1      22.232  11.972  16.942  0.00  0.00    +0.210 HD
ENDBRANCH  19  23
BRANCH   1  26
ATOM     25  C   UNL     1      22.088  10.662  12.148  0.00  0.00    +0.004 C 
ATOM     26  C   UNL     1      20.430  10.996  12.413  0.00  0.00    +0.007 C 
ENDBRANCH   1  26
BRANCH  10  27
ATOM     27  C   UNL     1      21.771  20.071  22.293  0.00  0.00    +0.152 C 
ATOM     28  C   UNL     1      21.381  20.576  23.681  0.00  0.00    +0.041 C 
BRANCH  27  29
ATOM     29  O   UNL     1      23.182  19.840  22.271  0.00  0.00    -0.388 OA
ATOM     30  H   UNL     1      23.512  20.215  21.430  0.00  0.00    +0.210 HD
ENDBRANCH  27  29
ENDBRANCH  10  27
BRANCH  14  31
ATOM     31  C   UNL     1      22.430  18.757  17.845  0.00  0.00    +0.205 C 
BRANCH  31  32
ATOM     32  O   UNL     1      22.226  18.847  16.439  0.00  0.00    -0.344 OA
BRANCH  32  33
ATOM     33  C   UNL     1      23.387  18.871  15.655  0.00  0.00    +0.282 C 
ATOM     34  C   UNL     1      23.813  20.340  15.614  0.00  0.00    +0.206 C 
ATOM     35  C   UNL     1      25.118  20.423  14.831  0.00  0.00    +0.191 C 
ATOM     36  C   UNL     1      26.186  19.512  15.524  0.00  0.00    +0.236 C 
ATOM     37  C   UNL     1      25.629  18.056  15.442  0.00  0.00    +0.162 C 
ATOM     38  C   UNL     1      26.544  17.033  16.088  0.00  0.00    +0.042 C 
ATOM     39  O   UNL     1      24.373  17.958  16.128  0.00  0.00    -0.342 OA
BRANCH  35  40
ATOM     40  O   UNL     1      25.545  21.789  14.673  0.00  0.00    -0.385 OA
ATOM     41  H   UNL     1      26.433  21.782  14.465  0.00  0.00    +0.210 HD
ENDBRANCH  35  40
BRANCH  34  42
ATOM     42  O   UNL     1      24.011  20.801  16.971  0.00  0.00    -0.372 OA
ATOM     43  C   UNL     1      23.898  22.201  17.137  0.00  0.00    +0.194 C 
ENDBRANCH  34  42
BRANCH  36  44
ATOM     44  O   UNL     1      27.566  19.726  15.056  0.00  0.00    -0.452 OA
BRANCH  44  45
ATOM     45  C   UNL     1      27.787  19.531  13.718  0.00  0.00    +0.344 C 
ATOM     46  O   UNL     1      26.858  19.396  12.937  0.00  0.00    -0.245 OA
BRANCH  45  47
ATOM     47  C   UNL     1      29.212  19.721  13.388  0.00  0.00    +0.106 A 
ATOM     48  C   UNL     1      30.002  20.669  14.085  0.00  0.00    +0.153 A 
ATOM     49  C   UNL     1      31.241  21.055  13.566  0.00  0.00    +0.126 A 
ATOM     50 CL   UNL     1      32.110  22.337  14.341  0.00  0.00    -0.076 Cl
ATOM     51  C   UNL     1      31.717  20.473  12.394  0.00  0.00    +0.157 A 
ATOM     52  C   UNL     1      30.996  19.457  11.753  0.00  0.00    +0.088 A 
ATOM     53 CL   UNL     1      31.712  18.718  10.361  0.00  0.00    -0.079 Cl
ATOM     54  C   UNL     1      29.719  19.074  12.225  0.00  0.00    -0.008 A 
BRANCH  54  55
ATOM     55  C   UNL     1      28.965  17.942  11.532  0.00  0.00    +0.034 C 
ATOM     56  C   UNL     1      29.392  16.568  12.025  0.00  0.00    +0.009 C 
ENDBRANCH  54  55
BRANCH  51  57
ATOM     57  O   UNL     1      32.912  20.905  11.876  0.00  0.00    -0.504 OA
ATOM     58  H   UNL     1      33.115  20.361  11.091  0.00  0.00    +0.292 HD
ENDBRANCH  51  57
BRANCH  48  59
ATOM     59  O   UNL     1      29.573  21.225  15.256  0.00  0.00    -0.504 OA
ATOM     60  H   UNL     1      30.312  21.728  15.649  0.00  0.00    +0.292 HD
ENDBRANCH  48  59
ENDBRANCH  45  47
ENDBRANCH  44  45
ENDBRANCH  36  44
ENDBRANCH  32  33
ENDBRANCH  31  32
ENDBRANCH  14  31
BRANCH   2  61
ATOM     61  O   UNL     1      18.446  14.205  13.299  0.00  0.00    -0.341 OA
BRANCH  61  62
ATOM     62  C   UNL     1      17.758  13.818  11.634  0.00  0.00    +0.283 C 
ATOM     63  C   UNL     1      16.220  13.671  11.645  0.00  0.00    +0.202 C 
ATOM     64  C   UNL     1      15.548  13.145  10.289  0.00  0.00    +0.191 C 
ATOM     65  C   UNL     1      15.373  14.211   9.199  0.00  0.00    +0.239 C 
ATOM     66  C   UNL     1      16.808  14.656   8.790  0.00  0.00    +0.106 C 
ATOM     67  C   UNL     1      16.501  16.005   7.917  0.00  0.00    +0.045 C 
ATOM     68  C   UNL     1      17.333  13.772   7.586  0.00  0.00    +0.045 C 
ATOM     69  O   UNL     1      17.844  14.809  10.158  0.00  0.00    -0.339 OA
BRANCH  64  70
ATOM     70  O   UNL     1      14.232  12.689  10.628  0.00  0.00    -0.385 OA
ATOM     71  H   UNL     1      13.688  12.762   9.823  0.00  0.00    +0.210 HD
ENDBRANCH  64  70
BRANCH  63  72
ATOM     72  O   UNL     1      15.693  14.990  11.934  0.00  0.00    -0.384 OA
ATOM     73  H   UNL     1      14.755  15.008  11.687  0.00  0.00    +0.210 HD
ENDBRANCH  63  72
BRANCH  65  74
ATOM     74  O   UNL     1      14.280  13.953   8.084  0.00  0.00    -0.456 OA
BRANCH  74  75
ATOM     75  C   UNL     1      14.000  12.799   7.410  0.00  0.00    +0.310 C 
ATOM     76  O   UNL     1      14.683  11.796   7.593  0.00  0.00    -0.251 OA
BRANCH  75  77
ATOM     77  C   UNL     1      12.743  12.733   6.446  0.00  0.00    +0.092 C 
ATOM     78  C   UNL     1      11.968  13.980   6.016  0.00  0.00    +0.019 C 
ATOM     79  C   UNL     1      11.698  11.705   6.926  0.00  0.00    +0.019 C 
ENDBRANCH  75  77
ENDBRANCH  74  75
ENDBRANCH  65  74
ENDBRANCH  61  62
ENDBRANCH   2  61
TORSDOF 22
