REMARK  Name = 
REMARK  10 active torsions:
REMARK  status: ('A' for Active; 'I' for Inactive)
REMARK    1  A    between atoms: C_2  and  C_17
REMARK    2  A    between atoms: C_4  and  C_6
REMARK    3  A    between atoms: C_6  and  O_7
REMARK    4  A    between atoms: C_8  and  O_10
REMARK    5  A    between atoms: C_11  and  O_13
REMARK    6  A    between atoms: C_14  and  O_16
REMARK    7  A    between atoms: C_20  and  C_21
REMARK    8  A    between atoms: C_22  and  C_23
REMARK    9  A    between atoms: C_23  and  C_24
REMARK   10  A    between atoms: C_27  and  C_29
REMARK                            x       y       z     vdW  Elec       q    Type
REMARK                         _______ _______ _______ _____ _____    ______ ____
ROOT
ATOM      1  C   UNL     1       2.393   0.478   1.367  0.00  0.00    -0.016 A 
ATOM      2  C   UNL     1       2.951  -0.546   2.156  0.00  0.00    +0.010 A 
ATOM      3  C   UNL     1       3.539  -0.283   3.414  0.00  0.00    -0.039 A 
ATOM      4  C   UNL     1       3.521   1.035   3.913  0.00  0.00    -0.047 A 
ATOM      5  C   UNL     1       4.191   1.403   5.209  0.00  0.00    +0.044 C 
ATOM      6  C   UNL     1       2.918   2.045   3.149  0.00  0.00    +0.004 A 
ATOM      7  C   UNL     1       2.364   1.772   1.895  0.00  0.00    +0.006 A 
ENDROOT
BRANCH   1   8
ATOM      8  C   UNL     1       1.866   0.179  -0.034  0.00  0.00    +0.180 C 
ATOM      9  C   UNL     1       0.379  -0.250  -0.032  0.00  0.00    +0.179 C 
ATOM     10  C   UNL     1      -0.135  -0.376  -1.479  0.00  0.00    +0.177 C 
ATOM     11  C   UNL     1       0.198   0.854  -2.325  0.00  0.00    +0.176 C 
ATOM     12  C   UNL     1       1.703   1.134  -2.227  0.00  0.00    +0.175 C 
ATOM     13  O   UNL     1       2.082   1.339  -0.864  0.00  0.00    -0.361 OA
BRANCH   9  14
ATOM     14  O   UNL     1       0.237  -1.506   0.657  0.00  0.00    -0.386 OA
ATOM     15  H   UNL     1       0.064  -2.201  -0.001  0.00  0.00    +0.210 HD
ENDBRANCH   9  14
BRANCH  10  16
ATOM     16  O   UNL     1      -1.552  -0.594  -1.499  0.00  0.00    -0.386 OA
ATOM     17  H   UNL     1      -1.821  -0.440  -2.428  0.00  0.00    +0.210 HD
ENDBRANCH  10  16
BRANCH  11  18
ATOM     18  O   UNL     1      -0.234   0.576  -3.665  0.00  0.00    -0.386 OA
ATOM     19  H   UNL     1       0.265   1.185  -4.254  0.00  0.00    +0.210 HD
ENDBRANCH  11  18
BRANCH  12  20
ATOM     20  C   UNL     1       2.091   2.372  -3.048  0.00  0.00    +0.190 C 
BRANCH  20  21
ATOM     21  O   UNL     1       1.770   2.168  -4.424  0.00  0.00    -0.392 OA
ATOM     22  H   UNL     1       2.388   2.714  -4.944  0.00  0.00    +0.210 HD
ENDBRANCH  20  21
ENDBRANCH  12  20
ENDBRANCH   1   8
BRANCH   3  23
ATOM     23  C   UNL     1       4.271  -1.401   4.133  0.00  0.00    +0.077 C 
BRANCH  23  24
ATOM     24  C   UNL     1       3.536  -2.126   5.227  0.00  0.00    -0.005 A 
ATOM     25  S   UNL     1       4.448  -2.742   6.542  0.00  0.00    -0.093 S 
ATOM     26  C   UNL     1       3.163  -3.744   7.091  0.00  0.00    +0.020 A 
ATOM     27  C   UNL     1       1.995  -3.410   6.423  0.00  0.00    +0.016 A 
ATOM     28  C   UNL     1       2.209  -2.486   5.347  0.00  0.00    +0.012 A 
BRANCH  26  29
ATOM     29  C   UNL     1       3.406  -4.784   8.115  0.00  0.00    -0.011 A 
ATOM     30  C   UNL     1       2.366  -5.247   8.941  0.00  0.00    +0.012 A 
ATOM     31  C   UNL     1       2.582  -6.292   9.848  0.00  0.00    +0.039 A 
ATOM     32  C   UNL     1       3.831  -6.887   9.936  0.00  0.00    +0.123 A 
ATOM     33  F   UNL     1       4.034  -7.892  10.799  0.00  0.00    -0.205 F 
ATOM     34  C   UNL     1       4.883  -6.441   9.152  0.00  0.00    +0.039 A 
ATOM     35  C   UNL     1       4.664  -5.401   8.241  0.00  0.00    +0.012 A 
ENDBRANCH  26  29
ENDBRANCH  23  24
ENDBRANCH   3  23
TORSDOF 9
