REMARK  Name = 
REMARK  2 active torsions:
REMARK  status: ('A' for Active; 'I' for Inactive)
REMARK    1  A    between atoms: C_6  and  C_8
REMARK    2  A    between atoms: C_11  and  C_17
REMARK                            x       y       z     vdW  Elec       q    Type
REMARK                         _______ _______ _______ _____ _____    ______ ____
ROOT
ATOM      1  C   UNL     1       5.155  -2.415   0.231  0.00  0.00    +0.001 A 
ATOM      2  C   UNL     1       6.586  -2.522   0.071  0.00  0.00    +0.012 A 
ATOM      3  C   UNL     1       7.309  -3.741   0.018  0.00  0.00    +0.032 A 
ATOM      4  C   UNL     1       6.503  -4.886   0.109  0.00  0.00    +0.114 A 
ATOM      5  C   UNL     1       5.077  -4.771   0.258  0.00  0.00    +0.050 A 
ATOM      6  C   UNL     1       4.586  -6.052   0.275  0.00  0.00    +0.175 A 
ATOM      7  O   UNL     1       5.658  -6.899   0.180  0.00  0.00    -0.353 OA
ATOM      8  N   UNL     1       6.839  -6.185   0.077  0.00  0.00    -0.078 NA
ATOM      9  C   UNL     1       4.351  -3.583   0.351  0.00  0.00    +0.024 A 
ENDROOT
BRANCH   1  15
ATOM     10  N   UNL     1       1.318   0.092  -0.876  0.00  0.00    -0.327 N 
ATOM     11  H   UNL     1       0.890  -0.812  -0.743  0.00  0.00    +0.145 HD
ATOM     12  H   UNL     1       0.819   0.900  -0.535  0.00  0.00    +0.145 HD
ATOM     13  C   UNL     1       2.597   0.088  -0.363  0.00  0.00    +0.213 A 
ATOM     14  N   UNL     1       3.230  -1.084  -0.283  0.00  0.00    -0.215 NA
ATOM     15  C   UNL     1       4.485  -1.090   0.224  0.00  0.00    +0.076 A 
ATOM     16  C   UNL     1       5.079   0.068   0.685  0.00  0.00    +0.048 A 
ATOM     17  C   UNL     1       4.334   1.216   0.575  0.00  0.00    +0.116 A 
ATOM     18  N   UNL     1       3.094   1.251   0.059  0.00  0.00    -0.223 NA
ENDBRANCH   1  15
BRANCH   6  19
ATOM     19  C   UNL     1       3.281  -6.701   0.337  0.00  0.00    +0.021 A 
ATOM     20  C   UNL     1       3.132  -7.952   0.957  0.00  0.00    +0.013 A 
ATOM     21  C   UNL     1       1.881  -8.575   1.029  0.00  0.00    +0.021 A 
ATOM     22  C   UNL     1       0.765  -7.950   0.480  0.00  0.00    +0.041 A 
ATOM     23 CL   UNL     1      -0.777  -8.707   0.578  0.00  0.00    -0.084 Cl
ATOM     24  C   UNL     1       0.892  -6.717  -0.152  0.00  0.00    +0.021 A 
ATOM     25  C   UNL     1       2.145  -6.101  -0.229  0.00  0.00    +0.013 A 
ENDBRANCH   6  19
TORSDOF 2
