REMARK  Name = 
REMARK  14 active torsions:
REMARK  status: ('A' for Active; 'I' for Inactive)
REMARK    1  A    between atoms: C_1  and  O_2
REMARK    2  A    between atoms: O_2  and  C_3
REMARK    3  A    between atoms: C_5  and  N_6
REMARK    4  A    between atoms: C_7  and  O_8
REMARK    5  A    between atoms: O_8  and  C_9
REMARK    6  A    between atoms: C_10  and  C_11
REMARK    7  A    between atoms: C_11  and  C_12
REMARK    8  A    between atoms: C_12  and  O_13
REMARK    9  A    between atoms: O_13  and  C_14
REMARK   10  A    between atoms: C_14  and  C_16
REMARK   11  A    between atoms: C_17  and  O_18
REMARK   12  A    between atoms: C_20  and  O_21
REMARK   13  A    between atoms: C_25  and  O_26
REMARK   14  A    between atoms: O_26  and  C_27
REMARK                            x       y       z     vdW  Elec       q    Type
REMARK                         _______ _______ _______ _____ _____    ______ ____
ROOT
ATOM      1  C   UNL     1       6.207   2.085   2.208  0.00  0.00    +0.084 C 
ENDROOT
BRANCH   1   4
ATOM      2  C   UNL     1       3.045   1.187   0.268  0.00  0.00    +0.164 A 
ATOM      3  C   UNL     1       4.260   1.104   0.960  0.00  0.00    +0.168 A 
ATOM      4  C   UNL     1       4.897   2.296   1.435  0.00  0.00    +0.044 A 
ATOM      5  C   UNL     1       4.299   3.568   1.187  0.00  0.00    +0.148 A 
ATOM      6  C   UNL     1       3.110   3.643   0.427  0.00  0.00    +0.071 A 
ATOM      7  C   UNL     1       2.498   2.447   0.024  0.00  0.00    +0.075 A 
BRANCH   6   8
ATOM      8  N   UNL     1       2.340   4.804   0.199  0.00  0.00    -0.355 N 
ATOM      9  H   UNL     1       2.873   5.640   0.016  0.00  0.00    +0.142 HD
ATOM     10  H   UNL     1       1.642   4.688  -0.528  0.00  0.00    +0.142 HD
ENDBRANCH   6   8
BRANCH   2  12
ATOM     11  C   UNL     1       1.027   0.106  -0.393  0.00  0.00    +0.277 C 
ATOM     12  O   UNL     1       2.435   0.047  -0.187  0.00  0.00    -0.491 OA
ENDBRANCH   2  12
BRANCH   3  13
ATOM     13  O   UNL     1       4.935  -0.054   1.283  0.00  0.00    -0.491 OA
ATOM     14  C   UNL     1       4.429  -1.312   0.862  0.00  0.00    +0.277 C 
ENDBRANCH   3  13
BRANCH   5  15
ATOM     15  O   UNL     1       4.968   4.617   1.755  0.00  0.00    -0.493 OA
ATOM     16  C   UNL     1       4.594   5.961   1.530  0.00  0.00    +0.277 C 
ENDBRANCH   5  15
ENDBRANCH   1   4
BRANCH   1  17
ATOM     17  C   UNL     1       7.020   3.263   2.750  0.00  0.00    +0.237 C 
BRANCH  17  18
ATOM     18  O   UNL     1       8.214   2.793   3.419  0.00  0.00    -0.461 OA
BRANCH  18  19
ATOM     19  C   UNL     1       9.294   2.581   2.627  0.00  0.00    +0.343 C 
ATOM     20  O   UNL     1       9.340   2.693   1.413  0.00  0.00    -0.245 OA
BRANCH  19  21
ATOM     21  C   UNL     1      10.485   2.192   3.424  0.00  0.00    +0.102 A 
ATOM     22  C   UNL     1      10.435   2.114   4.824  0.00  0.00    +0.042 A 
ATOM     23  C   UNL     1      11.576   1.754   5.544  0.00  0.00    +0.083 A 
ATOM     24 CL   UNL     1      11.467   1.671   7.265  0.00  0.00    -0.080 Cl
ATOM     25  C   UNL     1      12.772   1.472   4.876  0.00  0.00    +0.139 A 
ATOM     26  C   UNL     1      12.833   1.550   3.486  0.00  0.00    +0.093 A 
ATOM     27  C   UNL     1      11.693   1.908   2.766  0.00  0.00    +0.134 A 
BRANCH  25  28
ATOM     28  O   UNL     1      13.886   1.119   5.588  0.00  0.00    -0.505 OA
ATOM     29  H   UNL     1      14.617   0.936   4.975  0.00  0.00    +0.292 HD
ENDBRANCH  25  28
BRANCH  27  30
ATOM     30  O   UNL     1      11.844   1.958   1.404  0.00  0.00    -0.506 OA
ATOM     31  H   UNL     1      10.988   2.222   0.998  0.00  0.00    +0.292 HD
ENDBRANCH  27  30
ENDBRANCH  19  21
ENDBRANCH  18  19
ENDBRANCH  17  18
ENDBRANCH   1  17
TORSDOF 11
