REMARK  Name = 
REMARK  5 active torsions:
REMARK  status: ('A' for Active; 'I' for Inactive)
REMARK    1  A    between atoms: C_4  and  O_5
REMARK    2  A    between atoms: O_5  and  C_6
REMARK    3  A    between atoms: C_6  and  C_7
REMARK    4  A    between atoms: C_7  and  O_8
REMARK    5  A    between atoms: O_8  and  C_9
REMARK                            x       y       z     vdW  Elec       q    Type
REMARK                         _______ _______ _______ _____ _____    ______ ____
ROOT
ATOM      1  N   UNL     1       1.540  -0.110   0.938  0.00  0.00    -0.327 N 
ATOM      2  H   UNL     1       1.304  -1.062   1.174  0.00  0.00    +0.145 HD
ATOM      3  H   UNL     1       1.369   0.611   1.624  0.00  0.00    +0.145 HD
ATOM      4  C   UNL     1       2.811  -0.012   0.411  0.00  0.00    +0.220 A 
ATOM      5  N   UNL     1       3.332  -1.095  -0.144  0.00  0.00    -0.181 NA
ATOM      6  C   UNL     1       4.531  -0.934  -0.685  0.00  0.00    +0.220 A 
ATOM      7  N   UNL     1       5.073  -2.017  -1.343  0.00  0.00    -0.327 N 
ATOM      8  H   UNL     1       4.664  -2.887  -1.032  0.00  0.00    +0.145 HD
ATOM      9  H   UNL     1       6.077  -1.956  -1.420  0.00  0.00    +0.145 HD
ATOM     10  N   UNL     1       5.246   0.178  -0.636  0.00  0.00    -0.161 NA
ATOM     11  C   UNL     1       4.630   1.186  -0.031  0.00  0.00    +0.324 A 
ATOM     12  N   UNL     1       3.418   1.154   0.508  0.00  0.00    -0.161 NA
ENDROOT
BRANCH  11  13
ATOM     13  O   UNL     1       5.216   2.430  -0.011  0.00  0.00    -0.459 OA
BRANCH  13  14
ATOM     14  C   UNL     1       6.641   2.404  -0.065  0.00  0.00    +0.273 C 
BRANCH  14  15
ATOM     15  C   UNL     1       7.117   3.856  -0.015  0.00  0.00    +0.270 C 
BRANCH  15  16
ATOM     16  O   UNL     1       8.543   3.906   0.004  0.00  0.00    -0.489 OA
BRANCH  16  17
ATOM     17  C   UNL     1       9.108   5.156   0.016  0.00  0.00    +0.121 A 
ATOM     18  C   UNL     1      10.506   5.170   0.021  0.00  0.00    +0.045 A 
ATOM     19  C   UNL     1      11.207   6.379   0.026  0.00  0.00    +0.004 A 
ATOM     20  C   UNL     1      10.512   7.586   0.028  0.00  0.00    +0.000 A 
ATOM     21  C   UNL     1       9.119   7.580   0.027  0.00  0.00    +0.004 A 
ATOM     22  C   UNL     1       8.418   6.371   0.024  0.00  0.00    +0.045 A 
ENDBRANCH  16  17
ENDBRANCH  15  16
ENDBRANCH  14  15
ENDBRANCH  13  14
ENDBRANCH  11  13
TORSDOF 5
