REMARK  Name = 
REMARK  8 active torsions:
REMARK  status: ('A' for Active; 'I' for Inactive)
REMARK    1  A    between atoms: C_2  and  C_3
REMARK    2  A    between atoms: C_3  and  O_4
REMARK    3  A    between atoms: C_6  and  S_8
REMARK    4  A    between atoms: S_8  and  C_9
REMARK    5  A    between atoms: C_12  and  N_15
REMARK    6  A    between atoms: C_18  and  O_20
REMARK    7  A    between atoms: C_21  and  O_23
REMARK    8  A    between atoms: C_24  and  O_26
REMARK                            x       y       z     vdW  Elec       q    Type
REMARK                         _______ _______ _______ _____ _____    ______ ____
ROOT
ATOM      1  C   UNL     1       2.091  -0.077   0.062  0.00  0.00    +0.176 C 
ATOM      2  C   UNL     1       2.690   0.888  -0.978  0.00  0.00    +0.176 C 
ATOM      3  C   UNL     1       2.221   0.523  -2.393  0.00  0.00    +0.177 C 
ATOM      4  C   UNL     1       2.550  -0.950  -2.692  0.00  0.00    +0.185 C 
ATOM      5  C   UNL     1       2.044  -1.912  -1.584  0.00  0.00    +0.212 C 
ATOM      6  O   UNL     1       2.328  -1.462  -0.255  0.00  0.00    -0.355 OA
ENDROOT
BRANCH   2   7
ATOM      7  O   UNL     1       4.124   0.858  -0.895  0.00  0.00    -0.386 OA
ATOM      8  H   UNL     1       4.437   0.086  -1.410  0.00  0.00    +0.210 HD
ENDBRANCH   2   7
BRANCH   3   9
ATOM      9  O   UNL     1       0.837   0.846  -2.548  0.00  0.00    -0.386 OA
ATOM     10  H   UNL     1       0.334   0.049  -2.796  0.00  0.00    +0.210 HD
ENDBRANCH   3   9
BRANCH   4  11
ATOM     11  O   UNL     1       3.987  -1.061  -2.796  0.00  0.00    -0.386 OA
ATOM     12  H   UNL     1       4.201  -1.953  -3.125  0.00  0.00    +0.210 HD
ENDBRANCH   4  11
BRANCH   1  13
ATOM     13  C   UNL     1       0.610   0.188   0.388  0.00  0.00    +0.190 C 
BRANCH  13  14
ATOM     14  O   UNL     1       0.366   1.541   0.748  0.00  0.00    -0.392 OA
ATOM     15  H   UNL     1       0.264   2.050  -0.078  0.00  0.00    +0.210 HD
ENDBRANCH  13  14
ENDBRANCH   1  13
BRANCH   5  16
ATOM     16  S   UNL     1       0.297  -2.409  -1.837  0.00  0.00    -0.091 S 
BRANCH  16  17
ATOM     17  C   UNL     1       0.197  -3.824  -0.752  0.00  0.00    +0.011 A 
ATOM     18  C   UNL     1       0.363  -5.112  -1.276  0.00  0.00    +0.021 A 
ATOM     19  C   UNL     1       0.224  -6.238  -0.459  0.00  0.00    +0.085 A 
ATOM     20  C   UNL     1      -0.093  -6.079   0.896  0.00  0.00    +0.273 A 
ATOM     21  C   UNL     1      -0.270  -4.798   1.431  0.00  0.00    +0.085 A 
ATOM     22  C   UNL     1      -0.128  -3.677   0.603  0.00  0.00    +0.021 A 
BRANCH  20  23
ATOM     23  N   UNL     1      -0.253  -7.261   1.754  0.00  0.00    +0.080 N 
ATOM     24  O   UNL     1      -0.086  -8.375   1.235  0.00  0.00    +0.041 OA
ATOM     25  O   UNL     1      -0.544  -7.076   2.943  0.00  0.00    -0.576 OA
ENDBRANCH  20  23
ENDBRANCH  16  17
ENDBRANCH   5  16
TORSDOF 8
