REMARK  Name = 
REMARK  7 active torsions:
REMARK  status: ('A' for Active; 'I' for Inactive)
REMARK    1  A    between atoms: O_1  and  N_2
REMARK    2  A    between atoms: C_3  and  C_5
REMARK    3  A    between atoms: C_5  and  C_6
REMARK    4  A    between atoms: C_6  and  S_7
REMARK    5  A    between atoms: S_7  and  C_10
REMARK    6  A    between atoms: C_13  and  O_14
REMARK    7  A    between atoms: O_14  and  C_15
REMARK                            x       y       z     vdW  Elec       q    Type
REMARK                         _______ _______ _______ _____ _____    ______ ____
ROOT
ATOM      1  S   UNL     1       7.066   1.495   2.355  0.00  0.00    -0.002 S 
ATOM      2  O   UNL     1       7.529   2.363   1.290  0.00  0.00    -0.169 OA
ATOM      3  O   UNL     1       7.672   0.194   2.581  0.00  0.00    -0.169 OA
ENDROOT
BRANCH   1   4
ATOM      4  C   UNL     1       7.276   2.406   3.870  0.00  0.00    +0.088 A 
ATOM      5  C   UNL     1       7.137   3.794   3.854  0.00  0.00    +0.030 A 
ATOM      6  C   UNL     1       7.312   4.509   5.038  0.00  0.00    +0.048 A 
ATOM      7  C   UNL     1       7.695   3.846   6.211  0.00  0.00    +0.129 A 
ATOM      8  C   UNL     1       7.804   2.453   6.218  0.00  0.00    +0.048 A 
ATOM      9  C   UNL     1       7.599   1.726   5.046  0.00  0.00    +0.030 A 
BRANCH   7  10
ATOM     10  O   UNL     1       7.933   4.462   7.418  0.00  0.00    -0.456 OA
BRANCH  10  11
ATOM     11  C   UNL     1       8.399   5.755   7.450  0.00  0.00    +0.129 A 
ATOM     12  C   UNL     1       9.319   6.283   6.539  0.00  0.00    +0.048 A 
ATOM     13  C   UNL     1       9.687   7.628   6.620  0.00  0.00    +0.023 A 
ATOM     14  C   UNL     1       9.183   8.423   7.648  0.00  0.00    +0.041 A 
ATOM     15 CL   UNL     1       9.614  10.086   7.731  0.00  0.00    -0.084 Cl
ATOM     16  C   UNL     1       8.330   7.880   8.608  0.00  0.00    +0.023 A 
ATOM     17  C   UNL     1       7.939   6.544   8.508  0.00  0.00    +0.048 A 
ENDBRANCH  10  11
ENDBRANCH   7  10
ENDBRANCH   1   4
BRANCH   1  18
ATOM     18  C   UNL     1       5.292   1.333   2.262  0.00  0.00    +0.188 C 
BRANCH  18  19
ATOM     19  C   UNL     1       4.709   0.437   1.141  0.00  0.00    +0.073 C 
ATOM     20  C   UNL     1       5.070   1.019  -0.255  0.00  0.00    +0.046 C 
ATOM     21  C   UNL     1       4.688   0.095  -1.410  0.00  0.00    +0.161 C 
ATOM     22  O   UNL     1       5.229  -1.209  -1.218  0.00  0.00    -0.380 OA
ATOM     23  C   UNL     1       4.745  -1.824  -0.029  0.00  0.00    +0.161 C 
ATOM     24  C   UNL     1       5.191  -1.028   1.192  0.00  0.00    +0.046 C 
BRANCH  19  27
ATOM     25  N   UNL     1       2.571  -0.011   2.429  0.00  0.00    -0.197 N 
ATOM     26  H   UNL     1       1.565   0.106   2.518  0.00  0.00    +0.182 HD
ATOM     27  C   UNL     1       3.168   0.504   1.319  0.00  0.00    +0.243 C 
ATOM     28  O   UNL     1       2.437   1.044   0.485  0.00  0.00    -0.273 OA
BRANCH  25  29
ATOM     29  O   UNL     1       3.289  -0.530   3.511  0.00  0.00    -0.295 OA
ATOM     30  H   UNL     1       2.633  -0.575   4.232  0.00  0.00    +0.241 HD
ENDBRANCH  25  29
ENDBRANCH  19  27
ENDBRANCH  18  19
ENDBRANCH   1  18
TORSDOF 7
