REMARK  Name = 
REMARK  5 active torsions:
REMARK  status: ('A' for Active; 'I' for Inactive)
REMARK    1  A    between atoms: C_2  and  O_3
REMARK    2  A    between atoms: C_2  and  C_4
REMARK    3  A    between atoms: C_2  and  C_6
REMARK    4  A    between atoms: C_4  and  N_5
REMARK    5  A    between atoms: C_10  and  C_12
REMARK                            x       y       z     vdW  Elec       q    Type
REMARK                         _______ _______ _______ _____ _____    ______ ____
ROOT
ATOM      1  C   UNL     1       2.445  -1.154   1.007  0.00  0.00    -0.017 A 
ATOM      2  C   UNL     1       1.981  -2.461   0.796  0.00  0.00    +0.018 A 
ATOM      3  C   UNL     1       2.399  -3.516   1.622  0.00  0.00    +0.055 A 
ATOM      4  C   UNL     1       3.296  -3.250   2.668  0.00  0.00    +0.012 A 
ATOM      5  C   UNL     1       3.762  -1.957   2.887  0.00  0.00    +0.001 A 
ATOM      6  C   UNL     1       3.336  -0.916   2.063  0.00  0.00    +0.006 A 
ENDROOT
BRANCH   3   7
ATOM      7  C   UNL     1       1.873  -4.911   1.384  0.00  0.00    +0.417 C 
ATOM      8  F   UNL     1       2.170  -5.373   0.137  0.00  0.00    -0.166 F 
ATOM      9  F   UNL     1       0.517  -4.982   1.493  0.00  0.00    -0.166 F 
ATOM     10  F   UNL     1       2.366  -5.840   2.251  0.00  0.00    -0.166 F 
ENDBRANCH   3   7
BRANCH   1  11
ATOM     11  C   UNL     1       1.954  -0.015   0.143  0.00  0.00    +0.158 C 
BRANCH  11  12
ATOM     12  O   UNL     1       1.346   0.946   1.005  0.00  0.00    -0.386 OA
ATOM     13  H   UNL     1       1.613   1.819   0.655  0.00  0.00    +0.210 HD
ENDBRANCH  11  12
BRANCH  11  14
ATOM     14  C   UNL     1       3.098   0.648  -0.675  0.00  0.00    +0.114 C 
BRANCH  14  15
ATOM     15  N   UNL     1       2.592   1.763  -1.493  0.00  0.00    -0.327 NA
ATOM     16  H   UNL     1       3.342   2.093  -2.103  0.00  0.00    +0.118 HD
ATOM     17  H   UNL     1       1.861   1.421  -2.120  0.00  0.00    +0.118 HD
ENDBRANCH  14  15
ENDBRANCH  11  14
ENDBRANCH   1  11
TORSDOF 5
