REMARK  Name = 
REMARK  8 active torsions:
REMARK  status: ('A' for Active; 'I' for Inactive)
REMARK    1  A    between atoms: CA_2  and  N_3
REMARK    2  A    between atoms: C_4  and  C_6
REMARK    3  A    between atoms: C_6  and  C_7
REMARK    4  A    between atoms: S_18  and  O_20
REMARK    5  A    between atoms: C_21  and  C_22
REMARK    6  A    between atoms: C_21  and  C_23
REMARK    7  A    between atoms: CA_24  and  C_26
REMARK    8  A    between atoms: C_26  and  O_27
REMARK                            x       y       z     vdW  Elec       q    Type
REMARK                         _______ _______ _______ _____ _____    ______ ____
ROOT
ATOM      1  CA  UNL     1       2.043   0.169   0.083  0.00  0.00    +0.190 C 
ATOM      2  C   UNL     1       2.739   0.616  -1.216  0.00  0.00    +0.167 C 
ATOM      3  S   UNL     1       4.300   1.392  -1.378  0.00  0.00    -0.121 S 
ATOM      4  H   UNL     1       4.524   1.926  -2.593  0.00  0.00    +0.111 HD
ATOM      5  C   UNL     1       5.435   0.056  -0.996  0.00  0.00    +0.044 C 
ATOM      6  CA  UNL     1       4.648  -1.098  -1.677  0.00  0.00    +0.201 C 
ATOM      7  C   UNL     1       5.621  -0.230   0.502  0.00  0.00    +0.025 C 
ATOM      8  C   UNL     1       6.817   0.393  -1.555  0.00  0.00    +0.025 C 
ATOM      9  N   UNL     1       3.200  -0.813  -1.401  0.00  0.00    -0.271 N 
ATOM     10  C   UNL     1       2.684  -1.208  -0.190  0.00  0.00    +0.240 C 
ATOM     11  O   UNL     1       2.892  -2.206   0.465  0.00  0.00    -0.273 OA
ENDROOT
BRANCH   1  12
ATOM     12  N   UNL     1       2.405   0.811   1.383  0.00  0.00    -0.301 N 
ATOM     13  H   UNL     1       2.728   0.210   2.140  0.00  0.00    +0.150 HD
ATOM     14  C   UNL     1       1.789   1.992   1.769  0.00  0.00    +0.218 C 
ATOM     15  O   UNL     1       1.098   2.644   0.994  0.00  0.00    -0.275 OA
BRANCH  14  16
ATOM     16  C   UNL     1       1.987   2.389   3.225  0.00  0.00    +0.130 C 
BRANCH  16  17
ATOM     17  C   UNL     1       0.865   1.877   4.097  0.00  0.00    -0.039 A 
ATOM     18  C   UNL     1      -0.384   2.516   4.083  0.00  0.00    +0.004 A 
ATOM     19  C   UNL     1      -1.461   1.987   4.798  0.00  0.00    +0.000 A 
ATOM     20  C   UNL     1      -1.299   0.819   5.539  0.00  0.00    +0.000 A 
ATOM     21  C   UNL     1      -0.054   0.196   5.590  0.00  0.00    +0.000 A 
ATOM     22  C   UNL     1       1.026   0.724   4.877  0.00  0.00    +0.004 A 
ENDBRANCH  16  17
ENDBRANCH  14  16
ENDBRANCH   1  12
BRANCH   3  23
ATOM     23  O   UNL     1       4.408   2.458  -0.172  0.00  0.00    -0.350 OA
ATOM     24  H   UNL     1       4.654   2.156   0.722  0.00  0.00    +0.225 HD
ENDBRANCH   3  23
BRANCH   6  25
ATOM     25  C   UNL     1       4.881  -1.188  -3.196  0.00  0.00    +0.327 C 
ATOM     26  OXT UNL     1       5.965  -1.414  -3.715  0.00  0.00    -0.249 OA
BRANCH  25  27
ATOM     27  O   UNL     1       3.762  -1.001  -3.938  0.00  0.00    -0.479 OA
ATOM     28  H   UNL     1       2.983  -0.902  -3.354  0.00  0.00    +0.295 HD
ENDBRANCH  25  27
ENDBRANCH   6  25
TORSDOF 6
