REMARK  Name = 
REMARK  10 active torsions:
REMARK  status: ('A' for Active; 'I' for Inactive)
REMARK    1  A    between atoms: C_2  and  C_3
REMARK    2  A    between atoms: C_2  and  N_10
REMARK    3  A    between atoms: C_2  and  C_21
REMARK    4  A    between atoms: C_3  and  C_4
REMARK    5  A    between atoms: C_11  and  O_13
REMARK    6  A    between atoms: O_13  and  C_14
REMARK    7  A    between atoms: C_14  and  C_15
REMARK    8  A    between atoms: C_21  and  O_23
REMARK    9  A    between atoms: C_21  and  C_24
REMARK   10  A    between atoms: C_24  and  O_25
REMARK                            x       y       z     vdW  Elec       q    Type
REMARK                         _______ _______ _______ _____ _____    ______ ____
ROOT
ATOM      1  C   UNL     1       2.120   0.012   0.000  0.00  0.00    +0.120 C 
ENDROOT
BRANCH   1   2
ATOM      2  N   UNL     1       2.683  -1.337  -0.271  0.00  0.00    -0.275 N 
ATOM      3  H   UNL     1       3.018  -1.436  -1.222  0.00  0.00    +0.152 HD
ATOM      4  C   UNL     1       1.913  -2.454  -0.035  0.00  0.00    +0.401 C 
ATOM      5  O   UNL     1       2.350  -3.450   0.518  0.00  0.00    -0.226 OA
BRANCH   4   6
ATOM      6  O   UNL     1       0.699  -2.337  -0.617  0.00  0.00    -0.446 OA
BRANCH   6   7
ATOM      7  C   UNL     1      -0.148  -3.493  -0.585  0.00  0.00    +0.269 C 
BRANCH   7   8
ATOM      8  C   UNL     1      -1.480  -3.078  -0.020  0.00  0.00    -0.010 A 
ATOM      9  C   UNL     1      -1.662  -3.021   1.369  0.00  0.00    +0.007 A 
ATOM     10  C   UNL     1      -2.881  -2.606   1.906  0.00  0.00    +0.000 A 
ATOM     11  C   UNL     1      -3.927  -2.241   1.060  0.00  0.00    +0.000 A 
ATOM     12  C   UNL     1      -3.756  -2.290  -0.322  0.00  0.00    +0.000 A 
ATOM     13  C   UNL     1      -2.536  -2.703  -0.862  0.00  0.00    +0.007 A 
ENDBRANCH   7   8
ENDBRANCH   6   7
ENDBRANCH   4   6
ENDBRANCH   1   2
BRANCH   1  14
ATOM     14  C   UNL     1       2.596   1.031  -1.063  0.00  0.00    +0.243 C 
BRANCH  14  15
ATOM     15  C   UNL     1       1.979   0.746  -2.434  0.00  0.00    +0.335 C 
ATOM     16  O   UNL     1       0.859   0.311  -2.635  0.00  0.00    -0.248 OA
BRANCH  15  17
ATOM     17  O   UNL     1       2.846   1.058  -3.434  0.00  0.00    -0.479 OA
ATOM     18  H   UNL     1       3.684   1.387  -3.030  0.00  0.00    +0.295 HD
ENDBRANCH  15  17
ENDBRANCH  14  15
BRANCH  14  19
ATOM     19  O   UNL     1       4.031   1.049  -1.193  0.00  0.00    -0.379 OA
ATOM     20  H   UNL     1       4.379   0.267  -0.721  0.00  0.00    +0.211 HD
ENDBRANCH  14  19
ENDBRANCH   1  14
BRANCH   1  21
ATOM     21  C   UNL     1       2.550   0.415   1.437  0.00  0.00    +0.060 C 
BRANCH  21  22
ATOM     22  C   UNL     1       2.107   1.793   1.867  0.00  0.00    -0.046 A 
ATOM     23  C   UNL     1       2.936   2.904   1.647  0.00  0.00    +0.004 A 
ATOM     24  C   UNL     1       2.500   4.190   1.969  0.00  0.00    +0.000 A 
ATOM     25  C   UNL     1       1.244   4.375   2.541  0.00  0.00    +0.000 A 
ATOM     26  C   UNL     1       0.427   3.274   2.797  0.00  0.00    +0.000 A 
ATOM     27  C   UNL     1       0.853   1.988   2.457  0.00  0.00    +0.004 A 
ENDBRANCH  21  22
ENDBRANCH   1  21
TORSDOF 10
