REMARK  Name = 
REMARK  6 active torsions:
REMARK  status: ('A' for Active; 'I' for Inactive)
REMARK    1  A    between atoms: C_2  and  C_3
REMARK    2  A    between atoms: C_2  and  N_4
REMARK    3  A    between atoms: C_2  and  C_15
REMARK    4  A    between atoms: C_5  and  C_7
REMARK    5  A    between atoms: C_8  and  C_9
REMARK    6  A    between atoms: C_12  and  N_13
REMARK                            x       y       z     vdW  Elec       q    Type
REMARK                         _______ _______ _______ _____ _____    ______ ____
ROOT
ATOM      1  N   UNL     1       2.450  -1.301   0.492  0.00  0.00    -0.305 N 
ATOM      2  H   UNL     1       2.041  -2.120   0.066  0.00  0.00    +0.150 HD
ATOM      3  C   UNL     1       3.522  -1.454   1.348  0.00  0.00    +0.245 C 
ATOM      4  O   UNL     1       4.172  -0.522   1.798  0.00  0.00    -0.270 OA
ENDROOT
BRANCH   3   5
ATOM      5  C   UNL     1       3.828  -2.868   1.723  0.00  0.00    +0.041 A 
ATOM      6  C   UNL     1       2.737  -3.731   1.952  0.00  0.00    +0.036 A 
ATOM      7  C   UNL     1       2.924  -5.072   2.283  0.00  0.00    +0.025 A 
ATOM      8  C   UNL     1       4.221  -5.517   2.525  0.00  0.00    +0.023 A 
ATOM      9  C   UNL     1       5.315  -4.672   2.320  0.00  0.00    +0.006 A 
ATOM     10  C   UNL     1       5.141  -3.342   1.895  0.00  0.00    -0.038 A 
ATOM     11  C   UNL     1       6.382  -2.518   1.690  0.00  0.00    +0.044 C 
BRANCH   7  12
ATOM     12  N   UNL     1       1.826  -5.877   2.601  0.00  0.00    -0.358 N 
ATOM     13  H   UNL     1       0.967  -5.621   2.125  0.00  0.00    +0.142 HD
ATOM     14  H   UNL     1       2.014  -6.874   2.542  0.00  0.00    +0.142 HD
ENDBRANCH   7  12
ENDBRANCH   3   5
BRANCH   1  15
ATOM     15  C   UNL     1       2.009  -0.001   0.003  0.00  0.00    +0.101 C 
ATOM     16  C   UNL     1       0.477   0.032  -0.010  0.00  0.00    +0.033 C 
BRANCH  15  17
ATOM     17  C   UNL     1       2.546   0.334  -1.388  0.00  0.00    -0.020 A 
ATOM     18  C   UNL     1       2.629   1.690  -1.835  0.00  0.00    -0.013 A 
ATOM     19  C   UNL     1       2.318   2.814  -1.031  0.00  0.00    +0.009 A 
ATOM     20  C   UNL     1       2.368   4.119  -1.525  0.00  0.00    +0.001 A 
ATOM     21  C   UNL     1       2.748   4.344  -2.840  0.00  0.00    +0.001 A 
ATOM     22  C   UNL     1       3.088   3.266  -3.653  0.00  0.00    +0.008 A 
ATOM     23  C   UNL     1       3.036   1.948  -3.170  0.00  0.00    -0.018 A 
ATOM     24  C   UNL     1       3.374   0.886  -4.019  0.00  0.00    +0.008 A 
ATOM     25  C   UNL     1       3.302  -0.430  -3.580  0.00  0.00    +0.001 A 
ATOM     26  C   UNL     1       2.881  -0.704  -2.282  0.00  0.00    +0.006 A 
ENDBRANCH  15  17
ENDBRANCH   1  15
TORSDOF 4
