REMARK  Name = 
REMARK  7 active torsions:
REMARK  status: ('A' for Active; 'I' for Inactive)
REMARK    1  A    between atoms: C_2  and  C_3
REMARK    2  A    between atoms: C_2  and  N_10
REMARK    3  A    between atoms: C_2  and  C_19
REMARK    4  A    between atoms: C_3  and  C_4
REMARK    5  A    between atoms: N_21  and  C_22
REMARK    6  A    between atoms: C_22  and  C_29
REMARK    7  A    between atoms: N_25  and  C_26
REMARK                            x       y       z     vdW  Elec       q    Type
REMARK                         _______ _______ _______ _____ _____    ______ ____
ROOT
ATOM      1  C   UNL     1       2.156  -0.208   0.267  0.00  0.00    +0.161 C 
ENDROOT
BRANCH   1   2
ATOM      2  N   UNL     1       2.660   0.751   1.298  0.00  0.00    -0.288 N 
ATOM      3  H   UNL     1       3.664   0.773   1.370  0.00  0.00    +0.151 HD
ATOM      4  C   UNL     1       1.979   0.999   2.456  0.00  0.00    +0.303 C 
ATOM      5  N   UNL     1       2.609   1.789   3.386  0.00  0.00    -0.281 N 
ATOM      6  C   UNL     1       1.971   2.003   4.693  0.00  0.00    +0.137 C 
ATOM      7  C   UNL     1       1.890   3.498   5.015  0.00  0.00    +0.179 C 
ATOM      8  O   UNL     1       3.191   4.105   4.950  0.00  0.00    -0.377 OA
ATOM      9  C   UNL     1       3.750   3.962   3.636  0.00  0.00    +0.179 C 
ATOM     10  C   UNL     1       3.895   2.485   3.250  0.00  0.00    +0.137 C 
ATOM     11  O   UNL     1       0.900   0.454   2.671  0.00  0.00    -0.253 OA
ENDBRANCH   1   2
BRANCH   1  12
ATOM     12  C   UNL     1       2.702  -1.649   0.625  0.00  0.00    +0.235 C 
ATOM     13  N   UNL     1       2.775  -1.841   1.981  0.00  0.00    -0.296 N 
ATOM     14  H   UNL     1       2.146  -1.221   2.485  0.00  0.00    +0.150 HD
ATOM     15  O   UNL     1       2.951  -2.527  -0.190  0.00  0.00    -0.274 OA
BRANCH  13  16
ATOM     16  C   UNL     1       3.273  -2.941   2.832  0.00  0.00    +0.124 C 
ATOM     17  C   UNL     1       4.083  -2.241   3.941  0.00  0.00    +0.056 C 
ATOM     18  C   UNL     1       5.363  -1.655   3.346  0.00  0.00    +0.087 C 
ATOM     19  N   UNL     1       6.264  -2.675   2.827  0.00  0.00    -0.305 NA
ATOM     20  C   UNL     1       7.126  -3.235   3.860  0.00  0.00    +0.104 C 
ATOM     21  C   UNL     1       5.624  -3.655   1.945  0.00  0.00    +0.087 C 
ATOM     22  C   UNL     1       4.170  -4.039   2.233  0.00  0.00    +0.056 C 
BRANCH  16  23
ATOM     23  C   UNL     1       2.090  -3.603   3.440  0.00  0.00    +0.088 C 
ATOM     24  N   UNL     1       1.159  -4.109   3.932  0.00  0.00    -0.194 NA
ENDBRANCH  16  23
ENDBRANCH  13  16
ENDBRANCH   1  12
BRANCH   1  25
ATOM     25  C   UNL     1       2.575   0.335  -1.112  0.00  0.00    +0.035 C 
BRANCH  25  26
ATOM     26  C   UNL     1       2.027  -0.386  -2.367  0.00  0.00    -0.009 C 
ATOM     27  C   UNL     1       2.661   0.189  -3.653  0.00  0.00    +0.003 C 
ATOM     28  C   UNL     1       2.117   1.565  -4.042  0.00  0.00    +0.000 C 
ATOM     29  C   UNL     1       0.597   1.559  -4.150  0.00  0.00    +0.000 C 
ATOM     30  C   UNL     1      -0.059   1.013  -2.885  0.00  0.00    +0.000 C 
ATOM     31  C   UNL     1       0.495  -0.357  -2.498  0.00  0.00    +0.003 C 
ENDBRANCH  25  26
ENDBRANCH   1  25
TORSDOF 6
