REMARK  Name = 
REMARK  6 active torsions:
REMARK  status: ('A' for Active; 'I' for Inactive)
REMARK    1  A    between atoms: N_1  and  C_2
REMARK    2  A    between atoms: C_2  and  C_3
REMARK    3  A    between atoms: C_3  and  C_4
REMARK    4  A    between atoms: C_4  and  N_5
REMARK    5  A    between atoms: N_5  and  C_6
REMARK    6  A    between atoms: C_11  and  N_12
REMARK                            x       y       z     vdW  Elec       q    Type
REMARK                         _______ _______ _______ _____ _____    ______ ____
ROOT
ATOM      1  C   UNL     1       6.330   1.686  -2.463  0.00  0.00    +0.105 A 
ATOM      2  C   UNL     1       6.931   2.028  -3.693  0.00  0.00    +0.294 A 
ATOM      3  C   UNL     1       8.328   2.078  -3.868  0.00  0.00    +0.086 A 
ATOM      4  C   UNL     1       9.166   1.828  -2.788  0.00  0.00    +0.007 A 
ATOM      5  C   UNL     1       8.611   1.558  -1.544  0.00  0.00    +0.002 A 
ATOM      6  C   UNL     1       7.221   1.505  -1.384  0.00  0.00    +0.030 A 
ENDROOT
BRANCH   2   7
ATOM      7  N   UNL     1       6.115   2.339  -4.857  0.00  0.00    +0.082 N 
ATOM      8  O   UNL     1       6.433   3.331  -5.529  0.00  0.00    +0.042 OA
ATOM      9  O   UNL     1       5.174   1.573  -5.118  0.00  0.00    -0.576 OA
ENDBRANCH   2   7
BRANCH   1  10
ATOM     10  N   UNL     1       4.933   1.684  -2.271  0.00  0.00    -0.339 N 
ATOM     11  H   UNL     1       4.436   1.445  -3.135  0.00  0.00    +0.146 HD
BRANCH  10  12
ATOM     12  C   UNL     1       4.401   0.953  -1.113  0.00  0.00    +0.103 C 
BRANCH  12  13
ATOM     13  C   UNL     1       2.883   1.103  -1.010  0.00  0.00    +0.033 C 
BRANCH  13  14
ATOM     14  C   UNL     1       2.318   0.310   0.173  0.00  0.00    +0.079 C 
BRANCH  14  15
ATOM     15  N   UNL     1       2.882   0.742   1.448  0.00  0.00    -0.330 NA
ATOM     16  H   UNL     1       2.652   1.723   1.613  0.00  0.00    +0.118 HD
ATOM     17  H   UNL     1       2.450   0.219   2.210  0.00  0.00    +0.118 HD
ENDBRANCH  14  15
ENDBRANCH  13  14
ENDBRANCH  12  13
ENDBRANCH  10  12
ENDBRANCH   1  10
TORSDOF 6
