REMARK  Name = 
REMARK  4 active torsions:
REMARK  status: ('A' for Active; 'I' for Inactive)
REMARK    1  A    between atoms: C_8  and  C_9
REMARK    2  A    between atoms: N_11  and  C_12
REMARK    3  A    between atoms: C_16  and  C_17
REMARK    4  A    between atoms: N_19  and  C_20
REMARK                            x       y       z     vdW  Elec       q    Type
REMARK                         _______ _______ _______ _____ _____    ______ ____
ROOT
ATOM      1  C   UNL     1       0.679  -3.761   0.359  0.00  0.00    +0.084 A 
ATOM      2  C   UNL     1      -0.662  -3.845   0.863  0.00  0.00    +0.168 A 
ATOM      3  N   UNL     1      -1.062  -5.133   0.980  0.00  0.00    -0.167 NA
ATOM      4  N   UNL     1      -0.003  -5.836   0.549  0.00  0.00    -0.282 N 
ATOM      5  H   UNL     1      -0.061  -6.853   0.544  0.00  0.00    +0.188 HD
ATOM      6  C   UNL     1       1.054  -5.071   0.167  0.00  0.00    +0.129 A 
ENDROOT
BRANCH   1   8
ATOM      7  C   UNL     1       2.835  -2.638  -0.024  0.00  0.00    +0.251 C 
ATOM      8  N   UNL     1       1.451  -2.625   0.123  0.00  0.00    -0.278 N 
ATOM      9  H   UNL     1       0.966  -1.737   0.240  0.00  0.00    +0.155 HD
ATOM     10  O   UNL     1       3.511  -3.658   0.089  0.00  0.00    -0.270 OA
BRANCH   7  13
ATOM     11 CL   UNL     1       1.601   0.130   1.080  0.00  0.00    -0.083 Cl
ATOM     12  C   UNL     1       3.105  -0.102   0.259  0.00  0.00    +0.054 A 
ATOM     13  C   UNL     1       3.556  -1.336  -0.249  0.00  0.00    +0.074 A 
ATOM     14  C   UNL     1       4.811  -1.339  -0.904  0.00  0.00    +0.054 A 
ATOM     15 CL   UNL     1       5.477  -2.709  -1.738  0.00  0.00    -0.083 Cl
ATOM     16  C   UNL     1       5.601  -0.178  -0.975  0.00  0.00    +0.021 A 
ATOM     17  C   UNL     1       5.148   1.018  -0.437  0.00  0.00    +0.003 A 
ATOM     18  C   UNL     1       3.893   1.059   0.155  0.00  0.00    +0.021 A 
ENDBRANCH   7  13
ENDBRANCH   1   8
BRANCH   2  19
ATOM     19  C   UNL     1      -1.533  -2.739   1.300  0.00  0.00    +0.266 C 
ATOM     20  N   UNL     1      -2.745  -3.144   1.837  0.00  0.00    -0.307 N 
ATOM     21  H   UNL     1      -2.837  -4.155   1.930  0.00  0.00    +0.149 HD
ATOM     22  O   UNL     1      -1.186  -1.563   1.227  0.00  0.00    -0.268 OA
BRANCH  20  23
ATOM     23  C   UNL     1      -3.605  -2.253   2.616  0.00  0.00    +0.076 C 
ATOM     24  C   UNL     1      -3.131  -2.139   4.068  0.00  0.00    +0.037 C 
ATOM     25  C   UNL     1      -3.374  -3.444   4.822  0.00  0.00    +0.082 C 
ATOM     26  N   UNL     1      -4.797  -3.783   4.829  0.00  0.00    -0.316 NA
ATOM     27  H   UNL     1      -4.929  -4.664   5.329  0.00  0.00    +0.122 HD
ATOM     28  C   UNL     1      -5.349  -3.908   3.481  0.00  0.00    +0.082 C 
ATOM     29  C   UNL     1      -5.075  -2.687   2.601  0.00  0.00    +0.037 C 
ENDBRANCH  20  23
ENDBRANCH   2  19
TORSDOF 4
