REMARK  Name = 
REMARK  7 active torsions:
REMARK  status: ('A' for Active; 'I' for Inactive)
REMARK    1  A    between atoms: C_1  and  C_2
REMARK    2  A    between atoms: C_2  and  N_3
REMARK    3  A    between atoms: N_3  and  C_4
REMARK    4  A    between atoms: C_4  and  C_5
REMARK    5  A    between atoms: C_6  and  C_8
REMARK    6  A    between atoms: C_9  and  N_10
REMARK    7  A    between atoms: C_11  and  C_13
REMARK                            x       y       z     vdW  Elec       q    Type
REMARK                         _______ _______ _______ _____ _____    ______ ____
ROOT
ATOM      1  C   UNL     1       4.863  -2.450   2.459  0.00  0.00    +0.069 A 
ATOM      2  C   UNL     1       4.567  -3.875   2.307  0.00  0.00    -0.023 A 
ATOM      3  C   UNL     1       3.933  -4.560   1.118  0.00  0.00    +0.037 C 
ATOM      4  C   UNL     1       3.430  -5.973   1.469  0.00  0.00    +0.005 C 
ATOM      5  C   UNL     1       4.485  -6.771   2.243  0.00  0.00    +0.005 C 
ATOM      6  C   UNL     1       4.838  -6.093   3.573  0.00  0.00    +0.043 C 
ATOM      7  C   UNL     1       4.985  -4.612   3.400  0.00  0.00    -0.004 A 
ATOM      8  S   UNL     1       5.666  -3.651   4.617  0.00  0.00    -0.077 S 
ATOM      9  C   UNL     1       5.411  -2.226   3.721  0.00  0.00    +0.085 A 
ENDROOT
BRANCH   9  10
ATOM     10  N   UNL     1       5.979  -1.089   4.264  0.00  0.00    -0.275 N 
ATOM     11  H   UNL     1       6.947  -0.937   4.007  0.00  0.00    +0.156 HD
ATOM     12  C   UNL     1       5.669  -0.574   5.506  0.00  0.00    +0.255 C 
ATOM     13  O   UNL     1       4.701  -0.923   6.167  0.00  0.00    -0.269 OA
BRANCH  12  14
ATOM     14  C   UNL     1       6.580   0.491   5.957  0.00  0.00    +0.074 A 
ATOM     15  S   UNL     1       7.948   0.997   5.047  0.00  0.00    -0.092 S 
ATOM     16  C   UNL     1       8.330   2.239   6.154  0.00  0.00    +0.046 A 
ATOM     17  C   UNL     1       7.469   2.246   7.227  0.00  0.00    +0.008 A 
ATOM     18  C   UNL     1       6.466   1.240   7.113  0.00  0.00    +0.021 A 
ENDBRANCH  12  14
ENDBRANCH   9  10
BRANCH   1  20
ATOM     19  N   UNL     1       5.380  -0.397   1.077  0.00  0.00    -0.298 N 
ATOM     20  C   UNL     1       4.488  -1.428   1.452  0.00  0.00    +0.249 C 
ATOM     21  O   UNL     1       3.380  -1.498   0.910  0.00  0.00    -0.270 OA
BRANCH  19  23
ATOM     22  C   UNL     1       4.867   0.531  -1.175  0.00  0.00    +0.024 C 
ATOM     23  C   UNL     1       4.821   0.736   0.330  0.00  0.00    +0.104 C 
ENDBRANCH  19  23
BRANCH  19  24
ATOM     24  C   UNL     1       6.724  -0.253   1.608  0.00  0.00    +0.104 C 
ATOM     25  C   UNL     1       7.824   0.252   0.697  0.00  0.00    +0.024 C 
ENDBRANCH  19  24
ENDBRANCH   1  20
TORSDOF 5
