REMARK  Name = 
REMARK  3 active torsions:
REMARK  status: ('A' for Active; 'I' for Inactive)
REMARK    1  A    between atoms: N_1  and  C_2
REMARK    2  A    between atoms: C_2  and  C_3
REMARK    3  A    between atoms: C_3  and  C_4
REMARK                            x       y       z     vdW  Elec       q    Type
REMARK                         _______ _______ _______ _____ _____    ______ ____
ROOT
ATOM      1  C   UNL     1       4.513   0.678   1.317  0.00  0.00    -0.021 A 
ATOM      2  C   UNL     1       5.365  -0.352   1.833  0.00  0.00    +0.003 A 
ATOM      3  C   UNL     1       6.684   0.056   1.634  0.00  0.00    +0.047 A 
ATOM      4  C   UNL     1       7.785  -0.718   2.020  0.00  0.00    +0.026 A 
ATOM      5  C   UNL     1       7.529  -1.949   2.630  0.00  0.00    +0.002 A 
ATOM      6  C   UNL     1       6.224  -2.386   2.844  0.00  0.00    +0.001 A 
ATOM      7  N   UNL     1       6.638   1.287   1.022  0.00  0.00    -0.360 N 
ATOM      8  H   UNL     1       7.451   1.824   0.755  0.00  0.00    +0.165 HD
ATOM      9  C   UNL     1       5.135  -1.599   2.451  0.00  0.00    +0.010 A 
ATOM     10  C   UNL     1       5.339   1.671   0.826  0.00  0.00    +0.087 A 
ENDROOT
BRANCH   1  11
ATOM     11  C   UNL     1       3.016   0.687   1.305  0.00  0.00    +0.052 C 
BRANCH  11  12
ATOM     12  C   UNL     1       2.433   1.314   2.577  0.00  0.00    +0.082 C 
BRANCH  12  13
ATOM     13  N   UNL     1       0.969   1.308   2.559  0.00  0.00    -0.330 NA
ATOM     14  H   UNL     1       0.633   0.346   2.535  0.00  0.00    +0.118 HD
ATOM     15  H   UNL     1       0.625   1.707   3.432  0.00  0.00    +0.118 HD
ENDBRANCH  12  13
ENDBRANCH  11  12
ENDBRANCH   1  11
TORSDOF 3
