REMARK  Name = 
REMARK  19 active torsions:
REMARK  status: ('A' for Active; 'I' for Inactive)
REMARK    1  A    between atoms: C_2  and  C_3
REMARK    2  A    between atoms: C_2  and  O_4
REMARK    3  A    between atoms: C_2  and  C_5
REMARK    4  A    between atoms: C_5  and  O_6
REMARK    5  A    between atoms: N_7  and  C_8
REMARK    6  A    between atoms: C_11  and  C_12
REMARK    7  A    between atoms: C_12  and  O_13
REMARK    8  A    between atoms: N_14  and  CA_15
REMARK    9  A    between atoms: CA_15  and  CB_16
REMARK   10  A    between atoms: CA_15  and  C_18
REMARK   11  A    between atoms: CB_16  and  OG_17
REMARK   12  A    between atoms: C_18  and  O_19
REMARK   13  A    between atoms: C_22  and  C_23
REMARK   14  A    between atoms: C_23  and  O_24
REMARK   15  A    between atoms: N_25  and  CA_26
REMARK   16  A    between atoms: CA_26  and  CB_27
REMARK   17  A    between atoms: CA_26  and  C_29
REMARK   18  A    between atoms: CB_27  and  OG_28
REMARK   19  A    between atoms: C_29  and  O_30
REMARK                            x       y       z     vdW  Elec       q    Type
REMARK                         _______ _______ _______ _____ _____    ______ ____
ROOT
ATOM      1  C   UNK A   0       4.370   1.273  -2.738  0.00  0.00    +0.095 A 
ATOM      2  C   UNK A   0       4.678   0.364  -3.788  0.00  0.00    +0.053 A 
ATOM      3  I   UNK A   0       4.441  -1.731  -3.318  0.00  0.00    -0.041 I 
ATOM      4  C   UNK A   0       5.116   0.818  -5.065  0.00  0.00    +0.065 A 
ATOM      5  C   UNK A   0       5.140   2.221  -5.298  0.00  0.00    +0.040 A 
ATOM      6  I   UNK A   0       6.065   2.972  -7.127  0.00  0.00    -0.042 I 
ATOM      7  C   UNK A   0       4.721   3.141  -4.298  0.00  0.00    +0.065 A 
ATOM      8  C   UNK A   0       4.508   2.652  -2.997  0.00  0.00    +0.053 A 
ATOM      9  I   UNK A   0       4.769   4.014  -1.310  0.00  0.00    -0.041 I 
ENDROOT
BRANCH   7  10
ATOM     10  C   UNK A   0       4.400   4.570  -4.583  0.00  0.00    +0.218 C 
ATOM     11  N   SER A   1       5.081   5.317  -5.373  0.00  0.00    -0.242 NA
BRANCH  10  12
ATOM     12  O   UNK A   0       3.284   5.045  -3.986  0.00  0.00    -0.492 OA
ATOM     13  H   UNK A   0       2.834   4.418  -3.392  0.00  0.00    +0.294 HD
ENDBRANCH  10  12
BRANCH  11  14
ATOM     14  CA  SER A   1       4.668   6.719  -5.608  0.00  0.00    +0.160 C 
BRANCH  14  15
ATOM     15  C   SER A   1       4.983   7.046  -7.077  0.00  0.00    +0.185 C 
BRANCH  15  16
ATOM     16  O   SER A   1       4.198   6.226  -7.942  0.00  0.00    -0.393 OA
ATOM     17  H   SER A   1       4.381   5.313  -7.651  0.00  0.00    +0.209 HD
ENDBRANCH  15  16
ENDBRANCH  14  15
BRANCH  14  18
ATOM     18  CB  SER A   1       5.481   7.629  -4.677  0.00  0.00    +0.185 C 
BRANCH  18  19
ATOM     19  OG  SER A   1       5.129   7.426  -3.306  0.00  0.00    -0.393 OA
ATOM     20  H   SER A   1       4.419   6.759  -3.282  0.00  0.00    +0.209 HD
ENDBRANCH  18  19
ENDBRANCH  14  18
ENDBRANCH  11  14
ENDBRANCH   7  10
BRANCH   4  21
ATOM     21  C   UNK A   0       5.542  -0.171  -6.120  0.00  0.00    +0.218 C 
ATOM     22  N   SER A   1       6.268  -1.211  -5.898  0.00  0.00    -0.242 NA
BRANCH  21  23
ATOM     23  O   UNK A   0       5.092   0.085  -7.362  0.00  0.00    -0.492 OA
ATOM     24  H   UNK A   0       4.768   0.987  -7.500  0.00  0.00    +0.294 HD
ENDBRANCH  21  23
BRANCH  22  25
ATOM     25  CA  SER A   1       6.600  -2.075  -7.073  0.00  0.00    +0.160 C 
BRANCH  25  26
ATOM     26  CB  SER A   1       8.030  -1.740  -7.515  0.00  0.00    +0.185 C 
BRANCH  26  27
ATOM     27  OG  SER A   1       8.944  -1.949  -6.439  0.00  0.00    -0.393 OA
ATOM     28  H   SER A   1       8.468  -1.647  -5.639  0.00  0.00    +0.209 HD
ENDBRANCH  26  27
ENDBRANCH  25  26
BRANCH  25  29
ATOM     29  C   SER A   1       6.493  -3.556  -6.664  0.00  0.00    +0.185 C 
BRANCH  29  30
ATOM     30  O   SER A   1       5.142  -3.876  -6.330  0.00  0.00    -0.393 OA
ATOM     31  H   SER A   1       4.901  -3.238  -5.634  0.00  0.00    +0.209 HD
ENDBRANCH  29  30
ENDBRANCH  25  29
ENDBRANCH  22  25
ENDBRANCH   4  21
BRANCH   1  33
ATOM     32  C   UNK A   0       2.884   1.156  -0.914  0.00  0.00    +0.217 C 
ATOM     33  N   UNK A   0       3.996   0.783  -1.462  0.00  0.00    -0.213 NA
BRANCH  32  34
ATOM     34  O   UNK A   0       2.014   2.030  -1.483  0.00  0.00    -0.494 OA
ATOM     35  H   UNK A   0       1.358   2.277  -0.793  0.00  0.00    +0.293 HD
ENDBRANCH  32  34
BRANCH  32  36
ATOM     36  C   UNK A   0       2.427   0.686   0.461  0.00  0.00    +0.196 C 
ATOM     37  C   UNK A   0       1.780  -0.683   0.358  0.00  0.00    +0.048 C 
BRANCH  36  38
ATOM     38  O   UNK A   0       1.444   1.625   0.925  0.00  0.00    -0.383 OA
ATOM     39  H   UNK A   0       1.095   1.273   1.766  0.00  0.00    +0.210 HD
ENDBRANCH  36  38
ENDBRANCH  32  36
ENDBRANCH   1  33
TORSDOF 18
