REMARK  Name = 
REMARK  3 active torsions:
REMARK  status: ('A' for Active; 'I' for Inactive)
REMARK    1  A    between atoms: O_1  and  C_2
REMARK    2  A    between atoms: C_5  and  C_8
REMARK    3  A    between atoms: C_14  and  O_15
REMARK                            x       y       z     vdW  Elec       q    Type
REMARK                         _______ _______ _______ _____ _____    ______ ____
ROOT
ATOM      1  C   UNL     1       6.639   0.056  -0.629  0.00  0.00    +0.020 A 
ATOM      2  S   UNL     1       7.491  -1.418  -0.840  0.00  0.00    -0.088 S 
ATOM      3  C   UNL     1       8.979  -0.634  -1.174  0.00  0.00    +0.023 A 
ATOM      4  C   UNL     1      10.209  -1.257  -1.466  0.00  0.00    +0.061 A 
ATOM      5  C   UNL     1      11.309  -0.448  -1.727  0.00  0.00    +0.118 A 
ATOM      6  C   UNL     1      11.212   0.934  -1.700  0.00  0.00    +0.046 A 
ATOM      7  C   UNL     1       9.988   1.543  -1.402  0.00  0.00    +0.012 A 
ATOM      8  C   UNL     1       8.843   0.753  -1.132  0.00  0.00    -0.010 A 
ATOM      9  C   UNL     1       7.492   1.131  -0.810  0.00  0.00    +0.024 A 
ENDROOT
BRANCH   1  13
ATOM     10  C   UNL     1       2.405  -0.034   0.034  0.00  0.00    +0.117 A 
ATOM     11  C   UNL     1       3.199  -1.045   0.554  0.00  0.00    +0.046 A 
ATOM     12  C   UNL     1       4.583  -1.003   0.367  0.00  0.00    +0.012 A 
ATOM     13  C   UNL     1       5.189   0.042  -0.352  0.00  0.00    -0.011 A 
ATOM     14  C   UNL     1       4.363   1.071  -0.837  0.00  0.00    +0.012 A 
ATOM     15  C   UNL     1       2.975   1.033  -0.648  0.00  0.00    +0.046 A 
BRANCH  10  16
ATOM     16  O   UNL     1       1.057  -0.134   0.207  0.00  0.00    -0.507 OA
ATOM     17  H   UNL     1       0.625   0.580  -0.291  0.00  0.00    +0.292 HD
ENDBRANCH  10  16
ENDBRANCH   1  13
BRANCH   5  18
ATOM     18  O   UNL     1      12.527  -0.993  -2.023  0.00  0.00    -0.507 OA
ATOM     19  H   UNL     1      12.446  -1.961  -2.008  0.00  0.00    +0.292 HD
ENDBRANCH   5  18
TORSDOF 3
