REMARK  Name = 
REMARK  6 active torsions:
REMARK  status: ('A' for Active; 'I' for Inactive)
REMARK    1  A    between atoms: C_4  and  C_27
REMARK    2  A    between atoms: C_6  and  O_7
REMARK    3  A    between atoms: O_7  and  C_8
REMARK    4  A    between atoms: C_13  and  O_14
REMARK    5  A    between atoms: O_14  and  C_15
REMARK    6  A    between atoms: C_15  and  C_16
REMARK                            x       y       z     vdW  Elec       q    Type
REMARK                         _______ _______ _______ _____ _____    ______ ____
ROOT
ATOM      1  C   UNL     1       4.779  -3.543  -0.143  0.00  0.00    +0.150 A 
ATOM      2  C   UNL     1       3.424  -3.662  -0.473  0.00  0.00    +0.093 A 
ATOM      3  C   UNL     1       2.836  -4.921  -0.615  0.00  0.00    +0.125 A 
ATOM      4  C   UNL     1       3.602  -6.071  -0.414  0.00  0.00    +0.047 A 
ATOM      5  C   UNL     1       4.944  -5.965  -0.046  0.00  0.00    +0.027 A 
ATOM      6  C   UNL     1       5.529  -4.705   0.090  0.00  0.00    +0.083 A 
ATOM      7 CL   UNL     1       7.188  -4.623   0.567  0.00  0.00    -0.080 Cl
ENDROOT
BRANCH   1   8
ATOM      8  O   UNL     1       5.402  -2.335   0.080  0.00  0.00    -0.454 OA
BRANCH   8  12
ATOM      9 CL   UNL     1       3.801   0.228  -4.099  0.00  0.00    -0.083 Cl
ATOM     10  C   UNL     1       4.323   0.133  -2.462  0.00  0.00    +0.046 A 
ATOM     11  C   UNL     1       4.601  -1.112  -1.895  0.00  0.00    +0.066 A 
ATOM     12  C   UNL     1       5.010  -1.184  -0.562  0.00  0.00    +0.131 A 
ATOM     13  C   UNL     1       5.163  -0.009   0.183  0.00  0.00    +0.065 A 
ATOM     14  C   UNL     1       4.892   1.239  -0.391  0.00  0.00    +0.057 A 
ATOM     15  C   UNL     1       4.474   1.308  -1.724  0.00  0.00    +0.039 A 
BRANCH  14  16
ATOM     16  C   UNL     1       5.058   2.436   0.376  0.00  0.00    +0.099 C 
ATOM     17  N   UNL     1       5.184   3.413   0.992  0.00  0.00    -0.191 NA
ENDBRANCH  14  16
ENDBRANCH   8  12
ENDBRANCH   1   8
BRANCH   3  18
ATOM     18  O   UNL     1       1.533  -5.143  -0.969  0.00  0.00    -0.486 OA
BRANCH  18  19
ATOM     19  C   UNL     1       0.592  -4.101  -0.650  0.00  0.00    +0.286 C 
BRANCH  19  20
ATOM     20  C   UNL     1       0.452  -3.043  -1.704  0.00  0.00    +0.108 A 
ATOM     21  C   UNL     1       0.557  -3.176  -3.118  0.00  0.00    +0.026 A 
ATOM     22  C   UNL     1       0.810  -4.219  -4.027  0.00  0.00    +0.012 A 
ATOM     23  C   UNL     1       0.843  -3.932  -5.397  0.00  0.00    +0.001 A 
ATOM     24  C   UNL     1       0.625  -2.635  -5.861  0.00  0.00    +0.002 A 
ATOM     25  C   UNL     1       0.370  -1.584  -4.975  0.00  0.00    +0.028 A 
ATOM     26  C   UNL     1       0.348  -1.893  -3.612  0.00  0.00    +0.066 A 
ATOM     27  N   UNL     1       0.139  -1.111  -2.510  0.00  0.00    -0.277 N 
ATOM     28  H   UNL     1      -0.054  -0.117  -2.490  0.00  0.00    +0.189 HD
ATOM     29  N   UNL     1       0.211  -1.772  -1.342  0.00  0.00    -0.174 NA
ENDBRANCH  19  20
ENDBRANCH  18  19
ENDBRANCH   3  18
TORSDOF 6
