REMARK  Name = 
REMARK  0 active torsions:
REMARK  status: ('A' for Active; 'I' for Inactive)
REMARK                            x       y       z     vdW  Elec       q    Type
REMARK                         _______ _______ _______ _____ _____    ______ ____
ROOT
ATOM      1  O   UNL     1       1.045   0.239  -0.021  0.00  0.00    -0.267 OA
ATOM      2  C   UNL     1       2.270   0.172  -0.024  0.00  0.00    +0.260 A 
ATOM      3  C   UNL     1       3.025  -1.065  -0.038  0.00  0.00    +0.075 A 
ATOM      4  C   UNL     1       2.570  -2.421  -0.064  0.00  0.00    -0.023 A 
ATOM      5  C   UNL     1       1.147  -2.899  -0.080  0.00  0.00    +0.037 C 
ATOM      6  C   UNL     1       1.052  -4.387  -0.456  0.00  0.00    +0.005 C 
ATOM      7  C   UNL     1       2.095  -5.229   0.292  0.00  0.00    +0.005 C 
ATOM      8  C   UNL     1       3.528  -4.793  -0.055  0.00  0.00    +0.043 C 
ATOM      9  C   UNL     1       3.638  -3.300  -0.036  0.00  0.00    -0.004 A 
ATOM     10  S   UNL     1       5.144  -2.508  -0.021  0.00  0.00    -0.073 S 
ATOM     11  C   UNL     1       4.404  -0.969  -0.022  0.00  0.00    +0.116 A 
ATOM     12  N   UNL     1       5.139   0.175  -0.004  0.00  0.00    -0.230 NA
ATOM     13  C   UNL     1       4.430   1.257   0.002  0.00  0.00    +0.200 A 
ATOM     14  N   UNL     1       3.058   1.301  -0.007  0.00  0.00    -0.313 N 
ATOM     15  H   UNL     1       2.567   2.182   0.005  0.00  0.00    +0.170 HD
ENDROOT
TORSDOF 0
