REMARK  Name = 
REMARK  4 active torsions:
REMARK  status: ('A' for Active; 'I' for Inactive)
REMARK    1  A    between atoms: C_1  and  C_2
REMARK    2  A    between atoms: C_6  and  C_8
REMARK    3  A    between atoms: C_10  and  N_11
REMARK    4  A    between atoms: N_11  and  C_12
REMARK                            x       y       z     vdW  Elec       q    Type
REMARK                         _______ _______ _______ _____ _____    ______ ____
ROOT
ATOM      1  C   UNL     1       5.419  -2.469   0.046  0.00  0.00    +0.181 A 
ATOM      2  N   UNL     1       6.683  -2.507  -0.408  0.00  0.00    -0.226 NA
ATOM      3  C   UNL     1       7.250  -3.705  -0.567  0.00  0.00    +0.077 A 
ATOM      4  C   UNL     1       6.587  -4.907  -0.287  0.00  0.00    +0.040 A 
ATOM      5  C   UNL     1       7.250  -6.141  -0.518  0.00  0.00    +0.013 A 
ATOM      6  C   UNL     1       8.552  -6.167  -1.015  0.00  0.00    +0.001 A 
ATOM      7  C   UNL     1       9.212  -4.971  -1.262  0.00  0.00    +0.002 A 
ATOM      8  C   UNL     1       5.295  -4.765   0.243  0.00  0.00    +0.135 A 
ATOM      9  C   UNL     1       8.557  -3.759  -1.033  0.00  0.00    +0.028 A 
ATOM     10  N   UNL     1       4.718  -3.562   0.396  0.00  0.00    -0.210 NA
ENDROOT
BRANCH   1  14
ATOM     11  C   UNL     1       5.581   2.375  -0.457  0.00  0.00    +0.065 C 
ATOM     12  C   UNL     1       4.782   1.164  -0.082  0.00  0.00    +0.039 A 
ATOM     13  N   UNL     1       5.417  -0.032  -0.149  0.00  0.00    -0.249 NA
ATOM     14  C   UNL     1       4.714  -1.164   0.142  0.00  0.00    +0.108 A 
ATOM     15  C   UNL     1       3.363  -1.100   0.498  0.00  0.00    +0.031 A 
ATOM     16  C   UNL     1       2.723   0.133   0.563  0.00  0.00    +0.004 A 
ATOM     17  C   UNL     1       3.441   1.283   0.267  0.00  0.00    +0.023 A 
ENDBRANCH   1  14
BRANCH   8  18
ATOM     18  N   UNL     1       4.550  -5.910   0.631  0.00  0.00    -0.299 N 
ATOM     19  H   UNL     1       4.369  -6.490  -0.181  0.00  0.00    +0.154 HD
BRANCH  18  20
ATOM     20  C   UNL     1       3.502  -5.937   1.585  0.00  0.00    +0.033 A 
ATOM     21  C   UNL     1       2.477  -6.895   1.473  0.00  0.00    +0.034 A 
ATOM     22  C   UNL     1       1.477  -6.964   2.465  0.00  0.00    +0.021 A 
ATOM     23  C   UNL     1       1.534  -6.100   3.551  0.00  0.00    +0.066 A 
ATOM     24  N   UNL     1       0.452  -6.417   4.329  0.00  0.00    -0.277 N 
ATOM     25  H   UNL     1       0.180  -5.997   5.210  0.00  0.00    +0.189 HD
ATOM     26  N   UNL     1      -0.306  -7.410   3.833  0.00  0.00    -0.181 NA
ATOM     27  C   UNL     1       2.543  -5.152   3.711  0.00  0.00    +0.029 A 
ATOM     28  C   UNL     1       0.321  -7.742   2.700  0.00  0.00    +0.142 A 
ATOM     29  C   UNL     1       3.524  -5.100   2.713  0.00  0.00    +0.025 A 
ENDBRANCH  18  20
ENDBRANCH   8  18
TORSDOF 3
