REMARK  Name = 
REMARK  9 active torsions:
REMARK  status: ('A' for Active; 'I' for Inactive)
REMARK    1  A    between atoms: C_1  and  C_2
REMARK    2  A    between atoms: C_2  and  C_3
REMARK    3  A    between atoms: C_2  and  C_4
REMARK    4  A    between atoms: C_5  and  C_6
REMARK    5  A    between atoms: C_6  and  C_7
REMARK    6  A    between atoms: N_13  and  C_14
REMARK    7  A    between atoms: C_14  and  O_15
REMARK    8  A    between atoms: O_15  and  C_16
REMARK    9  A    between atoms: C_16  and  C_17
REMARK                            x       y       z     vdW  Elec       q    Type
REMARK                         _______ _______ _______ _____ _____    ______ ____
ROOT
ATOM      1  C   UNL     1       2.963  -0.445  -1.467  0.00  0.00    +0.039 A 
ATOM      2  C   UNL     1       3.028  -1.776  -2.146  0.00  0.00    +0.258 A 
ATOM      3  O   UNL     1       2.501  -2.785  -1.694  0.00  0.00    -0.267 OA
ATOM      4  N   UNL     1       3.706  -1.831  -3.316  0.00  0.00    -0.275 N 
ATOM      5  H   UNL     1       3.700  -2.719  -3.795  0.00  0.00    +0.173 HD
ATOM      6  C   UNL     1       4.133  -0.763  -4.029  0.00  0.00    +0.331 A 
ATOM      7  O   UNL     1       4.508  -0.933  -5.188  0.00  0.00    -0.246 OA
ATOM      8  N   UNL     1       4.093   0.465  -3.383  0.00  0.00    -0.273 N 
ATOM      9  C   UNL     1       3.551   0.619  -2.082  0.00  0.00    +0.039 A 
ENDROOT
BRANCH   1  11
ATOM     10  C   UNL     1       0.762  -0.872  -0.230  0.00  0.00    +0.012 C 
ATOM     11  C   UNL     1       2.230  -0.431  -0.124  0.00  0.00    +0.020 C 
ATOM     12  C   UNL     1       2.954  -1.241   0.955  0.00  0.00    +0.012 C 
ENDBRANCH   1  11
BRANCH   8  13
ATOM     13  C   UNL     1       4.522   1.594  -4.205  0.00  0.00    +0.289 C 
BRANCH  13  14
ATOM     14  O   UNL     1       5.549   2.356  -3.591  0.00  0.00    -0.355 OA
BRANCH  14  15
ATOM     15  C   UNL     1       6.785   1.648  -3.498  0.00  0.00    +0.197 C 
BRANCH  15  16
ATOM     16  C   UNL     1       7.838   2.537  -2.883  0.00  0.00    -0.022 A 
ATOM     17  C   UNL     1       7.848   3.921  -3.108  0.00  0.00    +0.006 A 
ATOM     18  C   UNL     1       8.772   4.742  -2.458  0.00  0.00    +0.000 A 
ATOM     19  C   UNL     1       9.715   4.185  -1.597  0.00  0.00    +0.000 A 
ATOM     20  C   UNL     1       9.749   2.805  -1.403  0.00  0.00    +0.000 A 
ATOM     21  C   UNL     1       8.821   1.984  -2.048  0.00  0.00    +0.006 A 
ENDBRANCH  15  16
ENDBRANCH  14  15
ENDBRANCH  13  14
ENDBRANCH   8  13
BRANCH   9  22
ATOM     22  C   UNL     1       3.567   2.020  -1.445  0.00  0.00    +0.089 C 
BRANCH  22  23
ATOM     23  C   UNL     1       4.811   2.410  -0.655  0.00  0.00    -0.042 A 
ATOM     24  C   UNL     1       5.553   1.506   0.112  0.00  0.00    +0.004 A 
ATOM     25  C   UNL     1       6.706   1.910   0.802  0.00  0.00    +0.000 A 
ATOM     26  C   UNL     1       7.121   3.236   0.746  0.00  0.00    +0.000 A 
ATOM     27  C   UNL     1       6.375   4.160   0.022  0.00  0.00    +0.000 A 
ATOM     28  C   UNL     1       5.224   3.752  -0.664  0.00  0.00    +0.004 A 
ENDBRANCH  22  23
ENDBRANCH   9  22
TORSDOF 7
