REMARK  Name = 
REMARK  14 active torsions:
REMARK  status: ('A' for Active; 'I' for Inactive)
REMARK    1  A    between atoms: C_2  and  C_3
REMARK    2  A    between atoms: C_3  and  O_4
REMARK    3  A    between atoms: C_6  and  S_8
REMARK    4  A    between atoms: S_8  and  C_9
REMARK    5  A    between atoms: C_9  and  C_10
REMARK    6  A    between atoms: C_10  and  C_11
REMARK    7  A    between atoms: C_11  and  C_12
REMARK    8  A    between atoms: C_12  and  C_13
REMARK    9  A    between atoms: C_13  and  C_14
REMARK   10  A    between atoms: C_14  and  C_15
REMARK   11  A    between atoms: C_15  and  C_16
REMARK   12  A    between atoms: C_17  and  O_19
REMARK   13  A    between atoms: C_20  and  O_22
REMARK   14  A    between atoms: C_23  and  O_25
REMARK                            x       y       z     vdW  Elec       q    Type
REMARK                         _______ _______ _______ _____ _____    ______ ____
ROOT
ATOM      1  C   UNL     1       1.919  -4.992  -3.019  0.00  0.00    +0.176 C 
ATOM      2  C   UNL     1       2.759  -5.387  -1.793  0.00  0.00    +0.176 C 
ATOM      3  C   UNL     1       2.635  -4.376  -0.645  0.00  0.00    +0.177 C 
ATOM      4  C   UNL     1       2.891  -2.949  -1.156  0.00  0.00    +0.184 C 
ATOM      5  C   UNL     1       2.025  -2.611  -2.392  0.00  0.00    +0.207 C 
ATOM      6  O   UNL     1       2.068  -3.613  -3.409  0.00  0.00    -0.355 OA
ENDROOT
BRANCH   2   7
ATOM      7  O   UNL     1       4.133  -5.503  -2.200  0.00  0.00    -0.386 OA
ATOM      8  H   UNL     1       4.511  -4.597  -2.210  0.00  0.00    +0.210 HD
ENDBRANCH   2   7
BRANCH   3   9
ATOM      9  O   UNL     1       1.385  -4.514   0.029  0.00  0.00    -0.386 OA
ATOM     10  H   UNL     1       0.742  -3.873  -0.329  0.00  0.00    +0.210 HD
ENDBRANCH   3   9
BRANCH   4  11
ATOM     11  O   UNL     1       4.287  -2.853  -1.520  0.00  0.00    -0.386 OA
ATOM     12  H   UNL     1       4.479  -1.913  -1.696  0.00  0.00    +0.210 HD
ENDBRANCH   4  11
BRANCH   1  13
ATOM     13  C   UNL     1       0.442  -5.410  -2.899  0.00  0.00    +0.190 C 
BRANCH  13  14
ATOM     14  O   UNL     1      -0.280  -5.129  -4.101  0.00  0.00    -0.392 OA
ATOM     15  H   UNL     1       0.353  -5.133  -4.840  0.00  0.00    +0.210 HD
ENDBRANCH  13  14
ENDBRANCH   1  13
BRANCH   5  16
ATOM     16  S   UNL     1       0.335  -2.096  -1.938  0.00  0.00    -0.127 S 
BRANCH  16  17
ATOM     17  C   UNL     1      -0.214  -1.455  -3.560  0.00  0.00    +0.072 C 
BRANCH  17  18
ATOM     18  C   UNL     1      -1.662  -0.974  -3.463  0.00  0.00    +0.011 C 
BRANCH  18  19
ATOM     19  C   UNL     1      -2.157  -0.380  -4.788  0.00  0.00    +0.001 C 
BRANCH  19  20
ATOM     20  C   UNL     1      -3.612   0.086  -4.671  0.00  0.00    +0.000 C 
BRANCH  20  21
ATOM     21  C   UNL     1      -4.128   0.685  -5.982  0.00  0.00    -0.000 C 
BRANCH  21  22
ATOM     22  C   UNL     1      -5.584   1.143  -5.849  0.00  0.00    -0.000 C 
BRANCH  22  23
ATOM     23  C   UNL     1      -6.106   1.738  -7.157  0.00  0.00    -0.003 C 
ATOM     24  C   UNL     1      -7.552   2.192  -7.028  0.00  0.00    +0.004 C 
ENDBRANCH  22  23
ENDBRANCH  21  22
ENDBRANCH  20  21
ENDBRANCH  19  20
ENDBRANCH  18  19
ENDBRANCH  17  18
ENDBRANCH  16  17
ENDBRANCH   5  16
TORSDOF 13
