REMARK  Name = 
REMARK  8 active torsions:
REMARK  status: ('A' for Active; 'I' for Inactive)
REMARK    1  A    between atoms: C_2  and  N_8
REMARK    2  A    between atoms: C_9  and  C_11
REMARK    3  A    between atoms: C_11  and  C_12
REMARK    4  A    between atoms: C_12  and  C_14
REMARK    5  A    between atoms: C_14  and  C_15
REMARK    6  A    between atoms: C_15  and  C_16
REMARK    7  A    between atoms: C_16  and  C_17
REMARK    8  A    between atoms: C_17  and  C_18
REMARK                            x       y       z     vdW  Elec       q    Type
REMARK                         _______ _______ _______ _____ _____    ______ ____
ROOT
ATOM      1  N   UNL     1       0.396  -0.586   2.340  0.00  0.00    -0.302 N 
ATOM      2  H   UNL     1      -0.187  -0.759   3.160  0.00  0.00    +0.150 HD
ATOM      3  C   UNL     1      -0.102   0.214   1.343  0.00  0.00    +0.221 C 
ATOM      4  O   UNL     1       0.601   0.677   0.449  0.00  0.00    -0.275 OA
ENDROOT
BRANCH   1   5
ATOM      5  C   UNL     1       1.819  -0.852   2.441  0.00  0.00    +0.185 C 
ATOM      6  C   UNL     1       2.177  -1.796   3.574  0.00  0.00    +0.328 C 
ATOM      7  O   UNL     1       1.541  -2.778   3.922  0.00  0.00    -0.249 OA
ATOM      8  O   UNL     1       3.348  -1.395   4.157  0.00  0.00    -0.463 OA
ATOM      9  C   UNL     1       3.819  -0.215   3.506  0.00  0.00    +0.234 C 
ATOM     10  C   UNL     1       2.625   0.375   2.804  0.00  0.00    +0.075 C 
ENDBRANCH   1   5
BRANCH   3  11
ATOM     11  C   UNL     1      -1.591   0.428   1.364  0.00  0.00    +0.170 C 
BRANCH  11  12
ATOM     12  C   UNL     1      -2.137   1.023   2.639  0.00  0.00    +0.142 C 
ATOM     13  O   UNL     1      -1.653   0.752   3.740  0.00  0.00    -0.297 OA
BRANCH  12  14
ATOM     14  C   UNL     1      -3.337   1.945   2.516  0.00  0.00    +0.075 C 
BRANCH  14  15
ATOM     15  C   UNL     1      -4.518   1.228   1.869  0.00  0.00    +0.007 C 
BRANCH  15  16
ATOM     16  C   UNL     1      -5.740   2.135   1.730  0.00  0.00    +0.000 C 
BRANCH  16  17
ATOM     17  C   UNL     1      -6.889   1.385   1.055  0.00  0.00    -0.003 C 
ATOM     18  C   UNL     1      -8.121   2.259   0.895  0.00  0.00    +0.004 C 
ENDBRANCH  16  17
ENDBRANCH  15  16
ENDBRANCH  14  15
ENDBRANCH  12  14
ENDBRANCH  11  12
ENDBRANCH   3  11
TORSDOF 7
