REMARK  Name = 
REMARK  17 active torsions:
REMARK  status: ('A' for Active; 'I' for Inactive)
REMARK    1  A    between atoms: C_2  and  C_3
REMARK    2  A    between atoms: C_5  and  O_7
REMARK    3  A    between atoms: O_7  and  C_8
REMARK    4  A    between atoms: C_8  and  C_9
REMARK    5  A    between atoms: C_12  and  O_14
REMARK    6  A    between atoms: O_14  and  C_15
REMARK    7  A    between atoms: C_17  and  O_18
REMARK    8  A    between atoms: C_23  and  C_27
REMARK    9  A    between atoms: C_29  and  O_30
REMARK   10  A    between atoms: C_31  and  O_32
REMARK   11  A    between atoms: O_32  and  C_33
REMARK   12  A    between atoms: C_36  and  O_38
REMARK   13  A    between atoms: C_39  and  O_41
REMARK   14  A    between atoms: C_42  and  O_44
REMARK   15  A    between atoms: C_45  and  O_47
REMARK   16  A    between atoms: C_48  and  O_50
REMARK   17  A    between atoms: C_51  and  O_53
REMARK                            x       y       z     vdW  Elec       q    Type
REMARK                         _______ _______ _______ _____ _____    ______ ____
ROOT
ATOM      1  C   UNL     1      -1.307  -1.556  -2.995  0.00  0.00    +0.179 C 
ATOM      2  C   UNL     1      -2.221  -0.391  -2.555  0.00  0.00    +0.177 C 
ATOM      3  C   UNL     1      -1.919   0.128  -1.142  0.00  0.00    +0.180 C 
ATOM      4  C   UNL     1      -1.780  -1.049  -0.159  0.00  0.00    +0.214 C 
ATOM      5  C   UNL     1      -0.711  -2.052  -0.669  0.00  0.00    +0.339 C 
ATOM      6  O   UNL     1      -1.049  -2.535  -1.968  0.00  0.00    -0.331 OA
ENDROOT
BRANCH   2   7
ATOM      7  O   UNL     1      -3.588  -0.836  -2.615  0.00  0.00    -0.386 OA
ATOM      8  H   UNL     1      -3.760  -1.357  -1.802  0.00  0.00    +0.210 HD
ENDBRANCH   2   7
BRANCH   3   9
ATOM      9  O   UNL     1      -0.783   0.995  -1.133  0.00  0.00    -0.386 OA
ATOM     10  H   UNL     1       0.031   0.467  -1.210  0.00  0.00    +0.210 HD
ENDBRANCH   3   9
BRANCH   4  11
ATOM     11  O   UNL     1      -3.067  -1.681  -0.031  0.00  0.00    -0.383 OA
ATOM     12  H   UNL     1      -3.015  -2.322   0.701  0.00  0.00    +0.210 HD
ENDBRANCH   4  11
BRANCH   1  13
ATOM     13  C   UNL     1      -0.011  -1.061  -3.662  0.00  0.00    +0.197 C 
BRANCH  13  14
ATOM     14  O   UNL     1       0.623  -2.165  -4.320  0.00  0.00    -0.346 OA
BRANCH  14  19
ATOM     15  C   UNL     1       2.366  -0.635  -7.064  0.00  0.00    +0.149 C 
ATOM     16  C   UNL     1       3.033  -1.906  -7.608  0.00  0.00    +0.174 C 
ATOM     17  C   UNL     1       2.297  -3.127  -7.058  0.00  0.00    +0.179 C 
ATOM     18  C   UNL     1       2.434  -3.118  -5.530  0.00  0.00    +0.201 C 
ATOM     19  C   UNL     1       1.875  -1.807  -4.935  0.00  0.00    +0.282 C 
ATOM     20  O   UNL     1       1.648  -0.737  -5.840  0.00  0.00    -0.343 OA
ATOM     21  C   UNL     1       3.331   0.546  -7.031  0.00  0.00    +0.041 C 
BRANCH  16  22
ATOM     22  O   UNL     1       3.025  -1.852  -9.044  0.00  0.00    -0.387 OA
ATOM     23  H   UNL     1       2.104  -1.920  -9.344  0.00  0.00    +0.210 HD
ENDBRANCH  16  22
BRANCH  17  24
ATOM     24  O   UNL     1       2.825  -4.331  -7.627  0.00  0.00    -0.386 OA
ATOM     25  H   UNL     1       2.346  -5.082  -7.240  0.00  0.00    +0.210 HD
ENDBRANCH  17  24
BRANCH  18  26
ATOM     26  O   UNL     1       3.818  -3.253  -5.157  0.00  0.00    -0.384 OA
ATOM     27  H   UNL     1       3.852  -3.601  -4.246  0.00  0.00    +0.210 HD
ENDBRANCH  18  26
ENDBRANCH  14  19
ENDBRANCH  13  14
ENDBRANCH   1  13
BRANCH   5  28
ATOM     28  O   UNL     1       0.562  -1.406  -0.591  0.00  0.00    -0.461 OA
BRANCH  28  29
ATOM     29  C   UNL     1       1.727  -2.104  -0.721  0.00  0.00    +0.131 A 
ATOM     30  C   UNL     1       2.854  -1.348  -0.388  0.00  0.00    +0.093 A 
ATOM     31  C   UNL     1       4.142  -1.866  -0.520  0.00  0.00    +0.146 A 
ATOM     32  C   UNL     1       4.334  -3.152  -1.010  0.00  0.00    +0.105 A 
ATOM     33  C   UNL     1       5.732  -3.627  -1.126  0.00  0.00    +0.197 A 
ATOM     34  C   UNL     1       6.789  -2.723  -0.610  0.00  0.00    +0.098 A 
ATOM     35  C   UNL     1       6.467  -1.500  -0.165  0.00  0.00    +0.139 A 
ATOM     36  O   UNL     1       6.058  -4.703  -1.608  0.00  0.00    -0.287 OA
ATOM     37  C   UNL     1       3.204  -3.913  -1.362  0.00  0.00    +0.135 A 
ATOM     38  O   UNL     1       5.163  -1.029  -0.153  0.00  0.00    -0.454 OA
ATOM     39  C   UNL     1       1.900  -3.402  -1.197  0.00  0.00    +0.092 A 
BRANCH  35  40
ATOM     40  C   UNL     1       7.457  -0.523   0.374  0.00  0.00    +0.021 A 
ATOM     41  C   UNL     1       7.024   0.511   1.225  0.00  0.00    +0.015 A 
ATOM     42  C   UNL     1       7.909   1.475   1.736  0.00  0.00    +0.050 A 
ATOM     43  C   UNL     1       9.262   1.430   1.411  0.00  0.00    +0.161 A 
ATOM     44  C   UNL     1       9.706   0.403   0.569  0.00  0.00    +0.159 A 
ATOM     45  C   UNL     1       8.823  -0.557   0.050  0.00  0.00    +0.060 A 
BRANCH  43  46
ATOM     46  O   UNL     1      10.211   2.313   1.852  0.00  0.00    -0.491 OA
ATOM     47  C   UNL     1       9.786   3.387   2.679  0.00  0.00    +0.277 C 
ENDBRANCH  43  46
BRANCH  44  48
ATOM     48  O   UNL     1      11.038   0.346   0.248  0.00  0.00    -0.503 OA
ATOM     49  H   UNL     1      11.215  -0.451  -0.274  0.00  0.00    +0.292 HD
ENDBRANCH  44  48
ENDBRANCH  35  40
BRANCH  37  50
ATOM     50  O   UNL     1       3.360  -5.157  -1.908  0.00  0.00    -0.506 OA
ATOM     51  H   UNL     1       2.504  -5.596  -2.036  0.00  0.00    +0.292 HD
ENDBRANCH  37  50
ENDBRANCH  28  29
ENDBRANCH   5  28
TORSDOF 15
