REMARK  Name = 
REMARK  6 active torsions:
REMARK  status: ('A' for Active; 'I' for Inactive)
REMARK    1  A    between atoms: O_1  and  C_2
REMARK    2  A    between atoms: C_2  and  C_4
REMARK    3  A    between atoms: C_4  and  C_5
REMARK    4  A    between atoms: C_5  and  N_6
REMARK    5  A    between atoms: C_11  and  C_12
REMARK    6  A    between atoms: C_15  and  C_17
REMARK                            x       y       z     vdW  Elec       q    Type
REMARK                         _______ _______ _______ _____ _____    ______ ____
ROOT
ATOM      1  N   UNL     1       5.374   0.840  -2.269  0.00  0.00    -0.255 N 
ATOM      2  C   UNL     1       5.501   0.145  -3.459  0.00  0.00    +0.258 C 
ATOM      3  O   UNL     1       5.311  -1.052  -3.632  0.00  0.00    -0.269 OA
ATOM      4  C   UNL     1       5.885   1.051  -4.568  0.00  0.00    +0.080 C 
ATOM      5  C   UNL     1       6.103   0.558  -5.794  0.00  0.00    +0.066 C 
ATOM      6  S   UNL     1       5.975   2.664  -4.005  0.00  0.00    -0.061 S 
ATOM      7  C   UNL     1       5.606   2.205  -2.347  0.00  0.00    +0.121 C 
ATOM      8  S   UNL     1       5.580   3.336  -1.120  0.00  0.00    -0.027 S 
ENDROOT
BRANCH   5   9
ATOM      9  C   UNL     1       6.318   1.356  -6.944  0.00  0.00    +0.130 A 
ATOM     10  O   UNL     1       5.644   2.530  -7.187  0.00  0.00    -0.455 OA
ATOM     11  C   UNL     1       6.007   3.006  -8.410  0.00  0.00    +0.136 A 
ATOM     12  C   UNL     1       6.933   2.153  -8.973  0.00  0.00    +0.050 A 
ATOM     13  C   UNL     1       7.127   1.103  -8.044  0.00  0.00    +0.050 A 
BRANCH  11  14
ATOM     14  C   UNL     1       5.368   4.249  -8.836  0.00  0.00    +0.017 A 
ATOM     15  C   UNL     1       4.504   4.959  -7.987  0.00  0.00    +0.013 A 
ATOM     16  C   UNL     1       3.936   6.173  -8.390  0.00  0.00    +0.021 A 
ATOM     17  C   UNL     1       4.226   6.686  -9.651  0.00  0.00    +0.041 A 
ATOM     18 CL   UNL     1       3.561   8.195 -10.139  0.00  0.00    -0.084 Cl
ATOM     19  C   UNL     1       5.061   5.987 -10.517  0.00  0.00    +0.021 A 
ATOM     20  C   UNL     1       5.626   4.774 -10.112  0.00  0.00    +0.013 A 
ENDBRANCH  11  14
ENDBRANCH   5   9
BRANCH   1  21
ATOM     21  C   UNL     1       4.776   0.193  -1.084  0.00  0.00    +0.126 C 
BRANCH  21  22
ATOM     22  C   UNL     1       5.211  -1.249  -0.825  0.00  0.00    +0.140 C 
BRANCH  22  23
ATOM     23  C   UNL     1       4.595  -1.786   0.437  0.00  0.00    +0.306 C 
ATOM     24  O   UNL     1       3.859  -1.161   1.182  0.00  0.00    -0.251 OA
BRANCH  23  25
ATOM     25  O   UNL     1       4.937  -3.076   0.663  0.00  0.00    -0.481 OA
ATOM     26  H   UNL     1       5.503  -3.463  -0.035  0.00  0.00    +0.295 HD
ENDBRANCH  23  25
ENDBRANCH  22  23
ENDBRANCH  21  22
ENDBRANCH   1  21
TORSDOF 6
