REMARK  Name = 
REMARK  8 active torsions:
REMARK  status: ('A' for Active; 'I' for Inactive)
REMARK    1  A    between atoms: O_1  and  C_2
REMARK    2  A    between atoms: C_2  and  C_3
REMARK    3  A    between atoms: C_3  and  O_4
REMARK    4  A    between atoms: O_4  and  N_5
REMARK    5  A    between atoms: C_6  and  C_8
REMARK    6  A    between atoms: C_15  and  N_16
REMARK    7  A    between atoms: N_16  and  C_17
REMARK    8  A    between atoms: C_20  and  C_24
REMARK                            x       y       z     vdW  Elec       q    Type
REMARK                         _______ _______ _______ _____ _____    ______ ____
ROOT
ATOM      1  C   UNL     1       6.587  -2.505  -3.593  0.00  0.00    +0.063 A 
ATOM      2  C   UNL     1       6.346  -3.864  -3.293  0.00  0.00    +0.082 A 
ATOM      3  C   UNL     1       6.757  -4.814  -4.259  0.00  0.00    +0.180 A 
ATOM      4  F   UNL     1       6.387  -6.100  -4.151  0.00  0.00    -0.201 F 
ATOM      5  C   UNL     1       7.537  -4.460  -5.353  0.00  0.00    +0.160 A 
ATOM      6  F   UNL     1       7.954  -5.400  -6.211  0.00  0.00    -0.202 F 
ATOM      7  C   UNL     1       7.895  -3.142  -5.561  0.00  0.00    +0.042 A 
ATOM      8  C   UNL     1       7.388  -2.164  -4.705  0.00  0.00    +0.018 A 
ENDROOT
BRANCH   1  11
ATOM      9  N   UNL     1       5.548  -1.591  -1.583  0.00  0.00    -0.190 N 
ATOM     10  H   UNL     1       5.982  -2.316  -1.019  0.00  0.00    +0.183 HD
ATOM     11  C   UNL     1       5.972  -1.356  -2.866  0.00  0.00    +0.269 C 
ATOM     12  O   UNL     1       5.834  -0.287  -3.455  0.00  0.00    -0.268 OA
BRANCH   9  13
ATOM     13  O   UNL     1       5.036  -0.469  -0.889  0.00  0.00    -0.277 OA
BRANCH  13  14
ATOM     14  C   UNL     1       3.613  -0.465  -1.058  0.00  0.00    +0.218 C 
BRANCH  14  15
ATOM     15  C   UNL     1       3.010   0.746  -0.362  0.00  0.00    +0.186 C 
BRANCH  15  16
ATOM     16  O   UNL     1       1.592   0.724  -0.494  0.00  0.00    -0.393 OA
ATOM     17  H   UNL     1       1.256   1.536  -0.077  0.00  0.00    +0.209 HD
ENDBRANCH  15  16
ENDBRANCH  14  15
ENDBRANCH  13  14
ENDBRANCH   9  13
ENDBRANCH   1  11
BRANCH   2  18
ATOM     18  N   UNL     1       5.699  -4.276  -2.083  0.00  0.00    -0.309 N 
ATOM     19  H   UNL     1       4.706  -4.022  -2.093  0.00  0.00    +0.152 HD
BRANCH  18  20
ATOM     20  C   UNL     1       5.864  -5.568  -1.501  0.00  0.00    +0.067 A 
ATOM     21  C   UNL     1       4.765  -6.292  -1.022  0.00  0.00    +0.146 A 
ATOM     22  F   UNL     1       3.561  -5.701  -0.967  0.00  0.00    -0.204 F 
ATOM     23  C   UNL     1       4.876  -7.639  -0.680  0.00  0.00    +0.057 A 
ATOM     24  C   UNL     1       6.112  -8.277  -0.802  0.00  0.00    +0.028 A 
ATOM     25  C   UNL     1       7.244  -7.537  -1.144  0.00  0.00    +0.019 A 
ATOM     26  C   UNL     1       7.125  -6.182  -1.460  0.00  0.00    +0.027 A 
BRANCH  24  27
ATOM     27  C   UNL     1       6.204  -9.702  -0.671  0.00  0.00    -0.070 C 
ATOM     28  C   UNL     1       6.276 -10.898  -0.665  0.00  0.00    +0.009 C 
ENDBRANCH  24  27
ENDBRANCH  18  20
ENDBRANCH   2  18
TORSDOF 8
