REMARK  Name = 
REMARK  10 active torsions:
REMARK  status: ('A' for Active; 'I' for Inactive)
REMARK    1  A    between atoms: O_1  and  C_2
REMARK    2  A    between atoms: C_2  and  C_4
REMARK    3  A    between atoms: C_4  and  C_6
REMARK    4  A    between atoms: C_6  and  C_7
REMARK    5  A    between atoms: C_7  and  C_9
REMARK    6  A    between atoms: C_13  and  N_15
REMARK    7  A    between atoms: N_15  and  C_16
REMARK    8  A    between atoms: N_15  and  C_23
REMARK    9  A    between atoms: C_16  and  C_17
REMARK   10  A    between atoms: C_23  and  C_24
REMARK                            x       y       z     vdW  Elec       q    Type
REMARK                         _______ _______ _______ _____ _____    ______ ____
ROOT
ATOM      1  C   UNL     1       6.606   1.214   2.787  0.00  0.00    +0.020 A 
ATOM      2  C   UNL     1       7.462   0.100   2.856  0.00  0.00    +0.034 A 
ATOM      3  C   UNL     1       8.817   0.187   2.494  0.00  0.00    +0.031 A 
ATOM      4  C   UNL     1       9.250   1.417   1.965  0.00  0.00    +0.023 A 
ATOM      5  C   UNL     1       8.413   2.534   1.893  0.00  0.00    +0.002 A 
ATOM      6  C   UNL     1       7.099   2.439   2.329  0.00  0.00    +0.011 A 
ENDROOT
BRANCH   1   7
ATOM      7  C   UNL     1       5.156   1.149   3.137  0.00  0.00    +0.171 C 
ATOM      8  O   UNL     1       4.378   1.941   2.607  0.00  0.00    -0.292 OA
BRANCH   7   9
ATOM      9  C   UNL     1       4.659   0.150   4.143  0.00  0.00    +0.166 C 
BRANCH   9  10
ATOM     10  C   UNL     1       4.390   0.757   5.484  0.00  0.00    +0.246 C 
ATOM     11  O   UNL     1       4.581   1.918   5.829  0.00  0.00    -0.285 OA
BRANCH  10  12
ATOM     12  C   UNL     1       3.858  -0.199   6.544  0.00  0.00    +0.373 C 
ATOM     13  O   UNL     1       3.697  -1.384   6.350  0.00  0.00    -0.242 OA
BRANCH  12  14
ATOM     14  O   UNL     1       3.627   0.452   7.700  0.00  0.00    -0.475 OA
ATOM     15  H   UNL     1       3.846   1.407   7.583  0.00  0.00    +0.295 HD
ENDBRANCH  12  14
ENDBRANCH  10  12
ENDBRANCH   9  10
ENDBRANCH   7   9
ENDBRANCH   1   7
BRANCH   3  16
ATOM     16  N   UNL     1       9.702  -0.872   2.666  0.00  0.00    -0.321 N 
BRANCH  16  17
ATOM     17  C   UNL     1       9.294  -2.280   2.553  0.00  0.00    +0.140 C 
BRANCH  17  18
ATOM     18  C   UNL     1       8.852  -3.016   3.810  0.00  0.00    -0.030 A 
ATOM     19  C   UNL     1       8.559  -4.390   3.672  0.00  0.00    +0.005 A 
ATOM     20  C   UNL     1       8.122  -5.160   4.752  0.00  0.00    +0.000 A 
ATOM     21  C   UNL     1       7.961  -4.571   6.000  0.00  0.00    +0.000 A 
ATOM     22  C   UNL     1       8.246  -3.216   6.161  0.00  0.00    +0.000 A 
ATOM     23  C   UNL     1       8.692  -2.443   5.078  0.00  0.00    +0.005 A 
ENDBRANCH  17  18
ENDBRANCH  16  17
BRANCH  16  24
ATOM     24  C   UNL     1      11.100  -0.589   3.021  0.00  0.00    +0.140 C 
BRANCH  24  25
ATOM     25  C   UNL     1      12.135  -0.707   1.912  0.00  0.00    -0.030 A 
ATOM     26  C   UNL     1      13.485  -0.538   2.279  0.00  0.00    +0.005 A 
ATOM     27  C   UNL     1      14.520  -0.804   1.382  0.00  0.00    +0.000 A 
ATOM     28  C   UNL     1      14.224  -1.222   0.090  0.00  0.00    +0.000 A 
ATOM     29  C   UNL     1      12.893  -1.308  -0.320  0.00  0.00    +0.000 A 
ATOM     30  C   UNL     1      11.853  -1.038   0.580  0.00  0.00    +0.005 A 
ENDBRANCH  24  25
ENDBRANCH  16  24
ENDBRANCH   3  16
TORSDOF 10
