REMARK  Name = 
REMARK  7 active torsions:
REMARK  status: ('A' for Active; 'I' for Inactive)
REMARK    1  A    between atoms: C_1  and  O_2
REMARK    2  A    between atoms: O_2  and  C_3
REMARK    3  A    between atoms: C_3  and  C_4
REMARK    4  A    between atoms: C_4  and  N_5
REMARK    5  A    between atoms: N_5  and  C_6
REMARK    6  A    between atoms: C_8  and  N_15
REMARK    7  A    between atoms: C_11  and  C_12
REMARK                            x       y       z     vdW  Elec       q    Type
REMARK                         _______ _______ _______ _____ _____    ______ ____
ROOT
ATOM      1  C   UNL     1       6.411   2.014   2.131  0.00  0.00    +0.041 A 
ATOM      2  C   UNL     1       7.278   0.919   2.348  0.00  0.00    +0.057 A 
ATOM      3  C   UNL     1       8.657   1.141   2.515  0.00  0.00    +0.017 A 
ATOM      4  C   UNL     1       9.200   2.430   2.456  0.00  0.00    +0.027 A 
ATOM      5  C   UNL     1       8.377   3.523   2.193  0.00  0.00    +0.049 A 
ATOM      6  C   UNL     1       7.006   3.291   2.013  0.00  0.00    +0.049 A 
ENDROOT
BRANCH   5   7
ATOM      7  N   UNL     1       8.905   4.857   2.085  0.00  0.00    -0.312 N 
ATOM      8  C   UNL     1      10.165   5.199   1.561  0.00  0.00    +0.055 A 
ATOM      9  C   UNL     1      10.308   6.591   1.643  0.00  0.00    +0.011 A 
ATOM     10  C   UNL     1      11.505   7.198   1.204  0.00  0.00    +0.011 A 
ATOM     11  C   UNL     1      12.523   6.420   0.656  0.00  0.00    +0.001 A 
ATOM     12  C   UNL     1      12.352   5.052   0.517  0.00  0.00    +0.002 A 
ATOM     13  C   UNL     1       9.098   7.113   2.150  0.00  0.00    +0.046 A 
ATOM     14  C   UNL     1       8.697   8.498   2.365  0.00  0.00    +0.165 C 
ATOM     15  C   UNL     1       7.245   8.712   2.764  0.00  0.00    +0.080 C 
ATOM     16  C   UNL     1       6.783   7.612   3.721  0.00  0.00    +0.014 C 
ATOM     17  C   UNL     1       6.917   6.211   3.094  0.00  0.00    +0.055 C 
ATOM     18  O   UNL     1       9.447   9.453   2.161  0.00  0.00    -0.292 OA
ATOM     19  C   UNL     1      11.177   4.426   0.949  0.00  0.00    +0.027 A 
ATOM     20  C   UNL     1       8.260   6.047   2.440  0.00  0.00    +0.035 A 
ENDBRANCH   5   7
BRANCH   2  21
ATOM     21  C   UNL     1       6.843  -0.509   2.413  0.00  0.00    +0.243 C 
ATOM     22  O   UNL     1       7.503  -1.362   2.990  0.00  0.00    -0.270 OA
ATOM     23  N   UNL     1       5.694  -0.853   1.758  0.00  0.00    -0.325 N 
ATOM     24  H   UNL     1       5.451  -1.833   1.707  0.00  0.00    +0.145 HD
ATOM     25  H   UNL     1       5.219  -0.185   1.161  0.00  0.00    +0.145 HD
ENDBRANCH   2  21
BRANCH   1  26
ATOM     26  N   UNL     1       5.018   1.840   1.937  0.00  0.00    -0.341 N 
ATOM     27  H   UNL     1       4.652   1.185   2.639  0.00  0.00    +0.146 HD
BRANCH  26  28
ATOM     28  C   UNL     1       4.168   3.040   1.869  0.00  0.00    +0.129 C 
BRANCH  28  29
ATOM     29  C   UNL     1       2.690   2.673   1.746  0.00  0.00    +0.178 C 
BRANCH  29  31
ATOM     30  C   UNL     1       0.864   1.741   2.895  0.00  0.00    +0.194 C 
ATOM     31  O   UNL     1       2.252   2.047   2.954  0.00  0.00    -0.381 OA
ENDBRANCH  29  31
ENDBRANCH  28  29
ENDBRANCH  26  28
ENDBRANCH   1  26
TORSDOF 6
