REMARK  Name = 
REMARK  5 active torsions:
REMARK  status: ('A' for Active; 'I' for Inactive)
REMARK    1  A    between atoms: C_3  and  N_4
REMARK    2  A    between atoms: N_7  and  C_8
REMARK    3  A    between atoms: C_8  and  C_9
REMARK    4  A    between atoms: C_13  and  N_14
REMARK    5  A    between atoms: C_15  and  C_17
REMARK                            x       y       z     vdW  Elec       q    Type
REMARK                         _______ _______ _______ _____ _____    ______ ____
ROOT
ATOM      1 CL   UNL     1       1.000   0.454   0.477  0.00  0.00    -0.082 Cl
ATOM      2  C   UNL     1       2.692   0.086   0.308  0.00  0.00    +0.064 A 
ATOM      3  C   UNL     1       3.507   1.236   0.324  0.00  0.00    +0.022 A 
ATOM      4  C   UNL     1       4.887   1.130   0.362  0.00  0.00    +0.003 A 
ATOM      5  C   UNL     1       5.460  -0.129   0.395  0.00  0.00    +0.025 A 
ATOM      6  C   UNL     1       4.663  -1.287   0.312  0.00  0.00    +0.056 A 
ATOM      7  C   UNL     1       3.237  -1.229   0.246  0.00  0.00    +0.070 A 
ENDROOT
BRANCH   7   8
ATOM      8  N   UNL     1       2.494  -2.413   0.087  0.00  0.00    -0.325 N 
ATOM      9  C   UNL     1       2.685  -3.545   1.025  0.00  0.00    +0.120 C 
ATOM     10  C   UNL     1       2.370  -4.865   0.272  0.00  0.00    +0.104 C 
ATOM     11  N   UNL     1       1.002  -4.946  -0.297  0.00  0.00    -0.289 NA
ATOM     12  C   UNL     1       0.773  -3.742  -1.132  0.00  0.00    +0.104 C 
ATOM     13  C   UNL     1       1.124  -2.389  -0.464  0.00  0.00    +0.120 C 
BRANCH  11  14
ATOM     14  C   UNL     1      -0.038  -5.075   0.733  0.00  0.00    +0.173 C 
BRANCH  14  15
ATOM     15  C   UNL     1       0.112  -6.332   1.480  0.00  0.00    -0.090 C 
ATOM     16  C   UNL     1       0.291  -7.357   2.083  0.00  0.00    +0.005 C 
ENDBRANCH  14  15
ENDBRANCH  11  14
ENDBRANCH   7   8
BRANCH   6  17
ATOM     17  N   UNL     1       5.347  -2.513   0.153  0.00  0.00    -0.277 N 
ATOM     18  H   UNL     1       4.870  -3.234  -0.375  0.00  0.00    +0.155 HD
ATOM     19  C   UNL     1       6.393  -2.909   0.973  0.00  0.00    +0.284 C 
ATOM     20  O   UNL     1       6.774  -2.274   1.954  0.00  0.00    -0.266 OA
BRANCH  19  21
ATOM     21  C   UNL     1       6.982  -4.180   0.610  0.00  0.00    +0.191 A 
ATOM     22  O   UNL     1       6.657  -4.762  -0.585  0.00  0.00    -0.444 OA
ATOM     23  C   UNL     1       7.432  -5.872  -0.711  0.00  0.00    +0.171 A 
ATOM     24 BR   UNL     1       7.441  -6.983  -2.208  0.00  0.00    -0.008 Br
ATOM     25  C   UNL     1       8.217  -6.043   0.406  0.00  0.00    +0.058 A 
ATOM     26  C   UNL     1       7.919  -4.958   1.265  0.00  0.00    +0.056 A 
ENDBRANCH  19  21
ENDBRANCH   6  17
TORSDOF 5
