REMARK  Name = 
REMARK  8 active torsions:
REMARK  status: ('A' for Active; 'I' for Inactive)
REMARK    1  A    between atoms: C_1  and  O_2
REMARK    2  A    between atoms: O_2  and  C_3
REMARK    3  A    between atoms: C_3  and  C_5
REMARK    4  A    between atoms: C_7  and  O_8
REMARK    5  A    between atoms: O_8  and  C_9
REMARK    6  A    between atoms: C_10  and  O_11
REMARK    7  A    between atoms: C_12  and  O_13
REMARK    8  A    between atoms: O_13  and  C_14
REMARK                            x       y       z     vdW  Elec       q    Type
REMARK                         _______ _______ _______ _____ _____    ______ ____
ROOT
ATOM      1  C   UNL     1       4.697  -1.182  -0.047  0.00  0.00    +0.066 A 
ATOM      2  C   UNL     1       5.380  -1.177  -1.269  0.00  0.00    +0.064 A 
ATOM      3  C   UNL     1       6.774  -1.125  -1.294  0.00  0.00    +0.166 A 
ATOM      4  C   UNL     1       7.499  -1.070  -0.082  0.00  0.00    +0.201 A 
ATOM      5  C   UNL     1       6.830  -1.090   1.150  0.00  0.00    +0.166 A 
ATOM      6  C   UNL     1       5.428  -1.140   1.146  0.00  0.00    +0.064 A 
ENDROOT
BRANCH   1   7
ATOM      7  C   UNL     1       3.211  -1.240   0.027  0.00  0.00    +0.339 C 
ATOM      8  O   UNL     1       2.580  -1.252   1.071  0.00  0.00    -0.245 OA
BRANCH   7  10
ATOM      9  C   UNL     1       1.258  -1.390  -1.260  0.00  0.00    +0.280 C 
ATOM     10  O   UNL     1       2.682  -1.291  -1.222  0.00  0.00    -0.464 OA
ENDBRANCH   7  10
ENDBRANCH   1   7
BRANCH   3  11
ATOM     11  O   UNL     1       7.519  -1.142  -2.449  0.00  0.00    -0.491 OA
ATOM     12  C   UNL     1       6.823  -1.219  -3.687  0.00  0.00    +0.277 C 
ENDBRANCH   3  11
BRANCH   4  13
ATOM     13  O   UNL     1       8.859  -0.966  -0.211  0.00  0.00    -0.501 OA
ATOM     14  H   UNL     1       9.286  -1.475   0.486  0.00  0.00    +0.292 HD
ENDBRANCH   4  13
BRANCH   5  15
ATOM     15  O   UNL     1       7.317  -1.048   2.425  0.00  0.00    -0.491 OA
ATOM     16  C   UNL     1       8.705  -1.027   2.693  0.00  0.00    +0.277 C 
ENDBRANCH   5  15
TORSDOF 5
