REMARK  Name = 
REMARK  4 active torsions:
REMARK  status: ('A' for Active; 'I' for Inactive)
REMARK    1  A    between atoms: C_2  and  C_4
REMARK    2  A    between atoms: N_10  and  S_13
REMARK    3  A    between atoms: S_13  and  C_16
REMARK    4  A    between atoms: C_21  and  N_22
REMARK                            x       y       z     vdW  Elec       q    Type
REMARK                         _______ _______ _______ _____ _____    ______ ____
ROOT
ATOM      1  C   UNL     1       3.076   0.948  -1.013  0.00  0.00    +0.057 A 
ATOM      2  C   UNL     1       2.537   2.223  -0.838  0.00  0.00    +0.044 A 
ATOM      3  C   UNL     1       3.261   3.290  -1.387  0.00  0.00    +0.091 A 
ATOM      4  C   UNL     1       4.389   3.050  -2.174  0.00  0.00    +0.090 A 
ATOM      5  C   UNL     1       4.866   4.294  -2.656  0.00  0.00    +0.049 A 
ATOM      6  C   UNL     1       4.058   5.280  -2.124  0.00  0.00    +0.114 A 
ATOM      7  N   UNL     1       4.888   1.813  -2.400  0.00  0.00    -0.253 NA
ATOM      8  N   UNL     1       3.161   4.659  -1.291  0.00  0.00    -0.216 N 
ATOM      9  C   UNL     1       4.225   0.805  -1.783  0.00  0.00    +0.124 A 
ENDROOT
BRANCH   1  13
ATOM     10  N   UNL     1       1.564  -0.066   0.611  0.00  0.00    -0.325 N 
ATOM     11  H   UNL     1       1.408   0.818   1.074  0.00  0.00    +0.145 HD
ATOM     12  H   UNL     1       1.266  -0.896   1.110  0.00  0.00    +0.145 HD
ATOM     13  C   UNL     1       2.484  -0.256  -0.381  0.00  0.00    +0.243 C 
ATOM     14  O   UNL     1       2.826  -1.382  -0.716  0.00  0.00    -0.270 OA
ENDBRANCH   1  13
BRANCH   8  15
ATOM     15  S   UNL     1       2.132   5.503  -0.212  0.00  0.00    +0.091 S 
ATOM     16  O   UNL     1       2.835   6.746   0.028  0.00  0.00    -0.147 OA
ATOM     17  O   UNL     1       1.792   4.570   0.843  0.00  0.00    -0.147 OA
BRANCH  15  18
ATOM     18  C   UNL     1       0.656   5.873  -1.104  0.00  0.00    +0.188 A 
ATOM     19  C   UNL     1      -0.001   7.091  -0.900  0.00  0.00    +0.300 A 
ATOM     20  C   UNL     1      -1.076   7.478  -1.711  0.00  0.00    +0.086 A 
ATOM     21  C   UNL     1      -1.528   6.608  -2.701  0.00  0.00    +0.007 A 
ATOM     22  C   UNL     1      -0.936   5.352  -2.852  0.00  0.00    +0.002 A 
ATOM     23  C   UNL     1       0.157   4.982  -2.061  0.00  0.00    +0.036 A 
BRANCH  19  24
ATOM     24  N   UNL     1       0.314   7.945   0.230  0.00  0.00    +0.082 N 
ATOM     25  O   UNL     1       0.609   9.122  -0.017  0.00  0.00    +0.042 OA
ATOM     26  O   UNL     1       0.183   7.444   1.355  0.00  0.00    -0.576 OA
ENDBRANCH  19  24
ENDBRANCH  15  18
ENDBRANCH   8  15
TORSDOF 4
