REMARK  Name = 
REMARK  5 active torsions:
REMARK  status: ('A' for Active; 'I' for Inactive)
REMARK    1  A    between atoms: C_1  and  C_2
REMARK    2  A    between atoms: C_2  and  C_3
REMARK    3  A    between atoms: C_4  and  C_5
REMARK    4  A    between atoms: C_5  and  N_6
REMARK    5  A    between atoms: C_9  and  N_10
REMARK                            x       y       z     vdW  Elec       q    Type
REMARK                         _______ _______ _______ _____ _____    ______ ____
ROOT
ATOM      1  N   UNL     1       5.185   0.002  -2.536  0.00  0.00    -0.311 N 
ATOM      2  C   UNL     1       5.456   1.191  -3.157  0.00  0.00    +0.166 A 
ATOM      3  C   UNL     1       6.004   1.168  -4.517  0.00  0.00    +0.147 A 
ATOM      4  N   UNL     1       6.200   2.458  -4.925  0.00  0.00    -0.229 NA
ATOM      5  C   UNL     1       5.805   3.143  -3.890  0.00  0.00    +0.224 A 
ATOM      6  C   UNL     1       6.229  -0.034  -5.090  0.00  0.00    +0.147 A 
ATOM      7  N   UNL     1       5.895  -1.228  -4.457  0.00  0.00    -0.221 NA
ATOM      8  N   UNL     1       5.343   2.432  -2.788  0.00  0.00    -0.216 NA
ATOM      9  C   UNL     1       5.413  -1.154  -3.251  0.00  0.00    +0.203 A 
ENDROOT
BRANCH   6  10
ATOM     10  N   UNL     1       6.790  -0.099  -6.352  0.00  0.00    -0.341 N 
ATOM     11  H   UNL     1       6.656   0.768  -6.867  0.00  0.00    +0.144 HD
ATOM     12  H   UNL     1       6.462  -0.928  -6.836  0.00  0.00    +0.144 HD
ENDBRANCH   6  10
BRANCH   1  13
ATOM     13  C   UNL     1       4.767  -0.031  -1.148  0.00  0.00    +0.152 C 
BRANCH  13  16
ATOM     14  C   UNL     1       1.034  -0.969  -0.458  0.00  0.00    +0.038 C 
ATOM     15  C   UNL     1       2.534  -1.079  -0.496  0.00  0.00    -0.078 C 
ATOM     16  C   UNL     1       3.268  -0.103  -1.070  0.00  0.00    -0.007 C 
ATOM     17  C   UNL     1       3.147  -2.295   0.142  0.00  0.00    +0.038 C 
ENDBRANCH  13  16
ENDBRANCH   1  13
TORSDOF 3
