REMARK  Name = 
REMARK  5 active torsions:
REMARK  status: ('A' for Active; 'I' for Inactive)
REMARK    1  A    between atoms: C_1  and  N_2
REMARK    2  A    between atoms: C_3  and  C_4
REMARK    3  A    between atoms: C_4  and  N_6
REMARK    4  A    between atoms: C_10  and  C_11
REMARK    5  A    between atoms: C_13  and  O_14
REMARK                            x       y       z     vdW  Elec       q    Type
REMARK                         _______ _______ _______ _____ _____    ______ ____
ROOT
ATOM      1  C   UNL     1       0.900  -0.108   0.051  0.00  0.00    +0.158 C 
ATOM      2  N   UNL     1       2.376  -0.044   0.087  0.00  0.00    -0.197 N 
ATOM      3  S   UNL     1       3.080  -1.567  -0.067  0.00  0.00    +0.075 S 
ATOM      4  O   UNL     1       2.729  -2.314   1.125  0.00  0.00    -0.150 OA
ATOM      5  O   UNL     1       2.751  -2.075  -1.382  0.00  0.00    -0.150 OA
ATOM      6  C   UNL     1       4.806  -1.358  -0.030  0.00  0.00    +0.119 A 
ATOM      7  C   UNL     1       5.340  -0.083  -0.039  0.00  0.00    +0.045 A 
ATOM      8  C   UNL     1       6.747   0.013  -0.010  0.00  0.00    +0.013 A 
ATOM      9  C   UNL     1       7.568  -1.121   0.014  0.00  0.00    +0.001 A 
ATOM     10  C   UNL     1       6.997  -2.387   0.014  0.00  0.00    +0.002 A 
ATOM     11  C   UNL     1       4.502   1.126  -0.074  0.00  0.00    +0.153 C 
ATOM     12  C   UNL     1       5.612  -2.509  -0.003  0.00  0.00    +0.029 A 
ATOM     13  C   UNL     1       3.148   1.176  -0.019  0.00  0.00    +0.156 C 
ENDROOT
BRANCH  11  14
ATOM     14  O   UNL     1       5.294   2.270  -0.172  0.00  0.00    -0.504 OA
ATOM     15  H   UNL     1       4.736   3.054   0.018  0.00  0.00    +0.292 HD
ENDBRANCH  11  14
BRANCH  13  16
ATOM     16  C   UNL     1       2.442   2.538  -0.057  0.00  0.00    +0.288 C 
ATOM     17  O   UNL     1       1.322   2.701  -0.522  0.00  0.00    -0.266 OA
BRANCH  16  18
ATOM     18  N   UNL     1       3.246   3.547   0.436  0.00  0.00    -0.155 NA
ATOM     19  C   UNL     1       2.750   4.574   1.046  0.00  0.00    +0.157 A 
ATOM     20  C   UNL     1       1.354   4.908   1.330  0.00  0.00    +0.090 A 
ATOM     21  C   UNL     1       1.488   6.135   1.839  0.00  0.00    +0.133 A 
ATOM     22  C   UNL     1       0.390   7.007   2.332  0.00  0.00    +0.089 C 
ATOM     23  O   UNL     1       2.782   6.645   1.910  0.00  0.00    -0.383 OA
ATOM     24  N   UNL     1       3.577   5.556   1.543  0.00  0.00    -0.205 N 
ATOM     25  H   UNL     1       4.407   5.785   1.010  0.00  0.00    +0.209 HD
ENDBRANCH  16  18
ENDBRANCH  13  16
TORSDOF 3
