REMARK  Name = 
REMARK  5 active torsions:
REMARK  status: ('A' for Active; 'I' for Inactive)
REMARK    1  A    between atoms: C_2  and  O_3
REMARK    2  A    between atoms: N_13  and  C_14
REMARK    3  A    between atoms: C_14  and  C_15
REMARK    4  A    between atoms: C_28  and  C_30
REMARK    5  A    between atoms: C_33  and  C_36
REMARK                            x       y       z     vdW  Elec       q    Type
REMARK                         _______ _______ _______ _____ _____    ______ ____
ROOT
ATOM      1  C   UNL     1       1.627  -0.665  -1.690  0.00  0.00    +0.130 C 
ATOM      2  C   UNL     1       1.982  -1.040  -0.260  0.00  0.00    +0.052 C 
ATOM      3  C   UNL     1       3.429  -1.482  -0.517  0.00  0.00    +0.072 C 
ATOM      4  C   UNL     1       4.494  -1.780   0.498  0.00  0.00    +0.106 C 
ATOM      5  C   UNL     1       5.144  -0.456   0.885  0.00  0.00    +0.110 C 
ATOM      6  C   UNL     1       4.425   0.613  -0.023  0.00  0.00    +0.100 C 
ATOM      7  C   UNL     1       4.986  -0.493   2.398  0.00  0.00    +0.228 C 
ATOM      8  O   UNL     1       5.474   0.323   3.166  0.00  0.00    -0.275 OA
ATOM      9  N   UNL     1       4.157  -1.544   2.740  0.00  0.00    -0.237 N 
ATOM     10  C   UNL     1       3.861  -2.347   1.689  0.00  0.00    +0.227 C 
ATOM     11  O   UNL     1       3.108  -3.316   1.687  0.00  0.00    -0.275 OA
ATOM     12  N   UNL     1       3.950  -0.268  -1.144  0.00  0.00    -0.288 NA
ATOM     13  C   UNL     1       2.929   0.047  -2.151  0.00  0.00    +0.116 C 
ENDROOT
BRANCH   6  14
ATOM     14  C   UNL     1       3.535   1.623   0.745  0.00  0.00    -0.029 A 
ATOM     15  C   UNL     1       2.856   1.298   1.937  0.00  0.00    +0.006 A 
ATOM     16  C   UNL     1       2.476   2.244   2.892  0.00  0.00    +0.016 A 
ATOM     17  C   UNL     1       2.641   3.592   2.620  0.00  0.00    +0.065 A 
ATOM     18  C   UNL     1       3.100   3.962   1.354  0.00  0.00    +0.016 A 
ATOM     19  C   UNL     1       3.559   2.990   0.431  0.00  0.00    +0.006 A 
BRANCH  17  20
ATOM     20  C   UNL     1       2.382   4.581   3.710  0.00  0.00    +0.308 C 
ATOM     21  N   UNL     1       2.965   5.736   3.762  0.00  0.00    -0.099 NA
ATOM     22  H   UNL     1       3.644   5.845   3.005  0.00  0.00    +0.363 HD
ATOM     23  N   UNL     1       1.536   4.294   4.742  0.00  0.00    -0.247 N 
ATOM     24  H   UNL     1       1.375   5.120   5.313  0.00  0.00    +0.288 HD
ATOM     25  H   UNL     1       0.678   3.813   4.506  0.00  0.00    +0.288 HD
ENDBRANCH  17  20
ENDBRANCH   6  14
BRANCH   1  26
ATOM     26  O   UNL     1       0.460   0.117  -1.815  0.00  0.00    -0.390 OA
ATOM     27  H   UNL     1       0.474   0.820  -1.148  0.00  0.00    +0.210 HD
ENDBRANCH   1  26
BRANCH   9  28
ATOM     28  C   UNL     1       3.398  -1.620   3.972  0.00  0.00    +0.151 C 
BRANCH  28  29
ATOM     29  C   UNL     1       3.852  -2.729   4.875  0.00  0.00    -0.026 A 
ATOM     30  C   UNL     1       4.883  -2.473   5.788  0.00  0.00    +0.054 A 
ATOM     31  C   UNL     1       5.295  -3.512   6.583  0.00  0.00    +0.167 A 
ATOM     32  C   UNL     1       4.720  -4.758   6.519  0.00  0.00    +0.166 A 
ATOM     33  O   UNL     1       5.289  -5.630   7.393  0.00  0.00    -0.453 OA
ATOM     34  C   UNL     1       6.327  -4.803   7.961  0.00  0.00    +0.466 C 
ATOM     35  C   UNL     1       3.691  -5.042   5.650  0.00  0.00    +0.050 A 
ATOM     36  O   UNL     1       6.288  -3.438   7.503  0.00  0.00    -0.453 OA
ATOM     37  C   UNL     1       3.252  -4.013   4.811  0.00  0.00    +0.009 A 
ENDBRANCH  28  29
ENDBRANCH   9  28
TORSDOF 5
