REMARK  Name = 
REMARK  7 active torsions:
REMARK  status: ('A' for Active; 'I' for Inactive)
REMARK    1  A    between atoms: C_1  and  N_2
REMARK    2  A    between atoms: N_2  and  C_3
REMARK    3  A    between atoms: N_2  and  C_4
REMARK    4  A    between atoms: C_4  and  C_5
REMARK    5  A    between atoms: C_6  and  C_7
REMARK    6  A    between atoms: N_9  and  C_10
REMARK    7  A    between atoms: N_18  and  C_19
REMARK                            x       y       z     vdW  Elec       q    Type
REMARK                         _______ _______ _______ _____ _____    ______ ____
ROOT
ATOM      1  C   UNL     1       8.836  -1.891  -3.117  0.00  0.00    +0.034 A 
ATOM      2  C   UNL     1       9.516  -3.113  -3.097  0.00  0.00    +0.036 A 
ATOM      3  C   UNL     1      10.944  -3.156  -3.048  0.00  0.00    +0.042 A 
ATOM      4  C   UNL     1      11.671  -1.956  -3.066  0.00  0.00    +0.076 A 
ATOM      5  N   UNL     1      12.999  -1.891  -2.986  0.00  0.00    -0.235 NA
ATOM      6  C   UNL     1      13.645  -3.050  -2.856  0.00  0.00    +0.223 A 
ATOM      7  N   UNL     1      13.084  -4.261  -2.827  0.00  0.00    -0.220 NA
ATOM      8  C   UNL     1      10.985  -0.763  -3.160  0.00  0.00    +0.030 A 
ATOM      9  C   UNL     1      11.740  -4.316  -2.923  0.00  0.00    +0.134 A 
ATOM     10  N   UNL     1      11.121  -5.593  -2.922  0.00  0.00    -0.299 N 
ATOM     11  H   UNL     1      10.694  -5.749  -3.829  0.00  0.00    +0.154 HD
ATOM     12  C   UNL     1       9.591  -0.722  -3.191  0.00  0.00    +0.025 A 
ENDROOT
BRANCH  10  13
ATOM     13  C   UNL     1      11.663  -6.776  -2.364  0.00  0.00    +0.033 A 
ATOM     14  C   UNL     1      11.352  -8.023  -2.926  0.00  0.00    +0.023 A 
ATOM     15  C   UNL     1      11.804  -9.210  -2.340  0.00  0.00    +0.003 A 
ATOM     16  C   UNL     1      12.555  -9.169  -1.167  0.00  0.00    +0.015 A 
ATOM     17  C   UNL     1      12.853  -7.938  -0.590  0.00  0.00    +0.020 A 
ATOM     18 BR   UNL     1      13.846  -7.873   1.019  0.00  0.00    -0.050 Br
ATOM     19  C   UNL     1      12.411  -6.752  -1.178  0.00  0.00    +0.038 A 
ENDBRANCH  10  13
BRANCH   1  21
ATOM     20  C   UNL     1       6.682  -0.757  -2.680  0.00  0.00    +0.241 C 
ATOM     21  N   UNL     1       7.422  -1.874  -3.026  0.00  0.00    -0.282 N 
ATOM     22  H   UNL     1       6.943  -2.764  -3.074  0.00  0.00    +0.155 HD
ATOM     23  O   UNL     1       7.133   0.347  -2.393  0.00  0.00    -0.271 OA
BRANCH  20  25
ATOM     24  C   UNL     1       4.460   0.005  -2.122  0.00  0.00    -0.007 C 
ATOM     25  C   UNL     1       5.215  -0.991  -2.617  0.00  0.00    +0.064 C 
BRANCH  24  26
ATOM     26  C   UNL     1       2.978  -0.010  -1.933  0.00  0.00    +0.111 C 
BRANCH  26  28
ATOM     27  C   UNL     1       3.119   0.361   0.476  0.00  0.00    +0.104 C 
ATOM     28  N   UNL     1       2.598  -0.491  -0.599  0.00  0.00    -0.305 NA
ATOM     29  C   UNL     1       1.139  -0.563  -0.499  0.00  0.00    +0.104 C 
ENDBRANCH  26  28
ENDBRANCH  24  26
ENDBRANCH  20  25
ENDBRANCH   1  21
TORSDOF 5
