REMARK  Name = 
REMARK  14 active torsions:
REMARK  status: ('A' for Active; 'I' for Inactive)
REMARK    1  A    between atoms: C_2  and  C_3
REMARK    2  A    between atoms: C_2  and  N_14
REMARK    3  A    between atoms: C_2  and  C_22
REMARK    4  A    between atoms: C_3  and  C_4
REMARK    5  A    between atoms: C_7  and  C_8
REMARK    6  A    between atoms: C_8  and  SE_9
REMARK    7  A    between atoms: SE_9  and  O_10
REMARK    8  A    between atoms: C_15  and  O_17
REMARK    9  A    between atoms: O_17  and  C_18
REMARK   10  A    between atoms: C_18  and  C_19
REMARK   11  A    between atoms: C_18  and  C_20
REMARK   12  A    between atoms: C_18  and  C_21
REMARK   13  A    between atoms: C_22  and  O_24
REMARK   14  A    between atoms: O_24  and  C_25
REMARK                            x       y       z     vdW  Elec       q    Type
REMARK                         _______ _______ _______ _____ _____    ______ ____
ROOT
ATOM      1  C   UNL     1       2.141  -0.074  -0.127  0.00  0.00    +0.000 C 
ENDROOT
BRANCH   1   2
ATOM      2  N   UNL     1       2.574  -0.911  -1.233  0.00  0.00    +0.000 N 
ATOM      3  H   UNL     1       3.589  -1.050  -1.370  0.00  0.00    +0.000 HD
ATOM      4  C   UNL     1       1.711  -1.494  -2.106  0.00  0.00    +0.000 C 
ATOM      5  O   UNL     1       2.162  -2.165  -3.021  0.00  0.00    +0.000 OA
BRANCH   4   6
ATOM      6  O   UNL     1       0.365  -1.322  -1.959  0.00  0.00    +0.000 OA
BRANCH   6   7
ATOM      7  C   UNL     1      -0.655  -1.825  -2.759  0.00  0.00    +0.000 C 
ATOM      8  C   UNL     1      -0.534  -1.275  -4.195  0.00  0.00    +0.000 C 
ATOM      9  C   UNL     1      -1.996  -1.355  -2.168  0.00  0.00    +0.000 C 
ATOM     10  C   UNL     1      -0.633  -3.366  -2.760  0.00  0.00    +0.000 C 
ENDBRANCH   6   7
ENDBRANCH   4   6
ENDBRANCH   1   2
BRANCH   1  11
ATOM     11  C   UNL     1       2.683   1.327  -0.340  0.00  0.00    +0.000 C 
ATOM     12  O   UNL     1       2.353   1.945  -1.345  0.00  0.00    +0.000 OA
BRANCH  11  13
ATOM     13  O   UNL     1       3.465   1.916   0.601  0.00  0.00    +0.000 OA
ATOM     14  C   UNL     1       3.809   3.250   0.598  0.00  0.00    +0.000 C 
ENDBRANCH  11  13
ENDBRANCH   1  11
BRANCH   1  15
ATOM     15  C   UNL     1       2.602  -0.712   1.208  0.00  0.00    +0.000 C 
BRANCH  15  16
ATOM     16  C   UNL     1       2.212   0.030   2.478  0.00  0.00    +0.000 A 
ATOM     17  C   UNL     1       2.691  -0.457   3.706  0.00  0.00    +0.000 A 
ATOM     18  C   UNL     1       2.424   0.226   4.898  0.00  0.00    +0.000 A 
ATOM     19  C   UNL     1       1.676   1.414   4.881  0.00  0.00    +0.000 A 
ATOM     20  C   UNL     1       1.170   1.886   3.666  0.00  0.00    +0.000 A 
ATOM     21  C   UNL     1       1.421   1.199   2.482  0.00  0.00    +0.000 A 
BRANCH  19  22
ATOM     22  C   UNL     1       1.436   2.195   6.142  0.00  0.00    +0.000 C 
BRANCH  22  23
ATOM     23 SE   UNL     1      -0.474   2.456   6.473  0.00  0.00    +0.000 Se
ATOM     24  O   UNL     1      -0.224   2.589   8.095  0.00  0.00    +0.000 OA
BRANCH  23  25
ATOM     25  O   UNL     1      -0.740   0.646   6.633  0.00  0.00    +0.000 OA
ATOM     26  H   UNL     1      -1.182   0.391   5.784  0.00  0.00    +0.000 HD
ENDBRANCH  23  25
ENDBRANCH  22  23
ENDBRANCH  19  22
ENDBRANCH  15  16
ENDBRANCH   1  15
TORSDOF 10
