REMARK  Name = 
REMARK  4 active torsions:
REMARK  status: ('A' for Active; 'I' for Inactive)
REMARK    1  A    between atoms: C_2  and  C_24
REMARK    2  A    between atoms: C_7  and  S_10
REMARK    3  A    between atoms: S_10  and  N_13
REMARK    4  A    between atoms: N_16  and  C_17
REMARK                            x       y       z     vdW  Elec       q    Type
REMARK                         _______ _______ _______ _____ _____    ______ ____
ROOT
ATOM      1  C   UNL     1       2.116   0.104  -0.028  0.00  0.00    +0.084 C 
ATOM      2  N   UNL     1       2.562  -1.024   0.810  0.00  0.00    -0.186 NA
ATOM      3  H   UNL     1       2.227  -1.078   1.772  0.00  0.00    +0.148 HD
ATOM      4  S   UNL     1       4.181  -1.429   0.672  0.00  0.00    +0.059 S 
ATOM      5  O   UNL     1       4.432  -1.858  -0.686  0.00  0.00    -0.153 OA
ATOM      6  O   UNL     1       4.500  -2.241   1.822  0.00  0.00    -0.153 OA
ATOM      7  C   UNL     1       4.971   0.144   0.866  0.00  0.00    +0.110 A 
ATOM      8  C   UNL     1       6.336   0.136   1.179  0.00  0.00    +0.057 A 
ATOM      9  C   UNL     1       6.996   1.347   1.378  0.00  0.00    +0.107 A 
ATOM     10  C   UNL     1       6.298   2.556   1.266  0.00  0.00    +0.029 A 
ATOM     11  C   UNL     1       4.932   2.551   0.960  0.00  0.00    +0.007 A 
ATOM     12  C   UNL     1       4.240   1.343   0.763  0.00  0.00    -0.019 A 
ATOM     13  C   UNL     1       2.736   1.392   0.554  0.00  0.00    +0.057 C 
ENDROOT
BRANCH   1  14
ATOM     14  C   UNL     1       0.567   0.107  -0.037  0.00  0.00    +0.008 C 
ATOM     15  C   UNL     1      -0.050   1.174  -0.954  0.00  0.00    +0.005 C 
ATOM     16  C   UNL     1      -0.280   0.506  -2.312  0.00  0.00    +0.000 C 
ATOM     17  C   UNL     1       0.045  -0.971  -2.128  0.00  0.00    +0.000 C 
ATOM     18  C   UNL     1      -0.018  -1.189  -0.625  0.00  0.00    +0.005 C 
ENDBRANCH   1  14
BRANCH   9  19
ATOM     19  S   UNL     1       8.672   1.341   1.987  0.00  0.00    +0.061 S 
ATOM     20  O   UNL     1       8.883   0.071   2.651  0.00  0.00    -0.153 OA
ATOM     21  O   UNL     1       8.869   2.592   2.690  0.00  0.00    -0.153 OA
BRANCH  19  22
ATOM     22  N   UNL     1       9.592   1.372   0.596  0.00  0.00    -0.174 NA
ATOM     23  C   UNL     1       9.902   2.644  -0.075  0.00  0.00    +0.125 C 
ATOM     24  C   UNL     1       9.571   2.563  -1.572  0.00  0.00    +0.101 C 
ATOM     25  N   UNL     1      10.226   1.446  -2.278  0.00  0.00    -0.303 NA
ATOM     26  C   UNL     1      11.676   1.627  -2.353  0.00  0.00    +0.105 C 
ATOM     27  C   UNL     1       9.867   0.178  -1.607  0.00  0.00    +0.101 C 
ATOM     28  C   UNL     1      10.046   0.134  -0.071  0.00  0.00    +0.125 C 
ENDBRANCH  19  22
ENDBRANCH   9  19
TORSDOF 3
