REMARK  Name = 
REMARK  5 active torsions:
REMARK  status: ('A' for Active; 'I' for Inactive)
REMARK    1  A    between atoms: C_2  and  C_5
REMARK    2  A    between atoms: C_7  and  N_8
REMARK    3  A    between atoms: N_11  and  C_12
REMARK    4  A    between atoms: C_15  and  O_16
REMARK    5  A    between atoms: O_16  and  C_17
REMARK                            x       y       z     vdW  Elec       q    Type
REMARK                         _______ _______ _______ _____ _____    ______ ____
ROOT
ATOM      1  N   UNL     1       3.933   2.011  -6.589  0.00  0.00    -0.269 N 
ATOM      2  H   UNL     1       3.309   1.486  -5.998  0.00  0.00    +0.156 HD
ATOM      3  C   UNL     1       4.213   3.305  -6.184  0.00  0.00    +0.308 C 
ATOM      4  N   UNL     1       3.261   3.793  -5.298  0.00  0.00    -0.269 N 
ATOM      5  H   UNL     1       2.318   3.498  -5.511  0.00  0.00    +0.156 HD
ATOM      6  O   UNL     1       5.167   3.971  -6.572  0.00  0.00    -0.252 OA
ENDROOT
BRANCH   1  11
ATOM      7  C   UNL     1       6.371   1.131  -9.312  0.00  0.00    +0.057 A 
ATOM      8  C   UNL     1       6.137  -0.245  -9.408  0.00  0.00    +0.012 A 
ATOM      9  C   UNL     1       5.170  -0.849  -8.608  0.00  0.00    +0.002 A 
ATOM     10  C   UNL     1       4.439  -0.086  -7.683  0.00  0.00    +0.023 A 
ATOM     11  C   UNL     1       4.666   1.285  -7.563  0.00  0.00    +0.035 A 
ATOM     12  C   UNL     1       5.607   1.883  -8.406  0.00  0.00    +0.035 A 
BRANCH   7  14
ATOM     13  F   UNL     1       7.577   3.131  -9.909  0.00  0.00    -0.166 F 
ATOM     14  C   UNL     1       7.441   1.796 -10.143  0.00  0.00    +0.417 C 
ATOM     15  F   UNL     1       8.674   1.256  -9.924  0.00  0.00    -0.166 F 
ATOM     16  F   UNL     1       7.215   1.676 -11.480  0.00  0.00    -0.166 F 
ENDBRANCH   7  14
ENDBRANCH   1  11
BRANCH   4  17
ATOM     17  C   UNL     1       3.404   5.100  -4.769  0.00  0.00    +0.035 A 
ATOM     18  C   UNL     1       4.635   5.563  -4.282  0.00  0.00    +0.027 A 
ATOM     19  C   UNL     1       4.803   6.905  -3.917  0.00  0.00    +0.048 A 
ATOM     20  C   UNL     1       3.728   7.784  -4.019  0.00  0.00    +0.129 A 
ATOM     21  C   UNL     1       2.488   7.309  -4.464  0.00  0.00    +0.048 A 
ATOM     22  C   UNL     1       2.314   5.966  -4.814  0.00  0.00    +0.027 A 
BRANCH  20  23
ATOM     23  O   UNL     1       3.796   9.146  -3.861  0.00  0.00    -0.456 OA
BRANCH  23  24
ATOM     24  C   UNL     1       4.648   9.738  -2.963  0.00  0.00    +0.131 A 
ATOM     25  C   UNL     1       4.969   9.227  -1.711  0.00  0.00    +0.066 A 
ATOM     26  C   UNL     1       5.749  10.012  -0.875  0.00  0.00    +0.114 A 
ATOM     27  N   UNL     1       6.200  11.245  -1.195  0.00  0.00    -0.263 NA
ATOM     28  C   UNL     1       5.855  11.720  -2.409  0.00  0.00    +0.114 A 
ATOM     29  C   UNL     1       5.090  11.011  -3.317  0.00  0.00    +0.066 A 
ENDBRANCH  23  24
ENDBRANCH  20  23
ENDBRANCH   4  17
TORSDOF 5
