REMARK  Name = 
REMARK  14 active torsions:
REMARK  status: ('A' for Active; 'I' for Inactive)
REMARK    1  A    between atoms: C_2  and  C_3
REMARK    2  A    between atoms: C_2  and  C_4
REMARK    3  A    between atoms: C_2  and  C_6
REMARK    4  A    between atoms: C_4  and  O_5
REMARK    5  A    between atoms: C_6  and  C_7
REMARK    6  A    between atoms: C_7  and  C_9
REMARK    7  A    between atoms: C_7  and  C_10
REMARK    8  A    between atoms: C_10  and  O_12
REMARK    9  A    between atoms: C_10  and  C_13
REMARK   10  A    between atoms: C_13  and  C_15
REMARK   11  A    between atoms: C_13  and  C_16
REMARK   12  A    between atoms: C_16  and  C_18
REMARK   13  A    between atoms: C_18  and  P_19
REMARK   14  A    between atoms: P_19  and  O_21
REMARK                            x       y       z     vdW  Elec       q    Type
REMARK                         _______ _______ _______ _____ _____    ______ ____
ROOT
ATOM      1  C   UNL     1       4.711  -1.735   2.090  0.00  0.00    +0.127 C 
ENDROOT
BRANCH   1   2
ATOM      2  C   UNL     1       4.230  -1.103   3.439  0.00  0.00    +0.015 C 
ATOM      3  C   UNL     1       4.949   0.221   3.725  0.00  0.00    +0.010 C 
BRANCH   2   4
ATOM      4  C   UNL     1       2.680  -0.912   3.460  0.00  0.00    +0.011 C 
BRANCH   4   5
ATOM      5  C   UNL     1       1.993  -0.516   4.798  0.00  0.00    +0.012 C 
ATOM      6  C   UNL     1       2.139  -1.618   5.855  0.00  0.00    +0.010 C 
BRANCH   5   7
ATOM      7  C   UNL     1       2.397   0.851   5.360  0.00  0.00    +0.159 C 
BRANCH   7   8
ATOM      8  O   UNL     1       1.658   1.188   6.527  0.00  0.00    -0.395 OA
ATOM      9  H   UNL     1       0.715   1.152   6.302  0.00  0.00    +0.209 HD
ENDBRANCH   7   8
ENDBRANCH   5   7
ENDBRANCH   4   5
ENDBRANCH   2   4
ENDBRANCH   1   2
BRANCH   1  10
ATOM     10  C   UNL     1       6.250  -1.954   1.989  0.00  0.00    +0.081 C 
ATOM     11  C   UNL     1       6.740  -3.047   2.948  0.00  0.00    +0.018 C 
BRANCH  10  12
ATOM     12  C   UNL     1       6.698  -2.242   0.551  0.00  0.00    +0.148 C 
ATOM     13  O   UNL     1       7.369  -3.234   0.256  0.00  0.00    -0.296 OA
BRANCH  12  14
ATOM     14  C   UNL     1       6.385  -1.233  -0.518  0.00  0.00    +0.168 C 
BRANCH  14  15
ATOM     15  P   UNL     1       7.837  -0.290  -0.992  0.00  0.00    +0.198 P 
ATOM     16  O   UNL     1       8.239   0.609   0.148  0.00  0.00    -0.294 OA
ATOM     17  H   UNL     1       8.781  -1.007  -1.755  0.00  0.00    +0.128 HD
BRANCH  15  18
ATOM     18  O   UNL     1       7.164   0.682  -2.110  0.00  0.00    -0.345 OA
ATOM     19  H   UNL     1       6.764   1.483  -1.713  0.00  0.00    +0.217 HD
ENDBRANCH  15  18
ENDBRANCH  14  15
ENDBRANCH  12  14
ENDBRANCH  10  12
ENDBRANCH   1  10
BRANCH   1  20
ATOM     20  O   UNL     1       4.035  -2.987   1.922  0.00  0.00    -0.391 OA
ATOM     21  H   UNL     1       4.381  -3.443   1.134  0.00  0.00    +0.210 HD
ENDBRANCH   1  20
TORSDOF 11
