REMARK  Name = 
REMARK  9 active torsions:
REMARK  status: ('A' for Active; 'I' for Inactive)
REMARK    1  A    between atoms: C_2  and  N_11
REMARK    2  A    between atoms: C_6  and  N_8
REMARK    3  A    between atoms: N_8  and  C_9
REMARK    4  A    between atoms: N_8  and  C_10
REMARK    5  A    between atoms: N_15  and  C_16
REMARK    6  A    between atoms: C_19  and  S_22
REMARK    7  A    between atoms: S_22  and  N_25
REMARK    8  A    between atoms: N_25  and  C_26
REMARK    9  A    between atoms: C_29  and  C_30
REMARK                            x       y       z     vdW  Elec       q    Type
REMARK                         _______ _______ _______ _____ _____    ______ ____
ROOT
ATOM      1  N   UNL     1       2.522   0.229  -1.613  0.00  0.00    -0.324 N 
ATOM      2  H   UNL     1       2.344  -0.181  -0.698  0.00  0.00    +0.148 HD
ATOM      3  C   UNL     1       3.893   0.176  -1.894  0.00  0.00    +0.136 A 
ATOM      4  C   UNL     1       4.492  -1.054  -2.083  0.00  0.00    +0.113 A 
ATOM      5  C   UNL     1       5.839  -1.023  -2.349  0.00  0.00    +0.130 A 
ATOM      6  N   UNL     1       6.555   0.102  -2.449  0.00  0.00    -0.222 NA
ATOM      7  C   UNL     1       5.910   1.263  -2.300  0.00  0.00    +0.221 A 
ATOM      8  N   UNL     1       6.599   2.466  -2.497  0.00  0.00    -0.284 N 
ATOM      9  H   UNL     1       6.028   3.252  -2.227  0.00  0.00    +0.155 HD
ATOM     10  N   UNL     1       4.603   1.327  -1.987  0.00  0.00    -0.199 NA
ENDROOT
BRANCH   8  11
ATOM     11  C   UNL     1       7.721   2.743  -3.305  0.00  0.00    +0.034 A 
ATOM     12  C   UNL     1       8.334   4.007  -3.244  0.00  0.00    +0.025 A 
ATOM     13  C   UNL     1       9.505   4.285  -3.971  0.00  0.00    +0.030 A 
ATOM     14  C   UNL     1      10.083   3.291  -4.763  0.00  0.00    +0.105 A 
ATOM     15  C   UNL     1       9.492   2.034  -4.845  0.00  0.00    +0.030 A 
ATOM     16  C   UNL     1       8.329   1.773  -4.117  0.00  0.00    +0.025 A 
BRANCH  14  17
ATOM     17  S   UNL     1      11.642   3.570  -5.563  0.00  0.00    +0.058 S 
ATOM     18  O   UNL     1      12.042   2.364  -6.251  0.00  0.00    -0.153 OA
ATOM     19  O   UNL     1      12.506   4.219  -4.604  0.00  0.00    -0.153 OA
BRANCH  17  20
ATOM     20  N   UNL     1      11.290   4.736  -6.726  0.00  0.00    -0.193 NA
ATOM     21  H   UNL     1      11.995   5.473  -6.715  0.00  0.00    +0.148 HD
ATOM     22  C   UNL     1      10.822   4.281  -8.031  0.00  0.00    +0.127 C 
ENDBRANCH  17  20
ENDBRANCH  14  17
ENDBRANCH   8  11
BRANCH   1  23
ATOM     23  C   UNL     1       1.808   1.505  -1.798  0.00  0.00    +0.089 C 
ATOM     24  C   UNL     1       1.609   1.813  -3.326  0.00  0.00    +0.076 C 
ATOM     25  C   UNL     1       0.192   1.256  -3.646  0.00  0.00    +0.021 C 
ATOM     26  C   UNL     1      -0.376   0.661  -2.367  0.00  0.00    +0.003 C 
ATOM     27  C   UNL     1       0.378   1.370  -1.259  0.00  0.00    +0.024 C 
BRANCH  24  28
ATOM     28  N   UNL     1       1.722   3.250  -3.709  0.00  0.00    -0.304 NA
ATOM     29  C   UNL     1       3.050   3.782  -3.373  0.00  0.00    +0.104 C 
ATOM     30  C   UNL     1       1.534   3.428  -5.158  0.00  0.00    +0.104 C 
ENDBRANCH  24  28
ENDBRANCH   1  23
BRANCH   4  31
ATOM     31  C   UNL     1       3.807  -2.370  -2.126  0.00  0.00    +0.422 C 
ATOM     32  F   UNL     1       4.408  -3.277  -1.301  0.00  0.00    -0.166 F 
ATOM     33  F   UNL     1       3.861  -2.932  -3.369  0.00  0.00    -0.166 F 
ATOM     34  F   UNL     1       2.495  -2.384  -1.771  0.00  0.00    -0.166 F 
ENDBRANCH   4  31
TORSDOF 6
