REMARK  Name = 
REMARK  12 active torsions:
REMARK  status: ('A' for Active; 'I' for Inactive)
REMARK    1  A    between atoms: C_2  and  C_3
REMARK    2  A    between atoms: C_2  and  C_12
REMARK    3  A    between atoms: C_2  and  C_15
REMARK    4  A    between atoms: C_3  and  C_4
REMARK    5  A    between atoms: N_6  and  C_7
REMARK    6  A    between atoms: C_7  and  C_8
REMARK    7  A    between atoms: C_7  and  C_10
REMARK    8  A    between atoms: C_8  and  C_9
REMARK    9  A    between atoms: C_10  and  C_11
REMARK   10  A    between atoms: C_15  and  C_16
REMARK   11  A    between atoms: C_15  and  C_17
REMARK   12  A    between atoms: C_15  and  C_18
REMARK                            x       y       z     vdW  Elec       q    Type
REMARK                         _______ _______ _______ _____ _____    ______ ____
ROOT
ATOM      1  C   UNL     1       2.080  -0.078  -0.151  0.00  0.00    +0.089 C 
ENDROOT
BRANCH   1   2
ATOM      2  C   UNL     1       2.875  -1.287   0.360  0.00  0.00    +0.215 C 
ATOM      3  O   UNL     1       3.437  -1.275   1.452  0.00  0.00    -0.276 OA
ATOM      4  N   UNL     1       2.945  -2.395  -0.420  0.00  0.00    -0.329 N 
ATOM      5  H   UNL     1       3.361  -3.198   0.031  0.00  0.00    +0.145 HD
ATOM      6  H   UNL     1       2.135  -2.632  -0.992  0.00  0.00    +0.145 HD
ENDBRANCH   1   2
BRANCH   1   7
ATOM      7  C   UNL     1       2.638   0.592  -1.460  0.00  0.00    -0.026 C 
ATOM      8  C   UNL     1       4.089   1.066  -1.210  0.00  0.00    +0.011 C 
ATOM      9  C   UNL     1       1.806   1.848  -1.807  0.00  0.00    +0.011 C 
ATOM     10  C   UNL     1       2.654  -0.318  -2.698  0.00  0.00    +0.011 C 
ENDBRANCH   1   7
BRANCH   1  11
ATOM     11  C   UNL     1       0.560  -0.322  -0.062  0.00  0.00    +0.109 C 
BRANCH  11  12
ATOM     12  C   UNL     1       0.009  -1.388  -0.982  0.00  0.00    +0.214 C 
ATOM     13  N   UNL     1      -0.905  -0.949  -1.910  0.00  0.00    -0.312 N 
ATOM     14  H   UNL     1      -1.269  -0.007  -1.840  0.00  0.00    +0.149 HD
ATOM     15  O   UNL     1       0.370  -2.560  -0.914  0.00  0.00    -0.276 OA
BRANCH  13  16
ATOM     16  C   UNL     1      -1.576  -1.883  -2.811  0.00  0.00    +0.072 C 
BRANCH  16  17
ATOM     17  C   UNL     1      -1.825  -1.249  -4.184  0.00  0.00    +0.019 C 
ATOM     18  C   UNL     1      -0.536  -0.854  -4.894  0.00  0.00    +0.006 C 
ENDBRANCH  16  17
BRANCH  16  19
ATOM     19  C   UNL     1      -2.864  -2.428  -2.163  0.00  0.00    +0.019 C 
ATOM     20  C   UNL     1      -3.939  -1.376  -1.913  0.00  0.00    +0.006 C 
ENDBRANCH  16  19
ENDBRANCH  13  16
ENDBRANCH  11  12
ENDBRANCH   1  11
TORSDOF 7
