REMARK  Name = 
REMARK  6 active torsions:
REMARK  status: ('A' for Active; 'I' for Inactive)
REMARK    1  A    between atoms: O_1  and  C_2
REMARK    2  A    between atoms: C_2  and  C_4
REMARK    3  A    between atoms: C_5  and  N_6
REMARK    4  A    between atoms: C_7  and  C_9
REMARK    5  A    between atoms: C_19  and  O_20
REMARK    6  A    between atoms: O_20  and  C_21
REMARK                            x       y       z     vdW  Elec       q    Type
REMARK                         _______ _______ _______ _____ _____    ______ ____
ROOT
ATOM      1  C   UNL     1       3.028  -0.575  -1.198  0.00  0.00    +0.083 A 
ATOM      2  C   UNL     1       2.832  -1.964  -1.256  0.00  0.00    +0.063 A 
ATOM      3  C   UNL     1       3.224  -2.701  -2.374  0.00  0.00    +0.133 A 
ATOM      4  C   UNL     1       3.824  -2.027  -3.445  0.00  0.00    +0.048 A 
ATOM      5  C   UNL     1       3.975  -0.635  -3.425  0.00  0.00    +0.028 A 
ATOM      6  C   UNL     1       3.571   0.099  -2.307  0.00  0.00    +0.048 A 
ENDROOT
BRANCH   6   7
ATOM      7  N   UNL     1       3.747   1.497  -2.253  0.00  0.00    -0.281 N 
ATOM      8  H   UNL     1       3.680   1.911  -1.323  0.00  0.00    +0.155 HD
ATOM      9  C   UNL     1       3.432   2.367  -3.278  0.00  0.00    +0.250 C 
ATOM     10  O   UNL     1       2.964   2.060  -4.367  0.00  0.00    -0.270 OA
BRANCH   9  11
ATOM     11  C   UNL     1       3.529   3.801  -2.905  0.00  0.00    +0.055 A 
ATOM     12  C   UNL     1       2.426   4.627  -3.146  0.00  0.00    +0.016 A 
ATOM     13  C   UNL     1       2.450   5.971  -2.758  0.00  0.00    +0.021 A 
ATOM     14  C   UNL     1       3.583   6.492  -2.134  0.00  0.00    +0.042 A 
ATOM     15 CL   UNL     1       3.611   8.140  -1.648  0.00  0.00    -0.083 Cl
ATOM     16  C   UNL     1       4.695   5.685  -1.903  0.00  0.00    +0.040 A 
ATOM     17  C   UNL     1       4.678   4.338  -2.287  0.00  0.00    +0.054 A 
ATOM     18 CL   UNL     1       6.119   3.426  -2.013  0.00  0.00    -0.083 Cl
ENDBRANCH   9  11
ENDBRANCH   6   7
BRANCH   1  19
ATOM     19  C   UNL     1       2.557   0.203  -0.013  0.00  0.00    +0.339 C 
ATOM     20  O   UNL     1       2.274   1.390  -0.071  0.00  0.00    -0.245 OA
BRANCH  19  21
ATOM     21  O   UNL     1       2.533  -0.475   1.153  0.00  0.00    -0.477 OA
ATOM     22  H   UNL     1       2.948  -1.356   1.148  0.00  0.00    +0.295 HD
ENDBRANCH  19  21
ENDBRANCH   1  19
BRANCH   3  23
ATOM     23  O   UNL     1       3.123  -4.065  -2.538  0.00  0.00    -0.424 OA
BRANCH  23  24
ATOM     24  C   UNL     1       2.143  -4.809  -1.892  0.00  0.00    +0.323 A 
ATOM     25  N   UNL     1       1.808  -4.539  -0.618  0.00  0.00    -0.203 NA
ATOM     26  C   UNL     1       0.901  -5.352  -0.047  0.00  0.00    +0.118 A 
ATOM     27  C   UNL     1       0.355  -6.440  -0.682  0.00  0.00    +0.040 A 
ATOM     28  C   UNL     1       0.792  -6.650  -1.967  0.00  0.00    +0.118 A 
ATOM     29  N   UNL     1       1.685  -5.859  -2.593  0.00  0.00    -0.203 NA
ENDBRANCH  23  24
ENDBRANCH   3  23
TORSDOF 6
