REMARK  Name = 
REMARK  4 active torsions:
REMARK  status: ('A' for Active; 'I' for Inactive)
REMARK    1  A    between atoms: O_1  and  C_2
REMARK    2  A    between atoms: C_5  and  C_6
REMARK    3  A    between atoms: C_6  and  C_7
REMARK    4  A    between atoms: C_13  and  C_16
REMARK                            x       y       z     vdW  Elec       q    Type
REMARK                         _______ _______ _______ _____ _____    ______ ____
ROOT
ATOM      1  C   UNL     1       7.222  -1.479  -0.580  0.00  0.00    +0.159 A 
ATOM      2  N   UNL     1       8.554  -1.838  -0.613  0.00  0.00    -0.196 N 
ATOM      3  C   UNL     1       8.540  -3.215  -0.708  0.00  0.00    +0.178 A 
ATOM      4  C   UNL     1       9.775  -3.881  -0.708  0.00  0.00    +0.052 A 
ATOM      5  C   UNL     1      10.906  -3.169  -0.675  0.00  0.00    +0.034 A 
ATOM      6  C   UNL     1      10.796  -1.673  -0.655  0.00  0.00    +0.092 A 
ATOM      7  N   UNL     1       7.305  -3.650  -0.802  0.00  0.00    -0.128 NA
ATOM      8  N   UNL     1       9.664  -1.021  -0.606  0.00  0.00    -0.163 NA
ATOM      9  N   UNL     1       6.474  -2.559  -0.730  0.00  0.00    -0.132 NA
ENDROOT
BRANCH   6  10
ATOM     10  C   UNL     1      12.093  -0.922  -0.757  0.00  0.00    +0.002 A 
ATOM     11  C   UNL     1      13.307  -1.444  -0.283  0.00  0.00    +0.010 A 
ATOM     12  C   UNL     1      14.506  -0.751  -0.486  0.00  0.00    +0.001 A 
ATOM     13  C   UNL     1      14.501   0.474  -1.146  0.00  0.00    +0.000 A 
ATOM     14  C   UNL     1      13.297   1.016  -1.591  0.00  0.00    +0.001 A 
ATOM     15  C   UNL     1      12.097   0.325  -1.397  0.00  0.00    +0.010 A 
ENDBRANCH   6  10
BRANCH   1  16
ATOM     16  C   UNL     1       6.725  -0.087  -0.455  0.00  0.00    +0.113 C 
BRANCH  16  20
ATOM     17  C   UNL     1       5.464   1.084   3.500  0.00  0.00    +0.117 A 
ATOM     18  C   UNL     1       4.557   0.464   2.647  0.00  0.00    +0.045 A 
ATOM     19  C   UNL     1       4.972   0.054   1.377  0.00  0.00    +0.007 A 
ATOM     20  C   UNL     1       6.290   0.282   0.947  0.00  0.00    -0.040 A 
ATOM     21  C   UNL     1       7.198   0.875   1.840  0.00  0.00    +0.007 A 
ATOM     22  C   UNL     1       6.785   1.282   3.111  0.00  0.00    +0.045 A 
BRANCH  17  23
ATOM     23  O   UNL     1       5.011   1.502   4.717  0.00  0.00    -0.507 OA
ATOM     24  H   UNL     1       5.727   1.983   5.163  0.00  0.00    +0.292 HD
ENDBRANCH  17  23
ENDBRANCH  16  20
ENDBRANCH   1  16
TORSDOF 4
