REMARK  Name = 
REMARK  10 active torsions:
REMARK  status: ('A' for Active; 'I' for Inactive)
REMARK    1  A    between atoms: CA_2  and  N_3
REMARK    2  A    between atoms: CA_2  and  CB_25
REMARK    3  A    between atoms: CA_2  and  C_28
REMARK    4  A    between atoms: C_4  and  C_6
REMARK    5  A    between atoms: C_9  and  C_10
REMARK    6  A    between atoms: C_10  and  C_11
REMARK    7  A    between atoms: C_11  and  C_12
REMARK    8  A    between atoms: CB_25  and  CG1_26
REMARK    9  A    between atoms: CB_25  and  CG2_27
REMARK   10  A    between atoms: C_28  and  O_29
REMARK                            x       y       z     vdW  Elec       q    Type
REMARK                         _______ _______ _______ _____ _____    ______ ____
ROOT
ATOM      1  C   UNK A   0      -1.479  -0.138  -1.179  0.00  0.00    +0.037 A 
ATOM      2  C   UNK A   0      -2.207   0.482  -2.203  0.00  0.00    +0.013 A 
ATOM      3  C   UNK A   0      -3.575   0.250  -2.339  0.00  0.00    +0.004 A 
ATOM      4  C   UNK A   0      -4.240  -0.600  -1.447  0.00  0.00    -0.047 A 
ATOM      5  C   UNK A   0      -3.513  -1.176  -0.397  0.00  0.00    +0.004 A 
ATOM      6  C   UNK A   0      -2.145  -0.943  -0.255  0.00  0.00    +0.013 A 
ENDROOT
BRANCH   1   9
ATOM      7  N   VAL A   1       0.747  -0.621  -0.243  0.00  0.00    -0.298 N 
ATOM      8  H   VAL A   1       0.307  -1.085   0.538  0.00  0.00    +0.150 HD
ATOM      9  C   UNK A   0      -0.006   0.027  -1.194  0.00  0.00    +0.245 C 
ATOM     10  O   UNK A   0       0.531   0.717  -2.060  0.00  0.00    -0.270 OA
BRANCH   7  11
ATOM     11  CA  VAL A   1       2.210  -0.709  -0.310  0.00  0.00    +0.184 C 
BRANCH  11  12
ATOM     12  CB  VAL A   1       2.732  -1.336  -1.629  0.00  0.00    +0.014 C 
ATOM     13  CG2 VAL A   1       2.147  -2.737  -1.860  0.00  0.00    +0.009 C 
ATOM     14  CG1 VAL A   1       4.260  -1.419  -1.653  0.00  0.00    +0.009 C 
ENDBRANCH  11  12
BRANCH  11  15
ATOM     15  C   VAL A   1       2.841   0.658   0.012  0.00  0.00    +0.326 C 
ATOM     16  OXT VAL A   1       3.589   0.836   0.966  0.00  0.00    -0.249 OA
BRANCH  15  17
ATOM     17  O   VAL A   1       2.536   1.653  -0.850  0.00  0.00    -0.479 OA
ATOM     18  H   VAL A   1       1.864   1.378  -1.525  0.00  0.00    +0.295 HD
ENDBRANCH  15  17
ENDBRANCH  11  15
ENDBRANCH   7  11
ENDBRANCH   1   9
BRANCH   4  19
ATOM     19  C   UNK A   0      -5.686  -0.957  -1.710  0.00  0.00    +0.040 C 
BRANCH  19  20
ATOM     20  C   UNK A   0      -6.491  -1.318  -0.460  0.00  0.00    +0.042 C 
BRANCH  20  21
ATOM     21  C   UNK A   0      -7.919  -1.616  -0.757  0.00  0.00    -0.015 A 
ATOM     22  C   UNK A   0      -8.503  -2.892  -1.002  0.00  0.00    +0.086 A 
ATOM     23  C   UNK A   0      -8.000  -4.243  -1.081  0.00  0.00    +0.262 A 
ATOM     24  N   UNK A   0      -9.004  -5.178  -1.266  0.00  0.00    -0.295 N 
ATOM     25  H   UNK A   0      -8.705  -6.138  -1.277  0.00  0.00    +0.172 HD
ATOM     26  C   UNK A   0     -10.343  -4.869  -1.374  0.00  0.00    +0.195 A 
ATOM     27  N   UNK A   0     -10.810  -3.652  -1.341  0.00  0.00    -0.198 NA
ATOM     28  N   UNK A   0     -11.196  -5.914  -1.528  0.00  0.00    -0.329 N 
ATOM     29  H   UNK A   0     -12.117  -5.616  -1.833  0.00  0.00    +0.145 HD
ATOM     30  H   UNK A   0     -10.857  -6.735  -2.008  0.00  0.00    +0.145 HD
ATOM     31  O   UNK A   0      -6.817  -4.555  -0.995  0.00  0.00    -0.267 OA
ATOM     32  C   UNK A   0      -9.857  -2.712  -1.152  0.00  0.00    +0.147 A 
ATOM     33  N   UNK A   0     -10.125  -1.377  -1.045  0.00  0.00    -0.345 N 
ATOM     34  H   UNK A   0     -11.051  -0.978  -1.106  0.00  0.00    +0.167 HD
ATOM     35  C   UNK A   0      -8.958  -0.701  -0.803  0.00  0.00    +0.089 A 
ENDBRANCH  20  21
ENDBRANCH  19  20
ENDBRANCH   4  19
TORSDOF 8
