REMARK  Name = 
REMARK  2 active torsions:
REMARK  status: ('A' for Active; 'I' for Inactive)
REMARK    1  A    between atoms: C_7  and  C_8
REMARK    2  A    between atoms: C_8  and  N_9
REMARK                            x       y       z     vdW  Elec       q    Type
REMARK                         _______ _______ _______ _____ _____    ______ ____
ROOT
ATOM      1  N   UNL     1       3.965   4.085  -5.157  0.00  0.00    -0.327 N 
ATOM      2  H   UNL     1       4.273   4.747  -5.855  0.00  0.00    +0.145 HD
ATOM      3  H   UNL     1       3.479   3.259  -5.476  0.00  0.00    +0.145 HD
ATOM      4  C   UNL     1       5.001   3.743  -4.314  0.00  0.00    +0.216 A 
ATOM      5  N   UNL     1       6.000   4.610  -4.185  0.00  0.00    -0.198 NA
ATOM      6  C   UNL     1       6.970   4.276  -3.319  0.00  0.00    +0.149 A 
ATOM      7  N   UNL     1       8.051   5.172  -3.256  0.00  0.00    -0.341 N 
ATOM      8  H   UNL     1       7.808   6.027  -3.745  0.00  0.00    +0.144 HD
ATOM      9  H   UNL     1       8.373   5.300  -2.302  0.00  0.00    +0.144 HD
ATOM     10  C   UNL     1       6.986   3.100  -2.571  0.00  0.00    +0.148 A 
ATOM     11  N   UNL     1       7.939   2.807  -1.627  0.00  0.00    -0.242 NA
ATOM     12  C   UNL     1       7.819   1.616  -0.990  0.00  0.00    +0.078 A 
ATOM     13  C   UNL     1       6.777   0.764  -1.309  0.00  0.00    +0.138 A 
ATOM     14  N   UNL     1       5.819   1.078  -2.219  0.00  0.00    -0.232 NA
ATOM     15  C   UNL     1       5.905   2.256  -2.847  0.00  0.00    +0.185 A 
ATOM     16  N   UNL     1       4.933   2.568  -3.700  0.00  0.00    -0.193 NA
ENDROOT
BRANCH  12  17
ATOM     17  C   UNL     1       8.775   1.282   0.143  0.00  0.00    +0.168 C 
BRANCH  17  18
ATOM     18  N   UNL     1       9.613   0.088  -0.105  0.00  0.00    -0.293 N 
ATOM     19  C   UNL     1      10.042  -0.637   1.048  0.00  0.00    +0.042 A 
ATOM     20  C   UNL     1      10.401  -2.004   0.953  0.00  0.00    -0.004 A 
ATOM     21  C   UNL     1      10.929  -2.679   2.070  0.00  0.00    +0.010 A 
ATOM     22  C   UNL     1      11.106  -2.022   3.284  0.00  0.00    +0.001 A 
ATOM     23  C   UNL     1      10.726  -0.692   3.404  0.00  0.00    +0.002 A 
ATOM     24  C   UNL     1      10.174  -2.811  -0.256  0.00  0.00    +0.010 C 
ATOM     25  C   UNL     1      10.347  -2.399  -1.519  0.00  0.00    +0.010 C 
ATOM     26  C   UNL     1      10.827  -1.069  -1.920  0.00  0.00    -0.004 A 
ATOM     27  C   UNL     1      11.653  -1.015  -3.059  0.00  0.00    +0.010 A 
ATOM     28  C   UNL     1      12.157   0.198  -3.521  0.00  0.00    +0.001 A 
ATOM     29  C   UNL     1      11.841   1.370  -2.851  0.00  0.00    +0.002 A 
ATOM     30  C   UNL     1      11.004   1.332  -1.733  0.00  0.00    +0.024 A 
ATOM     31  C   UNL     1      10.199  -0.011   2.302  0.00  0.00    +0.024 A 
ATOM     32  C   UNL     1      10.460   0.123  -1.253  0.00  0.00    +0.042 A 
ENDBRANCH  17  18
ENDBRANCH  12  17
TORSDOF 2
