REMARK  Name = 
REMARK  6 active torsions:
REMARK  status: ('A' for Active; 'I' for Inactive)
REMARK    1  A    between atoms: C_1  and  C_2
REMARK    2  A    between atoms: C_2  and  C_4
REMARK    3  A    between atoms: C_4  and  C_5
REMARK    4  A    between atoms: C_5  and  C_6
REMARK    5  A    between atoms: N_9  and  C_19
REMARK    6  A    between atoms: N_10  and  C_13
REMARK                            x       y       z     vdW  Elec       q    Type
REMARK                         _______ _______ _______ _____ _____    ______ ____
ROOT
ATOM      1  C   UNL     1       5.581   0.218   2.467  0.00  0.00    +0.165 C 
ATOM      2  C   UNL     1       5.571  -0.991   3.363  0.00  0.00    +0.249 C 
ATOM      3  O   UNL     1       5.596  -2.149   2.972  0.00  0.00    -0.273 OA
ATOM      4  N   UNL     1       5.525  -0.510   4.688  0.00  0.00    -0.180 N 
ATOM      5  N   UNL     1       5.329   0.897   4.695  0.00  0.00    -0.180 N 
ATOM      6  C   UNL     1       5.157   1.348   3.370  0.00  0.00    +0.249 C 
ATOM      7  O   UNL     1       4.864   2.464   2.968  0.00  0.00    -0.273 OA
ENDROOT
BRANCH   4   8
ATOM      8  C   UNL     1       5.118  -1.377   5.740  0.00  0.00    +0.057 A 
ATOM      9  C   UNL     1       4.093  -1.033   6.631  0.00  0.00    +0.025 A 
ATOM     10  C   UNL     1       3.790  -1.865   7.715  0.00  0.00    +0.002 A 
ATOM     11  C   UNL     1       4.521  -3.033   7.929  0.00  0.00    +0.000 A 
ATOM     12  C   UNL     1       5.537  -3.387   7.046  0.00  0.00    +0.002 A 
ATOM     13  C   UNL     1       5.822  -2.572   5.947  0.00  0.00    +0.025 A 
ENDBRANCH   4   8
BRANCH   5  14
ATOM     14  C   UNL     1       5.821   1.771   5.731  0.00  0.00    +0.057 A 
ATOM     15  C   UNL     1       6.426   1.276   6.896  0.00  0.00    +0.025 A 
ATOM     16  C   UNL     1       6.925   2.131   7.889  0.00  0.00    +0.002 A 
ATOM     17  C   UNL     1       6.863   3.508   7.724  0.00  0.00    +0.000 A 
ATOM     18  C   UNL     1       6.286   4.029   6.576  0.00  0.00    +0.002 A 
ATOM     19  C   UNL     1       5.760   3.171   5.602  0.00  0.00    +0.025 A 
ENDBRANCH   5  14
BRANCH   1  20
ATOM     20  C   UNL     1       4.748   0.090   1.190  0.00  0.00    +0.030 C 
BRANCH  20  21
ATOM     21  C   UNL     1       4.959   1.270   0.229  0.00  0.00    +0.075 C 
BRANCH  21  23
ATOM     22  C   UNL     1       4.288   2.311  -2.018  0.00  0.00    +0.086 C 
ATOM     23  C   UNL     1       4.194   1.137  -1.074  0.00  0.00    +0.130 C 
ATOM     24  O   UNL     1       3.537   0.138  -1.361  0.00  0.00    -0.298 OA
ENDBRANCH  21  23
ENDBRANCH  20  21
ENDBRANCH   1  20
TORSDOF 5
