REMARK  Name = 
REMARK  3 active torsions:
REMARK  status: ('A' for Active; 'I' for Inactive)
REMARK    1  A    between atoms: C_4  and  C_16
REMARK    2  A    between atoms: C_5  and  N_8
REMARK    3  A    between atoms: N_9  and  C_10
REMARK                            x       y       z     vdW  Elec       q    Type
REMARK                         _______ _______ _______ _____ _____    ______ ____
ROOT
ATOM      1  N   UNL     1       1.192  -0.058  -0.377  0.00  0.00    -0.327 N 
ATOM      2  H   UNL     1       0.800  -0.875   0.072  0.00  0.00    +0.145 HD
ATOM      3  H   UNL     1       0.845   0.842  -0.071  0.00  0.00    +0.145 HD
ATOM      4  C   UNL     1       2.567  -0.081  -0.248  0.00  0.00    +0.213 A 
ATOM      5  N   UNL     1       3.141  -1.259  -0.030  0.00  0.00    -0.221 NA
ATOM      6  C   UNL     1       4.476  -1.234   0.154  0.00  0.00    +0.146 A 
ATOM      7  C   UNL     1       5.260  -0.088   0.175  0.00  0.00    +0.130 A 
ATOM      8  C   UNL     1       4.555   1.096  -0.066  0.00  0.00    +0.105 A 
ATOM      9  N   UNL     1       3.215   1.082  -0.289  0.00  0.00    -0.212 NA
ENDROOT
BRANCH   8  10
ATOM     10  C   UNL     1       5.176   2.456  -0.144  0.00  0.00    +0.021 A 
ATOM     11  C   UNL     1       6.464   2.622  -0.705  0.00  0.00    +0.013 A 
ATOM     12  C   UNL     1       7.094   3.871  -0.790  0.00  0.00    +0.021 A 
ATOM     13  C   UNL     1       6.429   5.007  -0.359  0.00  0.00    +0.042 A 
ATOM     14 CL   UNL     1       7.192   6.544  -0.477  0.00  0.00    -0.083 Cl
ATOM     15  C   UNL     1       5.149   4.904   0.167  0.00  0.00    +0.040 A 
ATOM     16  C   UNL     1       4.534   3.645   0.290  0.00  0.00    +0.052 A 
ATOM     17 CL   UNL     1       2.972   3.675   1.050  0.00  0.00    -0.083 Cl
ENDBRANCH   8  10
BRANCH   7  18
ATOM     18  N   UNL     1       6.662  -0.141   0.321  0.00  0.00    -0.146 NA
ATOM     19  N   UNL     1       7.041  -1.030   1.111  0.00  0.00    -0.149 NA
BRANCH  19  20
ATOM     20  C   UNL     1       8.443  -1.205   1.052  0.00  0.00    +0.086 A 
ATOM     21  C   UNL     1       8.950  -2.510   1.098  0.00  0.00    +0.029 A 
ATOM     22  C   UNL     1      10.325  -2.749   1.010  0.00  0.00    +0.002 A 
ATOM     23  C   UNL     1      11.209  -1.680   0.883  0.00  0.00    +0.000 A 
ATOM     24  C   UNL     1      10.722  -0.373   0.861  0.00  0.00    +0.002 A 
ATOM     25  C   UNL     1       9.348  -0.138   0.954  0.00  0.00    +0.029 A 
ENDBRANCH  19  20
ENDBRANCH   7  18
TORSDOF 3
