REMARK  Name = 
REMARK  8 active torsions:
REMARK  status: ('A' for Active; 'I' for Inactive)
REMARK    1  A    between atoms: C_7  and  C_8
REMARK    2  A    between atoms: C_10  and  O_12
REMARK    3  A    between atoms: O_12  and  C_13
REMARK    4  A    between atoms: C_13  and  C_14
REMARK    5  A    between atoms: C_28  and  C_30
REMARK    6  A    between atoms: C_30  and  O_31
REMARK    7  A    between atoms: O_31  and  C_32
REMARK    8  A    between atoms: C_33  and  C_34
REMARK                            x       y       z     vdW  Elec       q    Type
REMARK                         _______ _______ _______ _____ _____    ______ ____
ROOT
ATOM      1  C   UNL     1      -0.000   0.000  -0.000  0.00  0.00    +0.037 C 
ATOM      2  C   UNL     1      -0.000   0.000  -0.000  0.00  0.00    +0.011 C 
ATOM      3  C   UNL     1      -0.000  -0.000  -0.000  0.00  0.00    +0.225 C 
ATOM      4  C   UNL     1      -0.000  -0.000  -0.000  0.00  0.00    +0.179 A 
ATOM      5  O   UNL     1      -0.000  -0.000  -0.000  0.00  0.00    -0.459 OA
ATOM      6  C   UNL     1      -0.000   0.000  -0.000  0.00  0.00    +0.211 A 
ATOM      7  C   UNL     1      -0.000   0.000  -0.000  0.00  0.00    +0.101 A 
ATOM      8  C   UNL     1      -0.000  -0.000  -0.000  0.00  0.00    +0.343 C 
ATOM      9  O   UNL     1      -0.000   0.000  -0.000  0.00  0.00    -0.454 OA
ATOM     10  C   UNL     1      -0.000  -0.000  -0.000  0.00  0.00    +0.217 C 
ATOM     11  C   UNL     1      -0.000  -0.000   0.000  0.00  0.00    +0.061 C 
ATOM     12  C   UNL     1      -0.000   0.000  -0.000  0.00  0.00    +0.025 C 
ATOM     13  O   UNL     1      -0.000  -0.000  -0.000  0.00  0.00    -0.245 OA
ATOM     14  C   UNL     1      -0.000  -0.000  -0.000  0.00  0.00    +0.029 A 
ATOM     15  O   UNL     1      -0.000  -0.000  -0.000  0.00  0.00    -0.284 OA
ATOM     16  C   UNL     1      -0.000  -0.000  -0.000  0.00  0.00    -0.008 C 
ATOM     17  C   UNL     1      -0.000   0.000  -0.000  0.00  0.00    +0.205 C 
ATOM     18  C   UNL     1      -0.000  -0.000  -0.000  0.00  0.00    +0.064 C 
ATOM     19  C   UNL     1      -0.000   0.000  -0.000  0.00  0.00    +0.037 C 
ATOM     20  C   UNL     1      -0.000   0.000  -0.000  0.00  0.00    +0.020 C 
ATOM     21  C   UNL     1      -0.000   0.000  -0.000  0.00  0.00    +0.140 C 
ATOM     22  O   UNL     1      -0.000  -0.000  -0.000  0.00  0.00    -0.297 OA
ATOM     23  C   UNL     1      -0.000  -0.000  -0.000  0.00  0.00    +0.075 C 
ATOM     24  C   UNL     1      -0.000  -0.000  -0.000  0.00  0.00    +0.017 C 
ENDROOT
BRANCH  10  25
ATOM     25  C   UNL     1      -0.000  -0.000  -0.000  0.00  0.00    +0.205 C 
BRANCH  25  26
ATOM     26  O   UNL     1      -0.000  -0.000  -0.000  0.00  0.00    -0.379 OA
ATOM     27  C   UNL     1      -0.000  -0.000  -0.000  0.00  0.00    +0.194 C 
ENDBRANCH  25  26
ENDBRANCH  10  25
BRANCH  17  28
ATOM     28  O   UNL     1      -0.000   0.000  -0.000  0.00  0.00    -0.457 OA
BRANCH  28  29
ATOM     29  C   UNL     1      -0.000   0.000  -0.000  0.00  0.00    +0.305 C 
ATOM     30  O   UNL     1      -0.000   0.000  -0.000  0.00  0.00    -0.251 OA
ATOM     31  C   UNL     1      -0.000   0.000  -0.000  0.00  0.00    +0.136 C 
ENDBRANCH  28  29
ENDBRANCH  17  28
TORSDOF 4
