REMARK  Name = 
REMARK  5 active torsions:
REMARK  status: ('A' for Active; 'I' for Inactive)
REMARK    1  A    between atoms: C_5  and  C_6
REMARK    2  A    between atoms: C_10  and  C_16
REMARK    3  A    between atoms: C_13  and  C_14
REMARK    4  A    between atoms: C_13  and  C_15
REMARK    5  A    between atoms: C_19  and  O_20
REMARK                            x       y       z     vdW  Elec       q    Type
REMARK                         _______ _______ _______ _____ _____    ______ ____
ROOT
ATOM      1  C   UNL     1       1.978   0.136   0.206  0.00  0.00    +0.025 C 
ATOM      2  C   UNL     1       2.374  -1.272   0.768  0.00  0.00    +0.068 C 
ATOM      3  C   UNL     1       2.218  -1.322   2.300  0.00  0.00    +0.041 C 
ATOM      4  C   UNL     1       1.443  -2.367   0.208  0.00  0.00    +0.041 C 
ATOM      5  O   UNL     1       3.739  -1.646   0.511  0.00  0.00    -0.365 OA
ATOM      6  C   UNL     1       4.291  -1.391  -0.796  0.00  0.00    +0.156 C 
ATOM      7  C   UNL     1       3.968   0.051  -1.268  0.00  0.00    +0.048 C 
ATOM      8  C   UNL     1       4.653   1.079  -0.362  0.00  0.00    -0.071 C 
ATOM      9  C   UNL     1       6.090   1.402  -0.659  0.00  0.00    +0.039 C 
ATOM     10  C   UNL     1       3.984   1.672   0.644  0.00  0.00    -0.027 C 
ATOM     11  C   UNL     1       2.447   0.271  -1.243  0.00  0.00    +0.017 C 
ATOM     12  C   UNL     1       2.548   1.361   0.962  0.00  0.00    +0.033 C 
ENDROOT
BRANCH   6  13
ATOM     13  C   UNL     1       4.003  -2.530  -1.778  0.00  0.00    -0.018 A 
ATOM     14  C   UNL     1       4.314  -3.850  -1.407  0.00  0.00    +0.010 A 
ATOM     15  C   UNL     1       4.080  -4.918  -2.279  0.00  0.00    +0.046 A 
ATOM     16  C   UNL     1       3.527  -4.680  -3.530  0.00  0.00    +0.117 A 
ATOM     17  C   UNL     1       3.217  -3.389  -3.930  0.00  0.00    +0.046 A 
ATOM     18  C   UNL     1       3.475  -2.321  -3.065  0.00  0.00    +0.010 A 
BRANCH  16  19
ATOM     19  O   UNL     1       3.297  -5.744  -4.350  0.00  0.00    -0.507 OA
ATOM     20  H   UNL     1       2.894  -5.420  -5.172  0.00  0.00    +0.292 HD
ENDBRANCH  16  19
ENDBRANCH   6  13
TORSDOF 2
