REMARK  Name = 
REMARK  6 active torsions:
REMARK  status: ('A' for Active; 'I' for Inactive)
REMARK    1  A    between atoms: C_2  and  O_3
REMARK    2  A    between atoms: C_8  and  C_10
REMARK    3  A    between atoms: C_10  and  C_11
REMARK    4  A    between atoms: C_11  and  C_12
REMARK    5  A    between atoms: C_14  and  C_16
REMARK    6  A    between atoms: C_23  and  O_25
REMARK                            x       y       z     vdW  Elec       q    Type
REMARK                         _______ _______ _______ _____ _____    ______ ____
ROOT
ATOM      1  C   UNL     1      -1.400  -0.604  -1.922  0.00  0.00    +0.006 C 
ATOM      2  C   UNL     1      -1.996  -1.948  -1.359  0.00  0.00    +0.051 C 
ATOM      3  C   UNL     1      -3.531  -1.984  -1.470  0.00  0.00    -0.046 C 
ATOM      4  C   UNL     1      -4.321  -2.611  -0.578  0.00  0.00    -0.023 C 
ATOM      5  C   UNL     1      -3.809  -3.217   0.684  0.00  0.00    +0.030 C 
ATOM      6  C   UNL     1      -2.571  -2.475   1.140  0.00  0.00    +0.036 C 
ATOM      7  C   UNL     1      -4.153  -1.318  -2.591  0.00  0.00    -0.000 C 
ATOM      8  C   UNL     1      -3.476  -0.538  -3.436  0.00  0.00    -0.023 C 
ATOM      9  C   UNL     1      -1.503  -2.460   0.047  0.00  0.00    +0.122 C 
ATOM     10  C   UNL     1      -1.998  -0.280  -3.341  0.00  0.00    +0.012 C 
ATOM     11  C   UNL     1      -1.340  -1.037  -4.506  0.00  0.00    +0.012 C 
ENDROOT
BRANCH   9  12
ATOM     12  O   UNL     1      -0.385  -1.786   0.603  0.00  0.00    -0.391 OA
ATOM     13  H   UNL     1      -0.661  -0.896   0.879  0.00  0.00    +0.210 HD
ENDBRANCH   9  12
BRANCH   1  14
ATOM     14  C   UNL     1       0.150  -0.590  -1.972  0.00  0.00    +0.008 C 
BRANCH  14  15
ATOM     15  C   UNL     1       0.787   0.728  -2.445  0.00  0.00    +0.045 C 
BRANCH  15  18
ATOM     16  C   UNL     1       2.995   2.996  -2.167  0.00  0.00    +0.129 C 
ATOM     17  C   UNL     1       3.065   1.781  -3.070  0.00  0.00    +0.076 C 
ATOM     18  C   UNL     1       2.325   0.601  -2.459  0.00  0.00    +0.179 C 
ATOM     19  O   UNL     1       2.809   0.332  -1.133  0.00  0.00    -0.461 OA
ATOM     20  C   UNL     1       2.927   1.326  -0.225  0.00  0.00    +0.310 C 
ATOM     21  O   UNL     1       2.843   1.098   0.978  0.00  0.00    -0.251 OA
ATOM     22  C   UNL     1       3.379   2.673  -0.734  0.00  0.00    +0.152 C 
BRANCH  16  23
ATOM     23  O   UNL     1       1.692   3.569  -2.193  0.00  0.00    -0.391 OA
ATOM     24  H   UNL     1       1.428   3.691  -3.122  0.00  0.00    +0.210 HD
ENDBRANCH  16  23
ENDBRANCH  15  18
ENDBRANCH  14  15
ENDBRANCH   1  14
TORSDOF 5
