REMARK  Name = 
REMARK  4 active torsions:
REMARK  status: ('A' for Active; 'I' for Inactive)
REMARK    1  A    between atoms: O_1  and  N_2
REMARK    2  A    between atoms: N_6  and  C_7
REMARK    3  A    between atoms: C_7  and  C_8
REMARK    4  A    between atoms: C_23  and  C_25
REMARK                            x       y       z     vdW  Elec       q    Type
REMARK                         _______ _______ _______ _____ _____    ______ ____
ROOT
ATOM      1  N   UNL     1       1.886  -0.005   0.174  0.00  0.00    -0.082 NA
ATOM      2  C   UNL     1       2.743  -0.777   0.759  0.00  0.00    +0.174 C 
ATOM      3  C   UNL     1       4.210  -0.681   0.639  0.00  0.00    +0.038 A 
ATOM      4  C   UNL     1       4.716  -1.577   1.601  0.00  0.00    +0.047 A 
ATOM      5  C   UNL     1       6.076  -1.699   1.823  0.00  0.00    +0.024 A 
ATOM      6  C   UNL     1       6.934  -0.921   1.051  0.00  0.00    +0.002 A 
ATOM      7  C   UNL     1       6.427  -0.048   0.068  0.00  0.00    +0.009 A 
ATOM      8  N   UNL     1       3.686  -2.276   2.251  0.00  0.00    -0.261 N 
ATOM      9  C   UNL     1       5.040   0.106  -0.173  0.00  0.00    -0.007 A 
ATOM     10  C   UNL     1       2.452  -1.908   1.760  0.00  0.00    +0.273 C 
ATOM     11  O   UNL     1       1.367  -2.364   2.053  0.00  0.00    -0.268 OA
ENDROOT
BRANCH   9  12
ATOM     12  C   UNL     1       4.575   1.046  -1.228  0.00  0.00    -0.017 A 
ATOM     13  C   UNL     1       5.214   2.282  -1.450  0.00  0.00    +0.008 A 
ATOM     14  C   UNL     1       4.752   3.187  -2.416  0.00  0.00    +0.001 A 
ATOM     15  C   UNL     1       3.619   2.891  -3.164  0.00  0.00    +0.000 A 
ATOM     16  C   UNL     1       2.984   1.669  -2.989  0.00  0.00    +0.001 A 
ATOM     17  C   UNL     1       3.489   0.745  -2.065  0.00  0.00    +0.008 A 
ENDBRANCH   9  12
BRANCH   1  18
ATOM     18  O   UNL     1       0.568  -0.343   0.476  0.00  0.00    -0.409 OA
ATOM     19  H   UNL     1       0.058   0.258  -0.099  0.00  0.00    +0.328 HD
ENDBRANCH   1  18
BRANCH   8  20
ATOM     20  C   UNL     1       3.849  -3.173   3.372  0.00  0.00    +0.153 C 
BRANCH  20  21
ATOM     21  C   UNL     1       4.156  -4.607   3.013  0.00  0.00    +0.015 A 
ATOM     22  C   UNL     1       5.255  -5.277   3.578  0.00  0.00    +0.134 A 
ATOM     23  O   UNL     1       6.108  -4.546   4.364  0.00  0.00    -0.465 OA
ATOM     24  C   UNL     1       6.977  -5.353   5.158  0.00  0.00    +0.394 C 
ATOM     25  O   UNL     1       7.599  -6.403   4.431  0.00  0.00    -0.339 OA
ATOM     26  C   UNL     1       6.617  -7.342   4.013  0.00  0.00    +0.202 C 
ATOM     27  C   UNL     1       5.472  -6.645   3.346  0.00  0.00    +0.023 A 
ATOM     28  C   UNL     1       4.568  -7.358   2.551  0.00  0.00    +0.047 A 
ATOM     29  C   UNL     1       3.483  -6.701   1.987  0.00  0.00    +0.124 A 
ATOM     30  F   UNL     1       2.611  -7.395   1.243  0.00  0.00    -0.205 F 
ATOM     31  C   UNL     1       3.267  -5.344   2.211  0.00  0.00    +0.047 A 
ENDBRANCH  20  21
ENDBRANCH   8  20
TORSDOF 4
