REMARK  Name = 
REMARK  5 active torsions:
REMARK  status: ('A' for Active; 'I' for Inactive)
REMARK    1  A    between atoms: C_1  and  C_2
REMARK    2  A    between atoms: C_4  and  C_5
REMARK    3  A    between atoms: C_6  and  C_7
REMARK    4  A    between atoms: C_14  and  C_15
REMARK    5  A    between atoms: C_16  and  O_17
REMARK                            x       y       z     vdW  Elec       q    Type
REMARK                         _______ _______ _______ _____ _____    ______ ____
ROOT
ATOM      1  C   UNL     1       1.085  -0.039  -0.003  0.00  0.00    +0.047 C 
ATOM      2  C   UNL     1       2.587  -0.051   0.013  0.00  0.00    -0.008 A 
ATOM      3  C   UNL     1       3.295  -1.260   0.016  0.00  0.00    +0.123 A 
ATOM      4  C   UNL     1       4.697  -1.281   0.017  0.00  0.00    -0.008 A 
ATOM      5  C   UNL     1       5.483  -2.560   0.004  0.00  0.00    +0.047 C 
ATOM      6  C   UNL     1       5.386  -0.055   0.018  0.00  0.00    +0.015 A 
ATOM      7  C   UNL     1       4.702   1.168   0.031  0.00  0.00    -0.024 A 
ATOM      8  C   UNL     1       3.302   1.156   0.016  0.00  0.00    +0.015 A 
ENDROOT
BRANCH   3   9
ATOM      9  O   UNL     1       2.556  -2.412   0.010  0.00  0.00    -0.506 OA
ATOM     10  H   UNL     1       3.148  -3.179   0.014  0.00  0.00    +0.292 HD
ENDBRANCH   3   9
BRANCH   7  11
ATOM     11  C   UNL     1       5.399   2.463  -0.027  0.00  0.00    +0.008 C 
ATOM     12  C   UNL     1       6.590   2.717   0.544  0.00  0.00    +0.008 C 
BRANCH  12  13
ATOM     13  C   UNL     1       7.297   4.005   0.443  0.00  0.00    -0.025 A 
ATOM     14  C   UNL     1       8.699   4.006   0.466  0.00  0.00    +0.008 A 
ATOM     15  C   UNL     1       9.415   5.203   0.372  0.00  0.00    +0.001 A 
ATOM     16  C   UNL     1       8.737   6.415   0.266  0.00  0.00    +0.000 A 
ATOM     17  C   UNL     1       7.344   6.431   0.267  0.00  0.00    +0.001 A 
ATOM     18  C   UNL     1       6.628   5.234   0.363  0.00  0.00    +0.008 A 
ENDBRANCH  12  13
ENDBRANCH   7  11
TORSDOF 3
