REMARK  Name = 
REMARK  10 active torsions:
REMARK  status: ('A' for Active; 'I' for Inactive)
REMARK    1  A    between atoms: C_1  and  C_2
REMARK    2  A    between atoms: C_2  and  C_4
REMARK    3  A    between atoms: C_7  and  C_9
REMARK    4  A    between atoms: C_11  and  N_12
REMARK    5  A    between atoms: N_12  and  S_13
REMARK    6  A    between atoms: S_13  and  C_16
REMARK    7  A    between atoms: C_19  and  C_20
REMARK    8  A    between atoms: C_22  and  C_23
REMARK    9  A    between atoms: C_24  and  C_26
REMARK   10  A    between atoms: C_26  and  O_27
REMARK                            x       y       z     vdW  Elec       q    Type
REMARK                         _______ _______ _______ _____ _____    ______ ____
ROOT
ATOM      1  C   UNL     1       5.322   2.030   3.684  0.00  0.00    +0.029 A 
ATOM      2  S   UNL     1       5.812   0.561   4.424  0.00  0.00    -0.079 S 
ATOM      3  C   UNL     1       6.753   1.354   5.598  0.00  0.00    +0.119 A 
ATOM      4  C   UNL     1       6.673   2.728   5.491  0.00  0.00    +0.070 A 
ATOM      5  C   UNL     1       5.826   3.112   4.396  0.00  0.00    +0.042 A 
ENDROOT
BRANCH   1   8
ATOM      6  C   UNL     1       3.281   2.570   0.382  0.00  0.00    +0.055 A 
ATOM      7  S   UNL     1       4.025   3.432   1.664  0.00  0.00    -0.085 S 
ATOM      8  C   UNL     1       4.517   2.002   2.475  0.00  0.00    +0.027 A 
ATOM      9  C   UNL     1       4.056   0.886   1.792  0.00  0.00    +0.017 A 
ATOM     10  C   UNL     1       3.351   1.208   0.596  0.00  0.00    +0.019 A 
BRANCH   6  12
ATOM     11  C   UNL     1       2.238   2.479  -1.920  0.00  0.00    +0.092 C 
ATOM     12  C   UNL     1       2.697   3.302  -0.735  0.00  0.00    +0.167 C 
ATOM     13  O   UNL     1       2.570   4.527  -0.774  0.00  0.00    -0.292 OA
ENDBRANCH   6  12
ENDBRANCH   1   8
BRANCH   3  14
ATOM     14  C   UNL     1       7.537   0.586   6.536  0.00  0.00    +0.345 C 
ATOM     15  O   UNL     1       8.581   0.969   7.046  0.00  0.00    -0.244 OA
BRANCH  14  16
ATOM     16  O   UNL     1       6.981  -0.617   6.832  0.00  0.00    -0.477 OA
ATOM     17  H   UNL     1       6.117  -0.740   6.389  0.00  0.00    +0.295 HD
ENDBRANCH  14  16
ENDBRANCH   3  14
BRANCH   4  18
ATOM     18  N   UNL     1       7.363   3.654   6.320  0.00  0.00    -0.215 N 
ATOM     19  H   UNL     1       8.260   3.299   6.673  0.00  0.00    +0.174 HD
BRANCH  18  20
ATOM     20  S   UNL     1       6.500   4.295   7.666  0.00  0.00    +0.073 S 
ATOM     21  O   UNL     1       5.826   3.195   8.324  0.00  0.00    -0.150 OA
ATOM     22  O   UNL     1       5.758   5.451   7.209  0.00  0.00    -0.150 OA
BRANCH  20  23
ATOM     23  C   UNL     1       7.838   4.872   8.723  0.00  0.00    +0.111 A 
ATOM     24  C   UNL     1       8.456   4.068   9.701  0.00  0.00    -0.024 A 
ATOM     25  C   UNL     1       8.067   2.650  10.010  0.00  0.00    +0.046 C 
ATOM     26  C   UNL     1       9.491   4.630  10.477  0.00  0.00    +0.008 A 
ATOM     27  C   UNL     1       9.925   5.948  10.288  0.00  0.00    -0.050 A 
ATOM     28  C   UNL     1      11.069   6.476  11.104  0.00  0.00    +0.044 C 
ATOM     29  C   UNL     1       9.277   6.741   9.340  0.00  0.00    +0.005 A 
ATOM     30  C   UNL     1       8.239   6.210   8.566  0.00  0.00    +0.029 A 
ENDBRANCH  20  23
ENDBRANCH  18  20
ENDBRANCH   4  18
TORSDOF 7
