REMARK  Name = 
REMARK  2 active torsions:
REMARK  status: ('A' for Active; 'I' for Inactive)
REMARK    1  A    between atoms: O_1  and  C_2
REMARK    2  A    between atoms: C_9  and  C_11
REMARK                            x       y       z     vdW  Elec       q    Type
REMARK                         _______ _______ _______ _____ _____    ______ ____
ROOT
ATOM      1  C   UNL     1       2.284  -0.014  -0.021  0.00  0.00    +0.118 A 
ATOM      2  C   UNL     1       3.056   1.139  -0.020  0.00  0.00    +0.047 A 
ATOM      3  C   UNL     1       4.453   1.051   0.000  0.00  0.00    +0.032 A 
ATOM      4  C   UNL     1       5.072  -0.215   0.018  0.00  0.00    +0.079 A 
ATOM      5  N   UNL     1       6.438  -0.458   0.026  0.00  0.00    -0.237 NA
ATOM      6  C   UNL     1       6.665  -1.757   0.032  0.00  0.00    +0.132 A 
ATOM      7  S   UNL     1       5.265  -2.751   0.051  0.00  0.00    -0.065 S 
ATOM      8  C   UNL     1       4.265  -1.354   0.021  0.00  0.00    +0.043 A 
ATOM      9  C   UNL     1       2.862  -1.282  -0.001  0.00  0.00    +0.062 A 
ENDROOT
BRANCH   6  10
ATOM     10  C   UNL     1       7.978  -2.364  -0.004  0.00  0.00    +0.122 C 
ATOM     11  S   UNL     1       9.376  -1.322  -0.134  0.00  0.00    -0.096 S 
ATOM     12  C   UNL     1      10.428  -2.768  -0.385  0.00  0.00    +0.173 C 
ATOM     13  C   UNL     1       9.535  -3.945  -0.064  0.00  0.00    +0.247 C 
ATOM     14  O   UNL     1       9.975  -5.081   0.054  0.00  0.00    -0.273 OA
ATOM     15  N   UNL     1       8.199  -3.638   0.026  0.00  0.00    -0.171 NA
ENDBRANCH   6  10
BRANCH   1  16
ATOM     16  O   UNL     1       0.928   0.135  -0.043  0.00  0.00    -0.507 OA
ATOM     17  H   UNL     1       0.512  -0.743  -0.038  0.00  0.00    +0.292 HD
ENDBRANCH   1  16
TORSDOF 2
