REMARK  Name = 
REMARK  9 active torsions:
REMARK  status: ('A' for Active; 'I' for Inactive)
REMARK    1  A    between atoms: C_2  and  C_3
REMARK    2  A    between atoms: C_6  and  C_10
REMARK    3  A    between atoms: N_12  and  C_13
REMARK    4  A    between atoms: N_12  and  C_16
REMARK    5  A    between atoms: C_13  and  C_14
REMARK    6  A    between atoms: C_13  and  C_15
REMARK    7  A    between atoms: C_17  and  C_27
REMARK    8  A    between atoms: C_19  and  C_21
REMARK    9  A    between atoms: C_27  and  O_28
REMARK                            x       y       z     vdW  Elec       q    Type
REMARK                         _______ _______ _______ _____ _____    ______ ____
ROOT
ATOM      1  C   UNL     1       2.692  -2.753  -6.192  0.00  0.00    +0.058 A 
ATOM      2  C   UNL     1       2.696  -1.991  -7.413  0.00  0.00    +0.040 A 
ATOM      3  C   UNL     1       2.267  -2.708  -8.514  0.00  0.00    +0.022 A 
ATOM      4  S   UNL     1       1.973  -4.335  -8.067  0.00  0.00    -0.080 S 
ATOM      5  C   UNL     1       2.300  -4.064  -6.411  0.00  0.00    +0.118 A 
ENDROOT
BRANCH   3   6
ATOM      6  C   UNL     1       2.107  -2.281  -9.920  0.00  0.00    -0.011 A 
ATOM      7  C   UNL     1       2.863  -1.215 -10.432  0.00  0.00    +0.009 A 
ATOM      8  C   UNL     1       2.774  -0.853 -11.782  0.00  0.00    +0.001 A 
ATOM      9  C   UNL     1       1.923  -1.545 -12.639  0.00  0.00    +0.000 A 
ATOM     10  C   UNL     1       1.139  -2.580 -12.144  0.00  0.00    +0.001 A 
ATOM     11  C   UNL     1       1.222  -2.935 -10.795  0.00  0.00    +0.009 A 
ENDBRANCH   3   6
BRANCH   1  13
ATOM     12  C   UNL     1       2.294  -1.144  -4.393  0.00  0.00    +0.223 C 
ATOM     13  N   UNL     1       3.046  -2.217  -4.933  0.00  0.00    -0.267 N 
ATOM     14  O   UNL     1       2.687  -0.470  -3.436  0.00  0.00    -0.275 OA
BRANCH  12  19
ATOM     15  C   UNL     1      -1.471   0.778  -5.729  0.00  0.00    -0.014 C 
ATOM     16  C   UNL     1      -1.667   1.970  -4.789  0.00  0.00    +0.007 C 
ATOM     17  C   UNL     1      -1.532  -0.557  -4.961  0.00  0.00    +0.004 C 
ATOM     18  C   UNL     1      -0.263  -0.849  -4.141  0.00  0.00    +0.013 C 
ATOM     19  C   UNL     1       0.958  -0.787  -5.064  0.00  0.00    +0.076 C 
ATOM     20  C   UNL     1       1.067   0.616  -5.678  0.00  0.00    +0.013 C 
ATOM     21  C   UNL     1      -0.165   0.908  -6.529  0.00  0.00    +0.004 C 
ENDBRANCH  12  19
BRANCH  13  22
ATOM     22  C   UNL     1       4.420  -2.440  -4.388  0.00  0.00    +0.075 C 
ATOM     23  C   UNL     1       5.280  -3.447  -5.176  0.00  0.00    +0.028 C 
ATOM     24  C   UNL     1       4.436  -2.864  -2.911  0.00  0.00    +0.028 C 
ENDBRANCH  13  22
ENDBRANCH   1  13
BRANCH   5  25
ATOM     25  C   UNL     1       2.120  -5.144  -5.447  0.00  0.00    +0.345 C 
ATOM     26  O   UNL     1       2.206  -5.051  -4.232  0.00  0.00    -0.244 OA
BRANCH  25  27
ATOM     27  O   UNL     1       1.825  -6.337  -6.033  0.00  0.00    -0.477 OA
ATOM     28  H   UNL     1       1.780  -6.261  -7.006  0.00  0.00    +0.295 HD
ENDBRANCH  25  27
ENDBRANCH   5  25
TORSDOF 6
