REMARK  Name = 
REMARK  4 active torsions:
REMARK  status: ('A' for Active; 'I' for Inactive)
REMARK    1  A    between atoms: C_1  and  O_2
REMARK    2  A    between atoms: O_2  and  C_3
REMARK    3  A    between atoms: C_6  and  C_7
REMARK    4  A    between atoms: C_7  and  C_8
REMARK                            x       y       z     vdW  Elec       q    Type
REMARK                         _______ _______ _______ _____ _____    ______ ____
ROOT
ATOM      1  C   UNL     1       3.054   1.069  -0.478  0.00  0.00    +0.120 A 
ATOM      2  C   UNL     1       4.058   0.713  -1.381  0.00  0.00    +0.046 A 
ATOM      3  C   UNL     1       4.606   1.671  -2.239  0.00  0.00    +0.007 A 
ATOM      4  C   UNL     1       4.160   3.000  -2.198  0.00  0.00    -0.038 A 
ATOM      5  C   UNL     1       3.221   3.365  -1.225  0.00  0.00    +0.007 A 
ATOM      6  C   UNL     1       2.670   2.404  -0.371  0.00  0.00    +0.046 A 
ENDROOT
BRANCH   1   8
ATOM      7  C   UNL     1       1.155   0.218   0.622  0.00  0.00    +0.277 C 
ATOM      8  O   UNL     1       2.522   0.045   0.260  0.00  0.00    -0.495 OA
ENDBRANCH   1   8
BRANCH   4   9
ATOM      9  C   UNL     1       4.617   4.003  -3.232  0.00  0.00    +0.130 C 
BRANCH   9  10
ATOM     10  C   UNL     1       5.776   4.916  -2.890  0.00  0.00    +0.215 C 
ATOM     11  O   UNL     1       6.116   5.830  -3.641  0.00  0.00    -0.276 OA
ATOM     12  N   UNL     1       6.467   4.704  -1.741  0.00  0.00    -0.329 N 
ATOM     13  H   UNL     1       7.256   5.310  -1.553  0.00  0.00    +0.145 HD
ATOM     14  H   UNL     1       6.284   3.929  -1.120  0.00  0.00    +0.145 HD
ENDBRANCH   9  10
ENDBRANCH   4   9
TORSDOF 3
