REMARK  Name = 
REMARK  7 active torsions:
REMARK  status: ('A' for Active; 'I' for Inactive)
REMARK    1  A    between atoms: C_2  and  O_25
REMARK    2  A    between atoms: C_23  and  C_24
REMARK    3  A    between atoms: O_25  and  C_26
REMARK    4  A    between atoms: C_26  and  C_28
REMARK    5  A    between atoms: C_28  and  C_29
REMARK    6  A    between atoms: C_29  and  C_30
REMARK    7  A    between atoms: C_30  and  O_31
REMARK                            x       y       z     vdW  Elec       q    Type
REMARK                         _______ _______ _______ _____ _____    ______ ____
ROOT
ATOM      1  C   UNL     1      -0.000  -0.000  -0.000  0.00  0.00    +0.183 C 
ATOM      2  C   UNL     1      -0.000  -0.000  -0.000  0.00  0.00    +0.008 C 
ATOM      3  C   UNL     1      -0.000  -0.000  -0.000  0.00  0.00    +0.015 C 
ATOM      4  C   UNL     1      -0.000  -0.000  -0.000  0.00  0.00    +0.002 C 
ATOM      5  C   UNL     1      -0.000  -0.000  -0.000  0.00  0.00    -0.003 C 
ATOM      6  C   UNL     1      -0.000  -0.000  -0.000  0.00  0.00    -0.000 C 
ATOM      7  C   UNL     1      -0.000  -0.000  -0.000  0.00  0.00    +0.005 C 
ATOM      8  C   UNL     1      -0.000  -0.000  -0.000  0.00  0.00    +0.019 C 
ATOM      9  C   UNL     1      -0.000  -0.000  -0.000  0.00  0.00    -0.063 C 
ATOM     10  C   UNL     1      -0.000  -0.000  -0.000  0.00  0.00    +0.045 C 
ATOM     11  C   UNL     1      -0.000  -0.000  -0.000  0.00  0.00    +0.156 C 
ATOM     12  O   UNL     1      -0.000  -0.000  -0.000  0.00  0.00    -0.293 OA
ATOM     13  C   UNL     1      -0.000  -0.000  -0.000  0.00  0.00    +0.079 C 
ATOM     14  C   UNL     1      -0.000  -0.000  -0.000  0.00  0.00    +0.031 C 
ATOM     15  C   UNL     1      -0.000  -0.000  -0.000  0.00  0.00    +0.016 C 
ATOM     16  C   UNL     1      -0.000  -0.000  -0.000  0.00  0.00    +0.008 C 
ATOM     17  C   UNL     1      -0.000  -0.000  -0.000  0.00  0.00    +0.008 C 
ATOM     18  C   UNL     1      -0.000  -0.000  -0.000  0.00  0.00    +0.011 C 
ATOM     19  C   UNL     1      -0.000  -0.000  -0.000  0.00  0.00    +0.045 C 
ENDROOT
BRANCH   1  20
ATOM     20  O   UNL     1      -0.000  -0.000  -0.000  0.00  0.00    -0.461 OA
BRANCH  20  21
ATOM     21  C   UNL     1      -0.000  -0.000  -0.000  0.00  0.00    +0.308 C 
ATOM     22  O   UNL     1      -0.000  -0.000  -0.000  0.00  0.00    -0.251 OA
BRANCH  21  23
ATOM     23  C   UNL     1      -0.000  -0.000  -0.000  0.00  0.00    +0.132 C 
BRANCH  23  24
ATOM     24  C   UNL     1      -0.000  -0.000  -0.000  0.00  0.00    +0.131 C 
BRANCH  24  25
ATOM     25  C   UNL     1      -0.000  -0.000  -0.000  0.00  0.00    +0.305 C 
ATOM     26  O   UNL     1      -0.000  -0.000  -0.000  0.00  0.00    -0.251 OA
BRANCH  25  27
ATOM     27  O   UNL     1      -0.000  -0.000  -0.000  0.00  0.00    -0.481 OA
ATOM     28  H   UNL     1      -0.000  -0.000  -0.000  0.00  0.00    +0.295 HD
ENDBRANCH  25  27
ENDBRANCH  24  25
ENDBRANCH  23  24
ENDBRANCH  21  23
ENDBRANCH  20  21
ENDBRANCH   1  20
TORSDOF 6
