REMARK  Name = 
REMARK  6 active torsions:
REMARK  status: ('A' for Active; 'I' for Inactive)
REMARK    1  A    between atoms: C_5  and  N_6
REMARK    2  A    between atoms: N_6  and  C_7
REMARK    3  A    between atoms: C_7  and  O_9
REMARK    4  A    between atoms: O_9  and  C_10
REMARK    5  A    between atoms: C_10  and  C_11
REMARK    6  A    between atoms: C_11  and  N_12
REMARK                            x       y       z     vdW  Elec       q    Type
REMARK                         _______ _______ _______ _____ _____    ______ ____
ROOT
ATOM      1  C   UNL     1       9.975  -2.395  -1.198  0.00  0.00    +0.250 C 
ENDROOT
BRANCH   1   2
ATOM      2  O   UNL     1       9.367  -1.083  -1.047  0.00  0.00    -0.472 OA
BRANCH   2   3
ATOM      3  C   UNL     1       9.069  -0.252  -2.078  0.00  0.00    +0.232 C 
ATOM      4  S   UNL     1       9.238  -0.651  -3.684  0.00  0.00    +0.006 S 
BRANCH   3   5
ATOM      5  N   UNL     1       8.693   1.019  -1.732  0.00  0.00    -0.279 N 
ATOM      6  H   UNL     1       8.791   1.688  -2.486  0.00  0.00    +0.156 HD
BRANCH   5  11
ATOM      7 CL   UNL     1       6.134   3.246   3.129  0.00  0.00    -0.084 Cl
ATOM      8  C   UNL     1       6.875   2.583   1.725  0.00  0.00    +0.041 A 
ATOM      9  C   UNL     1       7.419   3.428   0.762  0.00  0.00    +0.022 A 
ATOM     10  C   UNL     1       8.024   2.884  -0.376  0.00  0.00    +0.025 A 
ATOM     11  C   UNL     1       8.112   1.495  -0.542  0.00  0.00    +0.034 A 
ATOM     12  C   UNL     1       7.545   0.659   0.423  0.00  0.00    +0.025 A 
ATOM     13  C   UNL     1       6.923   1.202   1.553  0.00  0.00    +0.022 A 
ENDBRANCH   5  11
ENDBRANCH   3   5
ENDBRANCH   2   3
ENDBRANCH   1   2
BRANCH   1  14
ATOM     14  C   UNL     1      11.476  -2.300  -1.491  0.00  0.00    +0.158 C 
BRANCH  14  15
ATOM     15  N   UNL     1      12.108  -3.603  -1.572  0.00  0.00    -0.231 N 
ATOM     16  C   UNL     1      12.157  -4.372  -2.704  0.00  0.00    +0.254 C 
ATOM     17  O   UNL     1      11.718  -4.136  -3.811  0.00  0.00    -0.270 OA
ATOM     18  C   UNL     1      12.848  -5.610  -2.335  0.00  0.00    +0.049 A 
ATOM     19  C   UNL     1      13.175  -6.720  -3.093  0.00  0.00    +0.014 A 
ATOM     20  C   UNL     1      13.836  -7.766  -2.439  0.00  0.00    +0.001 A 
ATOM     21  C   UNL     1      14.147  -7.682  -1.065  0.00  0.00    +0.001 A 
ATOM     22  C   UNL     1      13.801  -6.550  -0.322  0.00  0.00    +0.014 A 
ATOM     23  C   UNL     1      13.149  -5.532  -0.989  0.00  0.00    +0.049 A 
ATOM     24  C   UNL     1      12.650  -4.250  -0.497  0.00  0.00    +0.254 C 
ATOM     25  O   UNL     1      12.712  -3.889   0.663  0.00  0.00    -0.270 OA
ENDBRANCH  14  15
ENDBRANCH   1  14
TORSDOF 6
