REMARK  Name = 
REMARK  17 active torsions:
REMARK  status: ('A' for Active; 'I' for Inactive)
REMARK    1  A    between atoms: CA_2  and  CB_3
REMARK    2  A    between atoms: CA_2  and  N_11
REMARK    3  A    between atoms: CA_2  and  C_25
REMARK    4  A    between atoms: CB_3  and  CG_4
REMARK    5  A    between atoms: CZ_7  and  OH_8
REMARK    6  A    between atoms: C_12  and  C_14
REMARK    7  A    between atoms: C_14  and  C_15
REMARK    8  A    between atoms: C_15  and  C_16
REMARK    9  A    between atoms: C_16  and  C_17
REMARK   10  A    between atoms: C_17  and  C_18
REMARK   11  A    between atoms: C_18  and  C_19
REMARK   12  A    between atoms: C_19  and  C_20
REMARK   13  A    between atoms: C_20  and  C_21
REMARK   14  A    between atoms: C_21  and  C_22
REMARK   15  A    between atoms: C_22  and  C_23
REMARK   16  A    between atoms: C_23  and  C_24
REMARK   17  A    between atoms: C_25  and  O_26
REMARK                            x       y       z     vdW  Elec       q    Type
REMARK                         _______ _______ _______ _____ _____    ______ ____
ROOT
ATOM      1  N   TYR A   1       2.442   1.415  -0.211  0.00  0.00    -0.302 N 
ATOM      2  H   TYR A   1       3.242   1.804   0.283  0.00  0.00    +0.150 HD
ATOM      3  C   UNK A   0       1.946   2.062  -1.315  0.00  0.00    +0.214 C 
ATOM      4  O   UNK A   0       1.064   1.578  -2.016  0.00  0.00    -0.276 OA
ENDROOT
BRANCH   3   5
ATOM      5  C   UNK A   0       2.562   3.426  -1.554  0.00  0.00    +0.096 C 
BRANCH   5   6
ATOM      6  C   UNK A   0       2.119   3.994  -2.899  0.00  0.00    +0.009 C 
BRANCH   6   7
ATOM      7  C   UNK A   0       2.652   5.403  -3.136  0.00  0.00    +0.000 C 
BRANCH   7   8
ATOM      8  C   UNK A   0       2.172   5.929  -4.489  0.00  0.00    +0.000 C 
BRANCH   8   9
ATOM      9  C   UNK A   0       2.677   7.344  -4.754  0.00  0.00    +0.000 C 
BRANCH   9  10
ATOM     10  C   UNK A   0       2.188   7.855  -6.109  0.00  0.00    +0.000 C 
BRANCH  10  11
ATOM     11  C   UNK A   0       2.690   9.274  -6.375  0.00  0.00    -0.000 C 
BRANCH  11  12
ATOM     12  C   UNK A   0       2.205   9.792  -7.728  0.00  0.00    -0.000 C 
BRANCH  12  13
ATOM     13  C   UNK A   0       2.715  11.211  -7.985  0.00  0.00    -0.000 C 
BRANCH  13  14
ATOM     14  C   UNK A   0       2.234  11.741  -9.334  0.00  0.00    -0.003 C 
ATOM     15  C   UNK A   0       2.746  13.152  -9.587  0.00  0.00    +0.004 C 
ENDBRANCH  13  14
ENDBRANCH  12  13
ENDBRANCH  11  12
ENDBRANCH  10  11
ENDBRANCH   9  10
ENDBRANCH   8   9
ENDBRANCH   7   8
ENDBRANCH   6   7
ENDBRANCH   5   6
ENDBRANCH   3   5
BRANCH   1  16
ATOM     16  CA  TYR A   1       1.998   0.064   0.131  0.00  0.00    +0.186 C 
BRANCH  16  17
ATOM     17  C   TYR A   1       2.551  -0.240   1.526  0.00  0.00    +0.326 C 
ATOM     18  OXT TYR A   1       3.713  -0.550   1.755  0.00  0.00    -0.249 OA
BRANCH  17  19
ATOM     19  O   TYR A   1       1.682   0.048   2.526  0.00  0.00    -0.479 OA
ATOM     20  H   TYR A   1       0.824   0.400   2.219  0.00  0.00    +0.295 HD
ENDBRANCH  17  19
ENDBRANCH  16  17
BRANCH  16  21
ATOM     21  CB  TYR A   1       2.478  -0.983  -0.892  0.00  0.00    +0.069 C 
BRANCH  21  22
ATOM     22  CG  TYR A   1       1.995  -2.382  -0.587  0.00  0.00    -0.045 A 
ATOM     23  CD2 TYR A   1       2.925  -3.393  -0.307  0.00  0.00    +0.007 A 
ATOM     24  CE2 TYR A   1       2.492  -4.682   0.004  0.00  0.00    +0.045 A 
ATOM     25  CZ  TYR A   1       1.133  -4.961   0.042  0.00  0.00    +0.117 A 
ATOM     26  CE1 TYR A   1       0.194  -3.978  -0.254  0.00  0.00    +0.045 A 
ATOM     27  CD1 TYR A   1       0.627  -2.691  -0.579  0.00  0.00    +0.007 A 
BRANCH  25  28
ATOM     28  OH  TYR A   1       0.755  -6.227   0.380  0.00  0.00    -0.507 OA
ATOM     29  HH  TYR A   1      -0.213  -6.249   0.458  0.00  0.00    +0.292 HD
ENDBRANCH  25  28
ENDBRANCH  21  22
ENDBRANCH  16  21
ENDBRANCH   1  16
TORSDOF 16
