REMARK  Name = 
REMARK  9 active torsions:
REMARK  status: ('A' for Active; 'I' for Inactive)
REMARK    1  A    between atoms: C_1  and  C_2
REMARK    2  A    between atoms: C_2  and  C_3
REMARK    3  A    between atoms: C_3  and  C_4
REMARK    4  A    between atoms: C_3  and  C_14
REMARK    5  A    between atoms: C_4  and  C_5
REMARK    6  A    between atoms: C_4  and  C_7
REMARK    7  A    between atoms: C_5  and  C_6
REMARK    8  A    between atoms: C_10  and  O_11
REMARK    9  A    between atoms: C_17  and  O_18
REMARK                            x       y       z     vdW  Elec       q    Type
REMARK                         _______ _______ _______ _____ _____    ______ ____
ROOT
ATOM      1  C   UNL     1       3.211   1.072  -0.286  0.00  0.00    +0.026 C 
ENDROOT
BRANCH   1   2
ATOM      2  C   UNL     1       4.758   1.068  -0.305  0.00  0.00    -0.043 A 
ATOM      3  C   UNL     1       5.524   2.240  -0.185  0.00  0.00    +0.007 A 
ATOM      4  C   UNL     1       6.925   2.186  -0.072  0.00  0.00    +0.045 A 
ATOM      5  C   UNL     1       7.577   0.963  -0.116  0.00  0.00    +0.117 A 
ATOM      6  C   UNL     1       6.862  -0.199  -0.360  0.00  0.00    +0.045 A 
ATOM      7  C   UNL     1       5.477  -0.137  -0.476  0.00  0.00    +0.007 A 
BRANCH   5   8
ATOM      8  O   UNL     1       8.925   0.935   0.094  0.00  0.00    -0.507 OA
ATOM      9  H   UNL     1       9.182   0.009   0.252  0.00  0.00    +0.292 HD
ENDBRANCH   5   8
ENDBRANCH   1   2
BRANCH   1  11
ATOM     10  C   UNL     1       2.891  -0.796   1.542  0.00  0.00    +0.004 C 
ATOM     11  C   UNL     1       2.611  -0.306   0.129  0.00  0.00    +0.005 C 
ENDBRANCH   1  11
BRANCH   1  12
ATOM     12  C   UNL     1       2.441   2.337   0.339  0.00  0.00    +0.026 C 
BRANCH  12  13
ATOM     13  C   UNL     1       2.576   2.676   1.837  0.00  0.00    -0.043 A 
ATOM     14  C   UNL     1       1.617   3.474   2.496  0.00  0.00    +0.007 A 
ATOM     15  C   UNL     1       1.667   3.709   3.875  0.00  0.00    +0.045 A 
ATOM     16  C   UNL     1       2.714   3.186   4.617  0.00  0.00    +0.117 A 
ATOM     17  C   UNL     1       3.741   2.506   3.986  0.00  0.00    +0.045 A 
ATOM     18  C   UNL     1       3.675   2.269   2.609  0.00  0.00    +0.007 A 
BRANCH  16  19
ATOM     19  O   UNL     1       2.691   3.353   5.968  0.00  0.00    -0.507 OA
ATOM     20  H   UNL     1       3.344   2.743   6.352  0.00  0.00    +0.292 HD
ENDBRANCH  16  19
ENDBRANCH  12  13
BRANCH  12  21
ATOM     21  C   UNL     1       0.954   2.407  -0.184  0.00  0.00    +0.005 C 
ATOM     22  C   UNL     1      -0.120   1.564   0.511  0.00  0.00    +0.004 C 
ENDBRANCH  12  21
ENDBRANCH   1  12
TORSDOF 7
