REMARK  Name = 
REMARK  3 active torsions:
REMARK  status: ('A' for Active; 'I' for Inactive)
REMARK    1  A    between atoms: C_7  and  C_8
REMARK    2  A    between atoms: N_16  and  C_17
REMARK    3  A    between atoms: C_17  and  C_18
REMARK                            x       y       z     vdW  Elec       q    Type
REMARK                         _______ _______ _______ _____ _____    ______ ____
ROOT
ATOM      1  C   UNL     1       2.262  -2.503   0.012  0.00  0.00    +0.092 A 
ATOM      2  N   UNL     1       3.018  -3.674   0.136  0.00  0.00    -0.227 NA
ATOM      3  C   UNL     1       2.436  -4.846   0.003  0.00  0.00    +0.163 A 
ATOM      4  N   UNL     1       3.171  -6.012   0.063  0.00  0.00    -0.322 N 
ATOM      5  H   UNL     1       2.640  -6.861  -0.118  0.00  0.00    +0.148 HD
ATOM      6  C   UNL     1       1.001  -4.902  -0.215  0.00  0.00    +0.178 A 
ATOM      7  N   UNL     1       0.295  -3.739  -0.294  0.00  0.00    -0.302 N 
ATOM      8  C   UNL     1      -1.018  -4.080  -0.470  0.00  0.00    +0.112 A 
ATOM      9  C   UNL     1      -1.032  -5.458  -0.477  0.00  0.00    +0.131 A 
ATOM     10  N   UNL     1       0.236  -5.970  -0.322  0.00  0.00    -0.233 NA
ATOM     11  C   UNL     1       0.930  -2.519  -0.203  0.00  0.00    +0.121 A 
ENDROOT
BRANCH   1  14
ATOM     12  F   UNL     1       1.175   0.053   0.929  0.00  0.00    -0.205 F 
ATOM     13  C   UNL     1       2.430   0.007   0.454  0.00  0.00    +0.133 A 
ATOM     14  C   UNL     1       2.997  -1.205   0.026  0.00  0.00    +0.037 A 
ATOM     15  C   UNL     1       4.329  -1.167  -0.421  0.00  0.00    +0.013 A 
ATOM     16  C   UNL     1       5.050   0.031  -0.469  0.00  0.00    +0.001 A 
ATOM     17  C   UNL     1       4.452   1.223  -0.062  0.00  0.00    +0.003 A 
ATOM     18  C   UNL     1       3.139   1.208   0.404  0.00  0.00    +0.039 A 
ENDBRANCH   1  14
BRANCH   4  19
ATOM     19  C   UNL     1       4.373  -6.150   0.848  0.00  0.00    +0.140 C 
BRANCH  19  20
ATOM     20  C   UNL     1       4.490  -7.548   1.399  0.00  0.00    -0.012 A 
ATOM     21  C   UNL     1       5.573  -8.359   1.077  0.00  0.00    +0.115 A 
ATOM     22  N   UNL     1       5.762  -9.609   1.563  0.00  0.00    -0.263 NA
ATOM     23  C   UNL     1       4.826 -10.078   2.415  0.00  0.00    +0.111 A 
ATOM     24  C   UNL     1       3.710  -9.358   2.802  0.00  0.00    +0.020 A 
ATOM     25  C   UNL     1       3.541  -8.075   2.285  0.00  0.00    +0.008 A 
ENDBRANCH  19  20
ENDBRANCH   4  19
TORSDOF 3
