REMARK  Name = 
REMARK  4 active torsions:
REMARK  status: ('A' for Active; 'I' for Inactive)
REMARK    1  A    between atoms: C_2  and  N_8
REMARK    2  A    between atoms: C_9  and  C_11
REMARK    3  A    between atoms: C_15  and  N_16
REMARK    4  A    between atoms: C_17  and  C_19
REMARK                            x       y       z     vdW  Elec       q    Type
REMARK                         _______ _______ _______ _____ _____    ______ ____
ROOT
ATOM      1  C   UNL     1      -1.647   0.624  -1.093  0.00  0.00    +0.168 A 
ATOM      2  C   UNL     1      -2.360   1.766  -0.607  0.00  0.00    +0.084 A 
ATOM      3  C   UNL     1      -3.679   1.379  -0.641  0.00  0.00    +0.129 A 
ATOM      4  N   UNL     1      -3.707   0.101  -1.103  0.00  0.00    -0.282 N 
ATOM      5  H   UNL     1      -4.520  -0.484  -1.255  0.00  0.00    +0.188 HD
ATOM      6  N   UNL     1      -2.493  -0.394  -1.384  0.00  0.00    -0.167 NA
ENDROOT
BRANCH   1   9
ATOM      7  N   UNL     1       0.093  -0.736  -1.930  0.00  0.00    -0.306 N 
ATOM      8  H   UNL     1      -0.716  -1.350  -2.007  0.00  0.00    +0.149 HD
ATOM      9  C   UNL     1      -0.198   0.462  -1.316  0.00  0.00    +0.266 C 
ATOM     10  O   UNL     1       0.630   1.307  -0.997  0.00  0.00    -0.268 OA
BRANCH   7  11
ATOM     11  C   UNL     1       1.417  -1.241  -2.278  0.00  0.00    +0.087 C 
ATOM     12  C   UNL     1       2.166  -0.344  -3.292  0.00  0.00    +0.103 C 
ATOM     13  N   UNL     1       1.498  -0.268  -4.603  0.00  0.00    -0.314 NA
ATOM     14  H   UNL     1       0.587   0.169  -4.461  0.00  0.00    +0.122 HD
ATOM     15  C   UNL     1       1.306  -1.595  -5.192  0.00  0.00    +0.081 C 
ATOM     16  C   UNL     1       0.585  -2.566  -4.257  0.00  0.00    +0.017 C 
ATOM     17  C   UNL     1       1.276  -2.644  -2.892  0.00  0.00    +0.025 C 
ENDBRANCH   7  11
ENDBRANCH   1   9
BRANCH   2  18
ATOM     18  N   UNL     1      -1.859   3.001  -0.205  0.00  0.00    -0.278 N 
ATOM     19  H   UNL     1      -0.847   3.109  -0.252  0.00  0.00    +0.155 HD
ATOM     20  C   UNL     1      -2.658   4.059   0.212  0.00  0.00    +0.254 C 
ATOM     21  O   UNL     1      -3.885   4.047   0.254  0.00  0.00    -0.270 OA
BRANCH  20  22
ATOM     22  C   UNL     1      -1.978   5.305   0.624  0.00  0.00    +0.107 A 
ATOM     23  C   UNL     1      -2.569   6.121   1.594  0.00  0.00    +0.138 A 
ATOM     24  F   UNL     1      -3.686   5.746   2.234  0.00  0.00    -0.205 F 
ATOM     25  C   UNL     1      -2.001   7.345   1.951  0.00  0.00    +0.039 A 
ATOM     26  C   UNL     1      -0.828   7.773   1.335  0.00  0.00    +0.006 A 
ATOM     27  C   UNL     1      -0.226   6.966   0.370  0.00  0.00    +0.039 A 
ATOM     28  C   UNL     1      -0.800   5.741   0.022  0.00  0.00    +0.138 A 
ATOM     29  F   UNL     1      -0.198   5.004  -0.921  0.00  0.00    -0.205 F 
ENDBRANCH  20  22
ENDBRANCH   2  18
TORSDOF 4
