REMARK  Name = 
REMARK  9 active torsions:
REMARK  status: ('A' for Active; 'I' for Inactive)
REMARK    1  A    between atoms: C_1  and  C_2
REMARK    2  A    between atoms: C_2  and  C_3
REMARK    3  A    between atoms: C_2  and  C_4
REMARK    4  A    between atoms: C_2  and  C_5
REMARK    5  A    between atoms: C_8  and  N_9
REMARK    6  A    between atoms: N_12  and  C_13
REMARK    7  A    between atoms: C_18  and  C_19
REMARK    8  A    between atoms: C_19  and  O_20
REMARK    9  A    between atoms: O_20  and  C_21
REMARK                            x       y       z     vdW  Elec       q    Type
REMARK                         _______ _______ _______ _____ _____    ______ ____
ROOT
ATOM      1  N   UNL     1       3.365  -3.642   3.553  0.00  0.00    -0.254 N 
ATOM      2  H   UNL     1       2.949  -4.490   3.199  0.00  0.00    +0.158 HD
ATOM      3  C   UNL     1       3.887  -3.587   4.839  0.00  0.00    +0.309 C 
ATOM      4  N   UNL     1       3.853  -4.813   5.486  0.00  0.00    -0.269 N 
ATOM      5  H   UNL     1       3.703  -5.628   4.910  0.00  0.00    +0.156 HD
ATOM      6  O   UNL     1       4.342  -2.552   5.321  0.00  0.00    -0.252 OA
ENDROOT
BRANCH   4   7
ATOM      7  C   UNL     1       4.307  -5.039   6.810  0.00  0.00    +0.035 A 
ATOM      8  C   UNL     1       4.633  -6.347   7.202  0.00  0.00    +0.031 A 
ATOM      9  C   UNL     1       5.206  -6.610   8.469  0.00  0.00    +0.010 A 
ATOM     10  C   UNL     1       5.371  -5.545   9.367  0.00  0.00    +0.047 A 
ATOM     11 CL   UNL     1       6.063  -5.758  10.936  0.00  0.00    -0.083 Cl
ATOM     12  C   UNL     1       4.996  -4.254   9.003  0.00  0.00    +0.022 A 
ATOM     13  C   UNL     1       4.469  -4.006   7.736  0.00  0.00    +0.025 A 
BRANCH   9  14
ATOM     14  C   UNL     1       5.674  -8.007   8.806  0.00  0.00    +0.266 C 
BRANCH  14  15
ATOM     15  O   UNL     1       4.675  -8.697   9.554  0.00  0.00    -0.486 OA
BRANCH  15  16
ATOM     16  C   UNL     1       4.984  -9.977   9.929  0.00  0.00    +0.139 A 
ATOM     17  C   UNL     1       3.976 -10.702  10.556  0.00  0.00    +0.156 A 
ATOM     18  N   UNL     1       4.095 -11.990  10.968  0.00  0.00    -0.260 NA
ATOM     19  C   UNL     1       5.287 -12.583  10.755  0.00  0.00    +0.111 A 
ATOM     20  C   UNL     1       6.361 -11.945  10.158  0.00  0.00    +0.023 A 
ATOM     21  C   UNL     1       6.205 -10.623   9.741  0.00  0.00    +0.049 A 
ENDBRANCH  15  16
ENDBRANCH  14  15
ENDBRANCH   9  14
ENDBRANCH   4   7
BRANCH   1  24
ATOM     22  C   UNL     1       3.052  -0.932   1.201  0.00  0.00    +0.070 A 
ATOM     23  C   UNL     1       2.842  -2.313   1.484  0.00  0.00    +0.069 A 
ATOM     24  C   UNL     1       3.330  -2.507   2.755  0.00  0.00    +0.122 A 
ATOM     25  N   UNL     1       3.814  -1.285   3.145  0.00  0.00    -0.264 N 
ATOM     26  H   UNL     1       4.246  -1.066   4.041  0.00  0.00    +0.190 HD
ATOM     27  N   UNL     1       3.655  -0.319   2.229  0.00  0.00    -0.177 NA
BRANCH  22  29
ATOM     28  C   UNL     1       3.934   0.535  -0.646  0.00  0.00    +0.017 C 
ATOM     29  C   UNL     1       2.679  -0.125  -0.035  0.00  0.00    +0.006 C 
ATOM     30  C   UNL     1       2.030  -1.006  -1.120  0.00  0.00    +0.017 C 
ATOM     31  C   UNL     1       1.672   0.982   0.344  0.00  0.00    +0.017 C 
ENDBRANCH  22  29
ENDBRANCH   1  24
TORSDOF 6
