REMARK  Name = 
REMARK  5 active torsions:
REMARK  status: ('A' for Active; 'I' for Inactive)
REMARK    1  A    between atoms: C_1  and  N_2
REMARK    2  A    between atoms: N_2  and  C_3
REMARK    3  A    between atoms: N_2  and  S_4
REMARK    4  A    between atoms: S_4  and  C_7
REMARK    5  A    between atoms: C_15  and  C_16
REMARK                            x       y       z     vdW  Elec       q    Type
REMARK                         _______ _______ _______ _____ _____    ______ ____
ROOT
ATOM      1  C   UNL     1       4.726   1.315   0.939  0.00  0.00    +0.106 A 
ATOM      2  C   UNL     1       5.309   0.410   1.827  0.00  0.00    +0.039 A 
ATOM      3  C   UNL     1       6.688   0.339   1.856  0.00  0.00    +0.010 A 
ATOM      4  C   UNL     1       7.473   1.158   1.044  0.00  0.00    +0.042 A 
ATOM      5  N   UNL     1       8.823   0.892   1.255  0.00  0.00    -0.281 N 
ATOM      6  H   UNL     1       9.595   1.339   0.785  0.00  0.00    +0.155 HD
ATOM      7  C   UNL     1       9.001  -0.125   2.188  0.00  0.00    +0.249 C 
ATOM      8  O   UNL     1      10.056  -0.635   2.516  0.00  0.00    -0.270 OA
ATOM      9  C   UNL     1       6.915   2.076   0.175  0.00  0.00    +0.026 A 
ATOM     10  C   UNL     1       7.609  -0.485   2.643  0.00  0.00    +0.048 C 
ATOM     11  C   UNL     1       7.164  -1.315   3.596  0.00  0.00    +0.039 C 
ATOM     12  C   UNL     1       5.516   2.154   0.126  0.00  0.00    +0.030 A 
ENDROOT
BRANCH  11  13
ATOM     13  C   UNL     1       7.922  -2.098   4.489  0.00  0.00    +0.040 A 
ATOM     14  N   UNL     1       9.156  -2.600   4.161  0.00  0.00    -0.358 N 
ATOM     15  H   UNL     1       9.669  -2.392   3.310  0.00  0.00    +0.166 HD
ATOM     16  C   UNL     1       9.612  -3.379   5.190  0.00  0.00    +0.020 A 
ATOM     17  C   UNL     1      10.894  -4.102   5.161  0.00  0.00    +0.053 C 
ATOM     18  C   UNL     1      11.186  -4.841   6.472  0.00  0.00    +0.006 C 
ATOM     19  C   UNL     1      10.185  -4.784   7.645  0.00  0.00    +0.005 C 
ATOM     20  C   UNL     1       8.867  -4.012   7.508  0.00  0.00    +0.037 C 
ATOM     21  C   UNL     1       8.695  -3.337   6.209  0.00  0.00    -0.026 A 
ATOM     22  C   UNL     1       7.615  -2.547   5.759  0.00  0.00    +0.031 A 
ENDBRANCH  11  13
BRANCH   1  23
ATOM     23  S   UNL     1       2.953   1.463   0.934  0.00  0.00    +0.060 S 
ATOM     24  O   UNL     1       2.461   0.980   2.206  0.00  0.00    -0.153 OA
ATOM     25  O   UNL     1       2.636   2.797   0.472  0.00  0.00    -0.153 OA
BRANCH  23  27
ATOM     26  C   UNL     1       2.704  -1.083   0.055  0.00  0.00    +0.131 C 
ATOM     27  N   UNL     1       2.472   0.345  -0.270  0.00  0.00    -0.183 NA
ATOM     28  C   UNL     1       1.077   0.568  -0.717  0.00  0.00    +0.131 C 
ENDBRANCH  23  27
ENDBRANCH   1  23
TORSDOF 3
