REMARK  Name = 
REMARK  8 active torsions:
REMARK  status: ('A' for Active; 'I' for Inactive)
REMARK    1  A    between atoms: O_1  and  C_2
REMARK    2  A    between atoms: C_2  and  C_4
REMARK    3  A    between atoms: C_4  and  C_5
REMARK    4  A    between atoms: C_5  and  C_6
REMARK    5  A    between atoms: C_6  and  C_7
REMARK    6  A    between atoms: N_9  and  C_10
REMARK    7  A    between atoms: C_13  and  C_14
REMARK    8  A    between atoms: C_15  and  C_16
REMARK                            x       y       z     vdW  Elec       q    Type
REMARK                         _______ _______ _______ _____ _____    ______ ____
ROOT
ATOM      1  C   UNL     1       9.291   1.713   2.245  0.00  0.00    +0.033 A 
ATOM      2  C   UNL     1       9.852   0.444   2.074  0.00  0.00    +0.024 A 
ATOM      3  C   UNL     1      11.216   0.301   1.818  0.00  0.00    +0.010 A 
ATOM      4  C   UNL     1      12.040   1.427   1.720  0.00  0.00    -0.025 A 
ATOM      5  C   UNL     1      11.483   2.691   1.960  0.00  0.00    +0.010 A 
ATOM      6  C   UNL     1      10.119   2.833   2.254  0.00  0.00    +0.024 A 
ENDROOT
BRANCH   1   8
ATOM      7  C   UNL     1       7.028   1.176   1.530  0.00  0.00    +0.217 C 
ATOM      8  N   UNL     1       7.895   1.889   2.344  0.00  0.00    -0.285 N 
ATOM      9  H   UNL     1       7.561   2.775   2.703  0.00  0.00    +0.155 HD
ATOM     10  O   UNL     1       7.378   0.407   0.638  0.00  0.00    -0.275 OA
BRANCH   7  11
ATOM     11  C   UNL     1       5.561   1.483   1.771  0.00  0.00    +0.096 C 
BRANCH  11  12
ATOM     12  C   UNL     1       4.704   0.406   1.100  0.00  0.00    +0.020 C 
BRANCH  12  13
ATOM     13  C   UNL     1       3.214   0.604   1.315  0.00  0.00    +0.121 C 
BRANCH  13  14
ATOM     14  C   UNL     1       2.452  -0.538   0.686  0.00  0.00    +0.305 C 
ATOM     15  O   UNL     1       2.150  -1.561   1.277  0.00  0.00    -0.251 OA
BRANCH  14  16
ATOM     16  O   UNL     1       2.163  -0.339  -0.619  0.00  0.00    -0.481 OA
ATOM     17  H   UNL     1       2.500   0.501  -0.982  0.00  0.00    +0.295 HD
ENDBRANCH  14  16
ENDBRANCH  13  14
ENDBRANCH  12  13
ENDBRANCH  11  12
ENDBRANCH   7  11
ENDBRANCH   1   8
BRANCH   4  18
ATOM     18  C   UNL     1      13.423   1.326   1.225  0.00  0.00    +0.008 C 
ATOM     19  C   UNL     1      14.257   0.308   1.500  0.00  0.00    +0.008 C 
BRANCH  19  20
ATOM     20  C   UNL     1      15.588   0.137   0.895  0.00  0.00    -0.025 A 
ATOM     21  C   UNL     1      16.081  -1.165   0.727  0.00  0.00    +0.008 A 
ATOM     22  C   UNL     1      17.333  -1.390   0.147  0.00  0.00    +0.001 A 
ATOM     23  C   UNL     1      18.113  -0.310  -0.263  0.00  0.00    +0.000 A 
ATOM     24  C   UNL     1      17.644   0.989  -0.086  0.00  0.00    +0.001 A 
ATOM     25  C   UNL     1      16.391   1.212   0.494  0.00  0.00    +0.008 A 
ENDBRANCH  19  20
ENDBRANCH   4  18
TORSDOF 8
