REMARK  Name = 
REMARK  9 active torsions:
REMARK  status: ('A' for Active; 'I' for Inactive)
REMARK    1  A    between atoms: C_2  and  C_3
REMARK    2  A    between atoms: C_2  and  C_4
REMARK    3  A    between atoms: C_2  and  N_15
REMARK    4  A    between atoms: C_4  and  C_5
REMARK    5  A    between atoms: C_5  and  C_6
REMARK    6  A    between atoms: C_9  and  C_12
REMARK    7  A    between atoms: N_15  and  C_16
REMARK    8  A    between atoms: C_16  and  C_17
REMARK    9  A    between atoms: C_17  and  C_19
REMARK                            x       y       z     vdW  Elec       q    Type
REMARK                         _______ _______ _______ _____ _____    ______ ____
ROOT
ATOM      1  C   UNL     1       2.045  -0.035  -0.013  0.00  0.00    +0.051 C 
ATOM      2  C   UNL     1       2.445   1.140   0.883  0.00  0.00    +0.024 C 
ENDROOT
BRANCH   1   3
ATOM      3  N   UNL     1       2.605   0.216  -1.352  0.00  0.00    -0.307 NA
ATOM      4  H   UNL     1       3.619   0.335  -1.324  0.00  0.00    +0.123 HD
BRANCH   3   5
ATOM      5  C   UNL     1       2.256  -0.821  -2.330  0.00  0.00    +0.161 C 
BRANCH   5   6
ATOM      6  C   UNL     1       2.888  -0.569  -3.698  0.00  0.00    +0.177 C 
ATOM      7  O   UNL     1       3.607   0.389  -3.962  0.00  0.00    -0.291 OA
BRANCH   6   8
ATOM      8  C   UNL     1       2.693  -1.648  -4.717  0.00  0.00    +0.019 A 
ATOM      9  C   UNL     1       3.669  -1.816  -5.710  0.00  0.00    +0.014 A 
ATOM     10  C   UNL     1       3.565  -2.871  -6.620  0.00  0.00    +0.039 A 
ATOM     11  C   UNL     1       2.485  -3.743  -6.544  0.00  0.00    +0.123 A 
ATOM     12  F   UNL     1       2.394  -4.762  -7.407  0.00  0.00    -0.205 F 
ATOM     13  C   UNL     1       1.499  -3.577  -5.579  0.00  0.00    +0.039 A 
ATOM     14  C   UNL     1       1.600  -2.528  -4.664  0.00  0.00    +0.014 A 
ENDBRANCH   6   8
ENDBRANCH   5   6
ENDBRANCH   3   5
ENDBRANCH   1   3
BRANCH   1  15
ATOM     15  C   UNL     1       2.510  -1.380   0.580  0.00  0.00    +0.023 C 
BRANCH  15  16
ATOM     16  C   UNL     1       1.883  -1.736   1.931  0.00  0.00    +0.036 C 
BRANCH  16  17
ATOM     17  C   UNL     1       2.353  -3.111   2.349  0.00  0.00    -0.047 A 
ATOM     18  C   UNL     1       1.696  -4.259   1.891  0.00  0.00    +0.004 A 
ATOM     19  C   UNL     1       2.208  -5.527   2.181  0.00  0.00    +0.013 A 
ATOM     20  C   UNL     1       3.385  -5.668   2.930  0.00  0.00    +0.037 A 
ATOM     21  C   UNL     1       4.029  -4.520   3.406  0.00  0.00    +0.013 A 
ATOM     22  C   UNL     1       3.518  -3.252   3.111  0.00  0.00    +0.004 A 
BRANCH  20  23
ATOM     23  C   UNL     1       3.898  -7.049   3.164  0.00  0.00    +0.242 C 
ATOM     24  O   UNL     1       3.297  -8.034   2.750  0.00  0.00    -0.270 OA
ATOM     25  N   UNL     1       5.074  -7.208   3.843  0.00  0.00    -0.325 N 
ATOM     26  H   UNL     1       5.405  -8.158   3.956  0.00  0.00    +0.145 HD
ATOM     27  H   UNL     1       5.664  -6.462   4.173  0.00  0.00    +0.145 HD
ENDBRANCH  20  23
ENDBRANCH  16  17
ENDBRANCH  15  16
ENDBRANCH   1  15
TORSDOF 8
