REMARK  Name = 
REMARK  4 active torsions:
REMARK  status: ('A' for Active; 'I' for Inactive)
REMARK    1  A    between atoms: C_1  and  C_2
REMARK    2  A    between atoms: C_2  and  N_3
REMARK    3  A    between atoms: N_5  and  C_6
REMARK    4  A    between atoms: N_18  and  C_19
REMARK                            x       y       z     vdW  Elec       q    Type
REMARK                         _______ _______ _______ _____ _____    ______ ____
ROOT
ATOM      1  N   UNL     1       2.947  -0.751   1.197  0.00  0.00    -0.297 N 
ATOM      2  C   UNL     1       3.488  -0.305   2.376  0.00  0.00    +0.167 A 
ATOM      3  N   UNL     1       3.831   0.947   2.717  0.00  0.00    -0.195 NA
ATOM      4  C   UNL     1       4.310   1.023   3.979  0.00  0.00    +0.222 A 
ATOM      5  N   UNL     1       4.380   0.007   4.870  0.00  0.00    -0.220 NA
ATOM      6  C   UNL     1       4.018  -1.236   4.473  0.00  0.00    +0.146 A 
ATOM      7  N   UNL     1       4.755   2.252   4.470  0.00  0.00    -0.279 N 
ATOM      8  H   UNL     1       5.036   2.079   5.430  0.00  0.00    +0.155 HD
ATOM      9  C   UNL     1       3.564  -1.427   3.178  0.00  0.00    +0.128 A 
ATOM     10  N   UNL     1       3.146  -2.536   2.508  0.00  0.00    -0.211 NA
ATOM     11  C   UNL     1       2.794  -2.119   1.308  0.00  0.00    +0.202 A 
ATOM     12  N   UNL     1       2.295  -2.875   0.306  0.00  0.00    -0.284 N 
ATOM     13  H   UNL     1       2.361  -2.609  -0.670  0.00  0.00    +0.155 HD
ENDROOT
BRANCH   7  14
ATOM     14  C   UNL     1       5.652   3.135   3.828  0.00  0.00    +0.105 A 
ATOM     15  C   UNL     1       6.521   2.767   2.791  0.00  0.00    +0.147 A 
ATOM     16  F   UNL     1       6.544   1.510   2.321  0.00  0.00    -0.203 F 
ATOM     17  C   UNL     1       7.439   3.672   2.250  0.00  0.00    +0.040 A 
ATOM     18  C   UNL     1       7.508   4.975   2.736  0.00  0.00    +0.006 A 
ATOM     19  C   UNL     1       6.661   5.365   3.770  0.00  0.00    +0.040 A 
ATOM     20  C   UNL     1       5.758   4.448   4.308  0.00  0.00    +0.147 A 
ATOM     21  F   UNL     1       4.978   4.846   5.326  0.00  0.00    -0.203 F 
ENDBRANCH   7  14
BRANCH  12  22
ATOM     22  C   UNL     1       1.603  -4.091   0.520  0.00  0.00    +0.052 A 
ATOM     23  C   UNL     1       1.664  -5.147  -0.405  0.00  0.00    +0.062 A 
ATOM     24 CL   UNL     1       2.535  -4.977  -1.890  0.00  0.00    -0.082 Cl
ATOM     25  C   UNL     1       1.037  -6.369  -0.139  0.00  0.00    +0.022 A 
ATOM     26  C   UNL     1       0.335  -6.553   1.054  0.00  0.00    +0.002 A 
ATOM     27  C   UNL     1       0.263  -5.520   1.979  0.00  0.00    +0.002 A 
ATOM     28  C   UNL     1       0.897  -4.308   1.716  0.00  0.00    +0.025 A 
ENDBRANCH  12  22
BRANCH   1  30
ATOM     29  C   UNL     1       1.006   0.057  -0.124  0.00  0.00    +0.027 C 
ATOM     30  C   UNL     1       2.513   0.092   0.102  0.00  0.00    +0.123 C 
ENDBRANCH   1  30
TORSDOF 3
