REMARK  Name = 
REMARK  9 active torsions:
REMARK  status: ('A' for Active; 'I' for Inactive)
REMARK    1  A    between atoms: C_1  and  C_2
REMARK    2  A    between atoms: C_2  and  C_3
REMARK    3  A    between atoms: C_2  and  N_4
REMARK    4  A    between atoms: N_4  and  C_5
REMARK    5  A    between atoms: C_5  and  C_6
REMARK    6  A    between atoms: C_6  and  O_7
REMARK    7  A    between atoms: C_6  and  C_8
REMARK    8  A    between atoms: C_8  and  O_9
REMARK    9  A    between atoms: O_9  and  C_10
REMARK                            x       y       z     vdW  Elec       q    Type
REMARK                         _______ _______ _______ _____ _____    ______ ____
ROOT
ATOM      1  C   UNL     1       6.528   0.675  -2.790  0.00  0.00    +0.261 C 
ENDROOT
BRANCH   1   2
ATOM      2  C   UNL     1       4.992   0.730  -2.767  0.00  0.00    +0.166 C 
BRANCH   2   3
ATOM      3  O   UNL     1       4.490   2.025  -3.128  0.00  0.00    -0.387 OA
ATOM      4  H   UNL     1       5.082   2.696  -2.754  0.00  0.00    +0.210 HD
ENDBRANCH   2   3
BRANCH   2   5
ATOM      5  C   UNL     1       4.526   0.385  -1.334  0.00  0.00    +0.115 C 
BRANCH   5   6
ATOM      6  N   UNL     1       3.069   0.273  -1.254  0.00  0.00    -0.311 NA
ATOM      7  H   UNL     1       2.664   1.121  -1.660  0.00  0.00    +0.122 HD
BRANCH   6   9
ATOM      8  C   UNL     1       1.043   0.075   0.063  0.00  0.00    +0.023 C 
ATOM      9  C   UNL     1       2.572   0.067   0.110  0.00  0.00    +0.048 C 
ATOM     10  C   UNL     1       3.057  -1.257   0.710  0.00  0.00    +0.023 C 
ENDBRANCH   6   9
ENDBRANCH   5   6
ENDBRANCH   2   5
ENDBRANCH   1   2
BRANCH   1  11
ATOM     11  O   UNL     1       7.058   0.913  -4.099  0.00  0.00    -0.489 OA
BRANCH  11  12
ATOM     12  C   UNL     1       8.432   0.919  -4.132  0.00  0.00    +0.128 A 
ATOM     13  C   UNL     1       9.072   1.777  -5.017  0.00  0.00    +0.020 A 
ATOM     14  C   UNL     1       8.532   2.723  -5.985  0.00  0.00    +0.008 C 
ATOM     15  C   UNL     1       9.566   3.339  -6.585  0.00  0.00    -0.021 C 
ATOM     16  C   UNL     1      10.903   2.869  -6.071  0.00  0.00    +0.063 C 
ATOM     17  C   UNL     1      10.476   1.848  -5.062  0.00  0.00    -0.033 A 
ATOM     18  C   UNL     1      11.273   1.059  -4.251  0.00  0.00    +0.005 A 
ATOM     19  C   UNL     1      10.642   0.164  -3.392  0.00  0.00    +0.004 A 
ATOM     20  C   UNL     1       9.239   0.088  -3.339  0.00  0.00    +0.046 A 
ENDBRANCH  11  12
ENDBRANCH   1  11
TORSDOF 7
