REMARK  Name = 
REMARK  9 active torsions:
REMARK  status: ('A' for Active; 'I' for Inactive)
REMARK    1  A    between atoms: C_1  and  C_2
REMARK    2  A    between atoms: C_2  and  O_3
REMARK    3  A    between atoms: O_3  and  C_4
REMARK    4  A    between atoms: C_4  and  N_5
REMARK    5  A    between atoms: C_11  and  C_12
REMARK    6  A    between atoms: C_12  and  C_13
REMARK    7  A    between atoms: C_12  and  C_14
REMARK    8  A    between atoms: C_15  and  C_16
REMARK    9  A    between atoms: C_16  and  C_17
REMARK                            x       y       z     vdW  Elec       q    Type
REMARK                         _______ _______ _______ _____ _____    ______ ____
ROOT
ATOM      1  N   UNL     1       4.663   2.063   1.946  0.00  0.00    -0.273 N 
ATOM      2  C   UNL     1       5.402   1.607   3.062  0.00  0.00    +0.039 A 
ATOM      3  C   UNL     1       5.758   2.473   4.052  0.00  0.00    +0.039 A 
ATOM      4  C   UNL     1       5.502   3.927   3.821  0.00  0.00    +0.258 A 
ATOM      5  O   UNL     1       5.935   4.809   4.560  0.00  0.00    -0.267 OA
ATOM      6  N   UNL     1       4.780   4.258   2.723  0.00  0.00    -0.275 N 
ATOM      7  H   UNL     1       4.602   5.236   2.571  0.00  0.00    +0.173 HD
ATOM      8  C   UNL     1       4.341   3.400   1.767  0.00  0.00    +0.331 A 
ATOM      9  O   UNL     1       3.726   3.856   0.804  0.00  0.00    -0.246 OA
ENDROOT
BRANCH   3  10
ATOM     10  C   UNL     1       6.398   2.183   5.417  0.00  0.00    +0.020 C 
ATOM     11  C   UNL     1       7.809   1.596   5.382  0.00  0.00    +0.012 C 
ATOM     12  C   UNL     1       5.466   1.396   6.348  0.00  0.00    +0.012 C 
ENDBRANCH   3  10
BRANCH   1  13
ATOM     13  C   UNL     1       4.178   1.164   0.901  0.00  0.00    +0.289 C 
BRANCH  13  14
ATOM     14  O   UNL     1       3.111   0.343   1.399  0.00  0.00    -0.359 OA
BRANCH  14  16
ATOM     15  C   UNL     1       1.483  -1.376   0.843  0.00  0.00    +0.034 C 
ATOM     16  C   UNL     1       2.568  -0.444   0.333  0.00  0.00    +0.159 C 
ENDBRANCH  14  16
ENDBRANCH  13  14
ENDBRANCH   1  13
BRANCH   2  17
ATOM     17  C   UNL     1       5.745   0.118   3.117  0.00  0.00    +0.089 C 
BRANCH  17  18
ATOM     18  C   UNL     1       7.084  -0.303   2.527  0.00  0.00    -0.042 A 
ATOM     19  C   UNL     1       7.513  -1.623   2.764  0.00  0.00    +0.004 A 
ATOM     20  C   UNL     1       8.785  -2.048   2.378  0.00  0.00    +0.000 A 
ATOM     21  C   UNL     1       9.644  -1.166   1.731  0.00  0.00    +0.000 A 
ATOM     22  C   UNL     1       9.219   0.130   1.445  0.00  0.00    +0.000 A 
ATOM     23  C   UNL     1       7.946   0.559   1.833  0.00  0.00    +0.004 A 
ENDBRANCH  17  18
ENDBRANCH   2  17
TORSDOF 6
