REMARK  Name = 
REMARK  9 active torsions:
REMARK  status: ('A' for Active; 'I' for Inactive)
REMARK    1  A    between atoms: C_2  and  C_3
REMARK    2  A    between atoms: C_2  and  C_7
REMARK    3  A    between atoms: C_2  and  C_12
REMARK    4  A    between atoms: C_3  and  C_4
REMARK    5  A    between atoms: C_4  and  C_5
REMARK    6  A    between atoms: C_5  and  C_6
REMARK    7  A    between atoms: C_7  and  N_8
REMARK    8  A    between atoms: N_8  and  O_9
REMARK    9  A    between atoms: C_18  and  C_20
REMARK                            x       y       z     vdW  Elec       q    Type
REMARK                         _______ _______ _______ _____ _____    ______ ____
ROOT
ATOM      1  C   UNL     1       2.795  -1.057   0.955  0.00  0.00    +0.221 C 
ATOM      2  N   UNL     1       4.156  -1.175   1.144  0.00  0.00    -0.290 N 
ATOM      3  C   UNL     1       4.721  -2.310   1.877  0.00  0.00    +0.162 C 
ATOM      4  C   UNL     1       6.141  -2.472   1.298  0.00  0.00    +0.033 C 
ATOM      5  C   UNL     1       6.321  -1.326   0.302  0.00  0.00    +0.021 C 
ATOM      6  C   UNL     1       5.226  -0.335   0.641  0.00  0.00    +0.108 C 
ATOM      7  O   UNL     1       2.020  -1.881   1.442  0.00  0.00    -0.275 OA
ENDROOT
BRANCH   3   8
ATOM      8  C   UNL     1       4.776  -2.015   3.350  0.00  0.00    +0.217 A 
ATOM      9  O   UNL     1       3.792  -2.570   4.129  0.00  0.00    -0.438 OA
ATOM     10  C   UNL     1       4.142  -2.217   5.399  0.00  0.00    +0.155 A 
ATOM     11  C   UNL     1       3.481  -2.537   6.579  0.00  0.00    +0.048 A 
ATOM     12  C   UNL     1       4.082  -2.077   7.758  0.00  0.00    +0.004 A 
ATOM     13  C   UNL     1       5.276  -1.344   7.730  0.00  0.00    +0.002 A 
ATOM     14  C   UNL     1       5.907  -1.033   6.516  0.00  0.00    +0.031 A 
ATOM     15  C   UNL     1       5.314  -1.482   5.329  0.00  0.00    +0.110 A 
ATOM     16  N   UNL     1       5.697  -1.339   4.021  0.00  0.00    -0.212 NA
ENDBRANCH   3   8
BRANCH   1  17
ATOM     17  C   UNL     1       2.284   0.092   0.078  0.00  0.00    +0.095 C 
BRANCH  17  18
ATOM     18  C   UNL     1       0.809  -0.095  -0.328  0.00  0.00    +0.152 C 
BRANCH  18  19
ATOM     19  N   UNL     1       0.496  -1.332  -1.034  0.00  0.00    -0.186 N 
ATOM     20  C   UNL     1      -0.832  -1.643  -1.286  0.00  0.00    +0.352 C 
ATOM     21  O   UNL     1      -1.810  -1.135  -0.749  0.00  0.00    -0.277 OA
BRANCH  19  22
ATOM     22  O   UNL     1       1.328  -1.567  -2.154  0.00  0.00    -0.293 OA
ATOM     23  H   UNL     1       1.821  -2.353  -1.851  0.00  0.00    +0.242 HD
ENDBRANCH  19  22
ENDBRANCH  18  19
ENDBRANCH  17  18
BRANCH  17  24
ATOM     24  C   UNL     1       2.484   1.467   0.753  0.00  0.00    +0.014 C 
BRANCH  24  25
ATOM     25  C   UNL     1       1.654   1.676   2.024  0.00  0.00    +0.001 C 
BRANCH  25  26
ATOM     26  C   UNL     1       1.950   3.032   2.662  0.00  0.00    -0.003 C 
ATOM     27  C   UNL     1       1.107   3.245   3.909  0.00  0.00    +0.004 C 
ENDBRANCH  25  26
ENDBRANCH  24  25
ENDBRANCH  17  24
ENDBRANCH   1  17
TORSDOF 8
