REMARK  Name = 
REMARK  11 active torsions:
REMARK  status: ('A' for Active; 'I' for Inactive)
REMARK    1  A    between atoms: O_1  and  C_2
REMARK    2  A    between atoms: C_2  and  C_4
REMARK    3  A    between atoms: C_2  and  C_30
REMARK    4  A    between atoms: C_4  and  C_5
REMARK    5  A    between atoms: C_5  and  O_7
REMARK    6  A    between atoms: C_5  and  C_8
REMARK    7  A    between atoms: C_9  and  C_10
REMARK    8  A    between atoms: C_11  and  C_27
REMARK    9  A    between atoms: C_19  and  C_20
REMARK   10  A    between atoms: C_30  and  C_31
REMARK   11  A    between atoms: C_31  and  O_32
REMARK                            x       y       z     vdW  Elec       q    Type
REMARK                         _______ _______ _______ _____ _____    ______ ____
ROOT
ATOM      1  C   UNL     1       3.224  -6.138   0.219  0.00  0.00    +0.005 A 
ATOM      2  C   UNL     1       4.194  -6.304  -0.816  0.00  0.00    +0.000 A 
ATOM      3  C   UNL     1       4.497  -7.655  -1.221  0.00  0.00    +0.009 A 
ATOM      4  C   UNL     1       3.747  -8.701  -0.643  0.00  0.00    +0.072 A 
ATOM      5  C   UNL     1       3.920 -10.010  -1.081  0.00  0.00    +0.028 A 
ATOM      6  C   UNL     1       4.832 -10.344  -2.076  0.00  0.00    +0.002 A 
ATOM      7  C   UNL     1       5.639  -9.358  -2.609  0.00  0.00    +0.001 A 
ATOM      8  N   UNL     1       2.851  -8.511   0.328  0.00  0.00    -0.251 NA
ATOM      9  C   UNL     1       5.497  -8.044  -2.162  0.00  0.00    +0.010 A 
ATOM     10  C   UNL     1       2.608  -7.265   0.796  0.00  0.00    +0.053 A 
ENDROOT
BRANCH   2  11
ATOM     11  C   UNL     1       4.883  -5.126  -1.472  0.00  0.00    -0.016 A 
ATOM     12  C   UNL     1       5.385  -4.031  -0.737  0.00  0.00    +0.011 A 
ATOM     13  C   UNL     1       6.090  -2.984  -1.347  0.00  0.00    +0.039 A 
ATOM     14  C   UNL     1       6.369  -3.045  -2.702  0.00  0.00    +0.123 A 
ATOM     15  F   UNL     1       7.118  -2.092  -3.270  0.00  0.00    -0.205 F 
ATOM     16  C   UNL     1       5.882  -4.089  -3.469  0.00  0.00    +0.039 A 
ATOM     17  C   UNL     1       5.100  -5.082  -2.866  0.00  0.00    +0.011 A 
ENDBRANCH   2  11
BRANCH  10  18
ATOM     18  C   UNL     1       1.634  -7.161   1.967  0.00  0.00    +0.038 C 
ATOM     19  C   UNL     1       2.162  -6.950   3.370  0.00  0.00    +0.010 C 
ATOM     20  C   UNL     1       1.550  -8.265   3.000  0.00  0.00    +0.010 C 
ENDBRANCH  10  18
BRANCH   1  22
ATOM     21  C   UNL     1       1.857  -4.065   0.208  0.00  0.00    +0.005 C 
ATOM     22  C   UNL     1       2.837  -4.817   0.737  0.00  0.00    +0.008 C 
BRANCH  21  23
ATOM     23  C   UNL     1       1.529  -2.672   0.682  0.00  0.00    +0.140 C 
BRANCH  23  24
ATOM     24  O   UNL     1       2.760  -2.004   0.953  0.00  0.00    -0.388 OA
ATOM     25  H   UNL     1       3.083  -2.360   1.796  0.00  0.00    +0.210 HD
ENDBRANCH  23  24
BRANCH  23  26
ATOM     26  C   UNL     1       0.751  -1.873  -0.375  0.00  0.00    +0.067 C 
BRANCH  26  27
ATOM     27  C   UNL     1       0.323  -0.464   0.074  0.00  0.00    +0.128 C 
BRANCH  27  28
ATOM     28  O   UNL     1      -0.461  -0.588   1.262  0.00  0.00    -0.391 OA
ATOM     29  H   UNL     1      -0.797   0.311   1.469  0.00  0.00    +0.210 HD
ENDBRANCH  27  28
BRANCH  27  30
ATOM     30  C   UNL     1       1.499   0.490   0.304  0.00  0.00    +0.151 C 
BRANCH  30  31
ATOM     31  C   UNL     1       1.014   1.900   0.516  0.00  0.00    +0.307 C 
ATOM     32  O   UNL     1      -0.095   2.189   0.941  0.00  0.00    -0.251 OA
BRANCH  31  33
ATOM     33  O   UNL     1       1.956   2.832   0.250  0.00  0.00    -0.481 OA
ATOM     34  H   UNL     1       2.811   2.461  -0.040  0.00  0.00    +0.295 HD
ENDBRANCH  31  33
ENDBRANCH  30  31
ENDBRANCH  27  30
ENDBRANCH  26  27
ENDBRANCH  23  26
ENDBRANCH  21  23
ENDBRANCH   1  22
TORSDOF 11
