REMARK  Name = 
REMARK  13 active torsions:
REMARK  status: ('A' for Active; 'I' for Inactive)
REMARK    1  A    between atoms: C_5  and  C_6
REMARK    2  A    between atoms: C_6  and  C_7
REMARK    3  A    between atoms: C_6  and  C_8
REMARK    4  A    between atoms: C_8  and  C_9
REMARK    5  A    between atoms: C_9  and  C_10
REMARK    6  A    between atoms: N_12  and  C_13
REMARK    7  A    between atoms: C_13  and  C_14
REMARK    8  A    between atoms: C_14  and  S_15
REMARK    9  A    between atoms: S_15  and  O_16
REMARK   10  A    between atoms: C_19  and  C_20
REMARK   11  A    between atoms: C_27  and  O_29
REMARK   12  A    between atoms: C_34  and  O_36
REMARK   13  A    between atoms: C_39  and  C_40
REMARK                            x       y       z     vdW  Elec       q    Type
REMARK                         _______ _______ _______ _____ _____    ______ ____
ROOT
ATOM      1  C   UNL     1      -0.000  -0.000   0.000  0.00  0.00    +0.001 C 
ATOM      2  C   UNL     1      -0.000  -0.000  -0.000  0.00  0.00    +0.025 C 
ATOM      3  C   UNL     1      -0.000  -0.000   0.000  0.00  0.00    +0.118 C 
ATOM      4  C   UNL     1      -0.000  -0.000  -0.000  0.00  0.00    +0.035 C 
ATOM      5  C   UNL     1      -0.000  -0.000  -0.000  0.00  0.00    +0.000 C 
ATOM      6  C   UNL     1      -0.000  -0.000  -0.000  0.00  0.00    -0.026 C 
ATOM      7  C   UNL     1      -0.000  -0.000  -0.000  0.00  0.00    +0.012 C 
ATOM      8  C   UNL     1      -0.000  -0.000   0.000  0.00  0.00    +0.010 C 
ATOM      9  C   UNL     1      -0.000  -0.000  -0.000  0.00  0.00    +0.032 C 
ATOM     10  C   UNL     1      -0.000  -0.000  -0.000  0.00  0.00    +0.115 C 
ATOM     11  C   UNL     1      -0.000  -0.000  -0.000  0.00  0.00    +0.035 C 
ATOM     12  C   UNL     1      -0.000  -0.000  -0.000  0.00  0.00    +0.001 C 
ATOM     13  C   UNL     1      -0.000  -0.000  -0.000  0.00  0.00    +0.005 C 
ATOM     14  C   UNL     1      -0.000  -0.000   0.000  0.00  0.00    +0.007 C 
ATOM     15  C   UNL     1      -0.000  -0.000   0.000  0.00  0.00    -0.026 C 
ATOM     16  C   UNL     1      -0.000  -0.000   0.000  0.00  0.00    +0.012 C 
ATOM     17  C   UNL     1      -0.000  -0.000  -0.000  0.00  0.00    -0.002 C 
ATOM     18  C   UNL     1      -0.000  -0.000  -0.000  0.00  0.00    +0.004 C 
ATOM     19  C   UNL     1      -0.000  -0.000  -0.000  0.00  0.00    +0.005 C 
ENDROOT
BRANCH   3  20
ATOM     20  O   UNL     1      -0.000  -0.000   0.000  0.00  0.00    -0.391 OA
ATOM     21  H   UNL     1       0.000   0.000   0.000  0.00  0.00    +0.210 HD
ENDBRANCH   3  20
BRANCH  10  22
ATOM     22  O   UNL     1      -0.000  -0.000  -0.000  0.00  0.00    -0.392 OA
ATOM     23  H   UNL     1       0.000   0.000   0.000  0.00  0.00    +0.210 HD
ENDBRANCH  10  22
BRANCH  17  24
ATOM     24  C   UNL     1      -0.000  -0.000  -0.000  0.00  0.00    -0.010 C 
ATOM     25  C   UNL     1      -0.000  -0.000  -0.000  0.00  0.00    +0.008 C 
BRANCH  24  26
ATOM     26  C   UNL     1      -0.000  -0.000  -0.000  0.00  0.00    +0.013 C 
BRANCH  26  27
ATOM     27  C   UNL     1      -0.000  -0.000  -0.000  0.00  0.00    +0.096 C 
BRANCH  27  28
ATOM     28  C   UNL     1      -0.000  -0.000  -0.000  0.00  0.00    +0.213 C 
ATOM     29  N   UNL     1      -0.000  -0.000  -0.000  0.00  0.00    -0.314 N 
ATOM     30  H   UNL     1      -0.000  -0.000  -0.000  0.00  0.00    +0.149 HD
ATOM     31  O   UNL     1      -0.000  -0.000  -0.000  0.00  0.00    -0.276 OA
BRANCH  29  32
ATOM     32  C   UNL     1      -0.000  -0.000  -0.000  0.00  0.00    +0.129 C 
BRANCH  32  33
ATOM     33  C   UNL     1      -0.000  -0.000  -0.000  0.00  0.00    +0.216 C 
BRANCH  33  34
ATOM     34  S   UNL     1      -0.000  -0.000  -0.000  0.00  0.00    +0.081 S 
ATOM     35  O   UNL     1      -0.000  -0.000  -0.000  0.00  0.00    -0.147 OA
ATOM     36  O   UNL     1      -0.000  -0.000  -0.000  0.00  0.00    -0.147 OA
BRANCH  34  37
ATOM     37  O   UNL     1      -0.000  -0.000  -0.000  0.00  0.00    -0.254 OA
ATOM     38  H   UNL     1      -0.000  -0.000  -0.000  0.00  0.00    +0.244 HD
ENDBRANCH  34  37
ENDBRANCH  33  34
ENDBRANCH  32  33
ENDBRANCH  29  32
ENDBRANCH  27  28
ENDBRANCH  26  27
ENDBRANCH  24  26
ENDBRANCH  17  24
TORSDOF 10
