REMARK  Name = 
REMARK  7 active torsions:
REMARK  status: ('A' for Active; 'I' for Inactive)
REMARK    1  A    between atoms: CA_2  and  N_3
REMARK    2  A    between atoms: CA_2  and  C_4
REMARK    3  A    between atoms: CA_2  and  C_19
REMARK    4  A    between atoms: C_4  and  C_5
REMARK    5  A    between atoms: C_8  and  C_11
REMARK    6  A    between atoms: C_11  and  C_13
REMARK    7  A    between atoms: C_19  and  O_20
REMARK                            x       y       z     vdW  Elec       q    Type
REMARK                         _______ _______ _______ _____ _____    ______ ____
ROOT
ATOM      1  C   UNL     1       2.079  -2.317  -0.965  0.00  0.00    -0.045 A 
ATOM      2  C   UNL     1       0.701  -2.556  -0.851  0.00  0.00    +0.004 A 
ATOM      3  C   UNL     1       0.199  -3.861  -0.850  0.00  0.00    +0.012 A 
ATOM      4  C   UNL     1       1.067  -4.947  -0.994  0.00  0.00    +0.022 A 
ATOM      5  C   UNL     1       2.446  -4.720  -0.996  0.00  0.00    +0.012 A 
ATOM      6  C   UNL     1       2.947  -3.416  -0.961  0.00  0.00    +0.004 A 
ENDROOT
BRANCH   4   7
ATOM      7  C   UNL     1       0.584  -6.348  -1.135  0.00  0.00    +0.193 C 
ATOM      8  O   UNL     1       1.299  -7.265  -0.734  0.00  0.00    -0.287 OA
BRANCH   7   9
ATOM      9  C   UNL     1      -0.733  -6.677  -1.749  0.00  0.00    +0.022 A 
ATOM     10  C   UNL     1      -1.340  -5.871  -2.721  0.00  0.00    +0.012 A 
ATOM     11  C   UNL     1      -2.604  -6.200  -3.217  0.00  0.00    +0.001 A 
ATOM     12  C   UNL     1      -3.249  -7.355  -2.775  0.00  0.00    +0.000 A 
ATOM     13  C   UNL     1      -2.625  -8.193  -1.853  0.00  0.00    +0.001 A 
ATOM     14  C   UNL     1      -1.369  -7.857  -1.343  0.00  0.00    +0.012 A 
ENDBRANCH   7   9
ENDBRANCH   4   7
BRANCH   1  15
ATOM     15  C   UNL     1       2.572  -0.889  -1.076  0.00  0.00    +0.065 C 
BRANCH  15  16
ATOM     16  CA  UNL     1       3.866  -0.649  -1.883  0.00  0.00    +0.165 C 
BRANCH  16  17
ATOM     17  N   UNL     1       4.263   0.776  -1.758  0.00  0.00    -0.318 NA
ATOM     18  H1  UNL     1       5.180   0.977  -2.150  0.00  0.00    +0.119 HD
ATOM     19  H2  UNL     1       3.537   1.438  -2.018  0.00  0.00    +0.119 HD
ENDBRANCH  16  17
BRANCH  16  20
ATOM     20  C   UNL     1       3.703  -1.071  -3.364  0.00  0.00    +0.322 C 
ATOM     21  OXT UNL     1       3.476  -2.205  -3.752  0.00  0.00    -0.249 OA
BRANCH  20  22
ATOM     22  O   UNL     1       3.860  -0.051  -4.244  0.00  0.00    -0.480 OA
ATOM     23  H   UNL     1       4.068   0.774  -3.773  0.00  0.00    +0.295 HD
ENDBRANCH  20  22
ENDBRANCH  16  20
ENDBRANCH  15  16
ENDBRANCH   1  15
TORSDOF 7
