REMARK  Name = 
REMARK  11 active torsions:
REMARK  status: ('A' for Active; 'I' for Inactive)
REMARK    1  A    between atoms: C_1  and  C_2
REMARK    2  A    between atoms: C_2  and  C_3
REMARK    3  A    between atoms: C_2  and  N_11
REMARK    4  A    between atoms: C_3  and  O_4
REMARK    5  A    between atoms: O_4  and  C_5
REMARK    6  A    between atoms: N_11  and  C_12
REMARK    7  A    between atoms: C_12  and  C_13
REMARK    8  A    between atoms: C_12  and  C_14
REMARK    9  A    between atoms: C_14  and  O_15
REMARK   10  A    between atoms: C_14  and  C_16
REMARK   11  A    between atoms: C_19  and  O_20
REMARK                            x       y       z     vdW  Elec       q    Type
REMARK                         _______ _______ _______ _____ _____    ______ ____
ROOT
ATOM      1  C   UNL     1       4.501  -1.314  -0.479  0.00  0.00    +0.084 C 
ATOM      2  C   UNL     1       4.968  -2.748  -0.778  0.00  0.00    +0.027 C 
ENDROOT
BRANCH   1   3
ATOM      3  N   UNL     1       3.025  -1.320  -0.368  0.00  0.00    -0.305 NA
ATOM      4  H   UNL     1       2.625  -1.526  -1.286  0.00  0.00    +0.123 HD
BRANCH   3   6
ATOM      5  C   UNL     1       0.909  -0.217   0.132  0.00  0.00    +0.027 C 
ATOM      6  C   UNL     1       2.436  -0.067   0.153  0.00  0.00    +0.088 C 
BRANCH   6   7
ATOM      7  C   UNL     1       2.927   0.235   1.582  0.00  0.00    +0.247 C 
BRANCH   7   8
ATOM      8  O   UNL     1       2.364   1.445   2.112  0.00  0.00    -0.490 OA
BRANCH   8   9
ATOM      9  C   UNL     1       2.875   1.766   3.351  0.00  0.00    +0.121 A 
ATOM     10  C   UNL     1       3.256   0.827   4.310  0.00  0.00    +0.045 A 
ATOM     11  C   UNL     1       3.785   1.237   5.535  0.00  0.00    +0.004 A 
ATOM     12  C   UNL     1       3.920   2.593   5.809  0.00  0.00    +0.000 A 
ATOM     13  C   UNL     1       3.519   3.539   4.867  0.00  0.00    +0.004 A 
ATOM     14  C   UNL     1       2.988   3.127   3.638  0.00  0.00    +0.045 A 
ENDBRANCH   8   9
ENDBRANCH   7   8
ENDBRANCH   6   7
ENDBRANCH   3   6
ENDBRANCH   1   3
BRANCH   1  15
ATOM     15  C   UNL     1       5.102  -0.247  -1.455  0.00  0.00    +0.161 C 
BRANCH  15  16
ATOM     16  C   UNL     1       4.589  -0.309  -2.883  0.00  0.00    -0.017 A 
ATOM     17  C   UNL     1       4.871  -1.400  -3.719  0.00  0.00    +0.010 A 
ATOM     18  C   UNL     1       4.379  -1.453  -5.022  0.00  0.00    +0.046 A 
ATOM     19  C   UNL     1       3.610  -0.401  -5.508  0.00  0.00    +0.117 A 
ATOM     20  C   UNL     1       3.323   0.697  -4.707  0.00  0.00    +0.046 A 
ATOM     21  C   UNL     1       3.813   0.744  -3.399  0.00  0.00    +0.010 A 
BRANCH  19  22
ATOM     22  O   UNL     1       3.153  -0.496  -6.787  0.00  0.00    -0.507 OA
ATOM     23  H   UNL     1       2.651   0.306  -7.004  0.00  0.00    +0.292 HD
ENDBRANCH  19  22
ENDBRANCH  15  16
BRANCH  15  24
ATOM     24  O   UNL     1       6.531  -0.320  -1.417  0.00  0.00    -0.386 OA
ATOM     25  H   UNL     1       6.851  -0.479  -2.319  0.00  0.00    +0.210 HD
ENDBRANCH  15  24
ENDBRANCH   1  15
TORSDOF 9
