REMARK  Name = 
REMARK  11 active torsions:
REMARK  status: ('A' for Active; 'I' for Inactive)
REMARK    1  A    between atoms: C_3  and  C_4
REMARK    2  A    between atoms: C_4  and  O_5
REMARK    3  A    between atoms: O_5  and  C_6
REMARK    4  A    between atoms: C_6  and  C_7
REMARK    5  A    between atoms: C_6  and  C_25
REMARK    6  A    between atoms: C_7  and  N_8
REMARK    7  A    between atoms: N_11  and  C_12
REMARK    8  A    between atoms: C_12  and  C_13
REMARK    9  A    between atoms: C_13  and  C_14
REMARK   10  A    between atoms: C_13  and  C_15
REMARK   11  A    between atoms: C_15  and  C_17
REMARK                            x       y       z     vdW  Elec       q    Type
REMARK                         _______ _______ _______ _____ _____    ______ ____
ROOT
ATOM      1 CL   UNL     1      -0.840   2.316   0.051  0.00  0.00    -0.145 Cl
ATOM      2  H   UNL     1       0.521   2.361  -0.138  0.00  0.00    +0.145 HD
ENDROOT
TORSDOF 0
REMARK  Name = 
REMARK  11 active torsions:
REMARK  status: ('A' for Active; 'I' for Inactive)
REMARK    1  A    between atoms: C_3  and  C_4
REMARK    2  A    between atoms: C_4  and  O_5
REMARK    3  A    between atoms: O_5  and  C_6
REMARK    4  A    between atoms: C_6  and  C_7
REMARK    5  A    between atoms: C_6  and  C_25
REMARK    6  A    between atoms: C_7  and  N_8
REMARK    7  A    between atoms: N_11  and  C_12
REMARK    8  A    between atoms: C_12  and  C_13
REMARK    9  A    between atoms: C_13  and  C_14
REMARK   10  A    between atoms: C_13  and  C_15
REMARK   11  A    between atoms: C_15  and  C_17
REMARK                            x       y       z     vdW  Elec       q    Type
REMARK                         _______ _______ _______ _____ _____    ______ ____
ROOT
ATOM      1 CL   UNL     1       1.702  -2.592  -2.552  0.00  0.00    -0.145 Cl
ATOM      2  H   UNL     1       1.956  -2.887  -1.232  0.00  0.00    +0.145 HD
ENDROOT
TORSDOF 0
REMARK  Name = 
REMARK  11 active torsions:
REMARK  status: ('A' for Active; 'I' for Inactive)
REMARK    1  A    between atoms: C_3  and  C_4
REMARK    2  A    between atoms: C_4  and  O_5
REMARK    3  A    between atoms: O_5  and  C_6
REMARK    4  A    between atoms: C_6  and  C_7
REMARK    5  A    between atoms: C_6  and  C_25
REMARK    6  A    between atoms: C_7  and  N_8
REMARK    7  A    between atoms: N_11  and  C_12
REMARK    8  A    between atoms: C_12  and  C_13
REMARK    9  A    between atoms: C_13  and  C_14
REMARK   10  A    between atoms: C_13  and  C_15
REMARK   11  A    between atoms: C_15  and  C_17
REMARK                            x       y       z     vdW  Elec       q    Type
REMARK                         _______ _______ _______ _____ _____    ______ ____
ROOT
ATOM      1  N   UNL     1       4.567   1.357   1.071  0.00  0.00    -0.297 NA
ATOM      2  C   UNL     1       5.613   2.385   0.824  0.00  0.00    +0.100 C 
ATOM      3  C   UNL     1       5.961   3.209   2.098  0.00  0.00    +0.100 C 
ATOM      4  N   UNL     1       4.762   3.808   2.737  0.00  0.00    -0.299 NA
ATOM      5  C   UNL     1       3.815   2.716   3.032  0.00  0.00    +0.100 C 
ATOM      6  C   UNL     1       3.408   2.004   1.731  0.00  0.00    +0.100 C 
ENDROOT
BRANCH   1   7
ATOM      7  C   UNL     1       5.120   0.158   1.763  0.00  0.00    +0.120 C 
BRANCH   7   8
ATOM      8  C   UNL     1       4.187  -1.100   1.738  0.00  0.00    +0.162 C 
BRANCH   8   9
ATOM      9  C   UNL     1       2.971  -0.878   2.626  0.00  0.00    -0.018 A 
ATOM     10  C   UNL     1       3.160  -0.555   3.980  0.00  0.00    +0.006 A 
ATOM     11  C   UNL     1       2.078  -0.200   4.787  0.00  0.00    +0.000 A 
ATOM     12  C   UNL     1       0.788  -0.175   4.261  0.00  0.00    +0.000 A 
ATOM     13  C   UNL     1       0.571  -0.532   2.928  0.00  0.00    +0.000 A 
ATOM     14  C   UNL     1       1.651  -0.896   2.113  0.00  0.00    +0.006 A 
ENDBRANCH   8   9
BRANCH   8  15
ATOM     15  O   UNL     1       3.776  -1.437   0.415  0.00  0.00    -0.371 OA
BRANCH  15  17
ATOM     16  C   UNL     1       5.590  -3.073  -0.006  0.00  0.00    +0.034 C 
ATOM     17  C   UNL     1       4.838  -1.816  -0.452  0.00  0.00    +0.157 C 
ENDBRANCH  15  17
ENDBRANCH   8  15
ENDBRANCH   7   8
ENDBRANCH   1   7
BRANCH   4  18
ATOM     18  C   UNL     1       4.178   4.900   1.907  0.00  0.00    +0.095 C 
BRANCH  18  19
ATOM     19  C   UNL     1       2.874   5.529   2.487  0.00  0.00    +0.071 C 
ATOM     20  C   UNL     1       3.167   6.279   3.789  0.00  0.00    +0.017 C 
BRANCH  19  21
ATOM     21  C   UNL     1       2.180   6.398   1.449  0.00  0.00    +0.167 C 
ATOM     22  O   UNL     1       2.821   6.794   0.488  0.00  0.00    -0.292 OA
BRANCH  21  23
ATOM     23  C   UNL     1       0.689   6.535   1.414  0.00  0.00    +0.018 A 
ATOM     24  C   UNL     1       0.060   6.928   0.214  0.00  0.00    +0.011 A 
ATOM     25  C   UNL     1      -1.331   7.039   0.139  0.00  0.00    +0.001 A 
ATOM     26  C   UNL     1      -2.116   6.775   1.260  0.00  0.00    +0.000 A 
ATOM     27  C   UNL     1      -1.513   6.386   2.457  0.00  0.00    +0.001 A 
ATOM     28  C   UNL     1      -0.123   6.253   2.534  0.00  0.00    +0.011 A 
ENDBRANCH  21  23
ENDBRANCH  19  21
ENDBRANCH  18  19
ENDBRANCH   4  18
TORSDOF 9
