REMARK  Name = 
REMARK  1 active torsions:
REMARK  status: ('A' for Active; 'I' for Inactive)
REMARK    1  A    between atoms: C_4  and  C_7
REMARK                            x       y       z     vdW  Elec       q    Type
REMARK                         _______ _______ _______ _____ _____    ______ ____
ROOT
ATOM      1  C   UNL     1       5.722   1.607  -0.009  0.00  0.00    +0.095 A 
ATOM      2  C   UNL     1       5.482   2.962  -0.081  0.00  0.00    +0.050 A 
ATOM      3  C   UNL     1       6.588   3.764   0.039  0.00  0.00    +0.116 A 
ATOM      4  N   UNL     1       7.833   3.287   0.214  0.00  0.00    -0.223 NA
ATOM      5  C   UNL     1       7.961   1.960   0.281  0.00  0.00    +0.213 A 
ATOM      6  N   UNL     1       9.232   1.453   0.444  0.00  0.00    -0.327 N 
ATOM      7  H   UNL     1       9.910   2.134   0.132  0.00  0.00    +0.145 HD
ATOM      8  H   UNL     1       9.287   0.527   0.045  0.00  0.00    +0.145 HD
ATOM      9  N   UNL     1       6.960   1.089   0.159  0.00  0.00    -0.213 NA
ENDROOT
BRANCH   1  16
ATOM     10  N   UNL     1       1.175   0.122  -0.468  0.00  0.00    -0.338 N 
ATOM     11  H   UNL     1       0.605  -0.651  -0.148  0.00  0.00    +0.144 HD
ATOM     12  H   UNL     1       0.775   1.037  -0.294  0.00  0.00    +0.144 HD
ATOM     13  C   UNL     1       2.505   0.026  -0.316  0.00  0.00    +0.156 A 
ATOM     14  S   UNL     1       3.269  -1.499  -0.125  0.00  0.00    -0.060 S 
ATOM     15  C   UNL     1       4.784  -0.713   0.003  0.00  0.00    +0.078 A 
ATOM     16  C   UNL     1       4.616   0.655  -0.099  0.00  0.00    +0.099 A 
ATOM     17  N   UNL     1       3.299   1.067  -0.279  0.00  0.00    -0.224 NA
ENDBRANCH   1  16
TORSDOF 1
