REMARK  Name = 
REMARK  5 active torsions:
REMARK  status: ('A' for Active; 'I' for Inactive)
REMARK    1  A    between atoms: O_1  and  C_2
REMARK    2  A    between atoms: C_2  and  C_3
REMARK    3  A    between atoms: C_6  and  O_7
REMARK    4  A    between atoms: C_9  and  O_11
REMARK    5  A    between atoms: C_12  and  O_14
REMARK                            x       y       z     vdW  Elec       q    Type
REMARK                         _______ _______ _______ _____ _____    ______ ____
ROOT
ATOM      1  C   UNL     1       3.006   1.077   0.818  0.00  0.00    +0.177 C 
ATOM      2  C   UNL     1       2.658   2.454   0.217  0.00  0.00    +0.174 C 
ATOM      3  C   UNL     1       3.361   2.728  -1.122  0.00  0.00    +0.150 C 
ATOM      4  C   UNL     1       4.830   2.329  -1.079  0.00  0.00    +0.095 C 
ATOM      5  C   UNL     1       5.021   0.939  -0.492  0.00  0.00    +0.250 C 
ATOM      6  O   UNL     1       4.417   0.804   0.781  0.00  0.00    -0.343 OA
ENDROOT
BRANCH   2   7
ATOM      7  O   UNL     1       3.074   3.456   1.164  0.00  0.00    -0.387 OA
ATOM      8  H   UNL     1       2.798   4.323   0.816  0.00  0.00    +0.210 HD
ENDBRANCH   2   7
BRANCH   3   9
ATOM      9  O   UNL     1       2.698   2.107  -2.219  0.00  0.00    -0.389 OA
ATOM     10  H   UNL     1       2.588   1.152  -2.013  0.00  0.00    +0.210 HD
ENDBRANCH   3   9
BRANCH   5  11
ATOM     11  O   UNL     1       6.408   0.695  -0.320  0.00  0.00    -0.367 OA
ATOM     12  H   UNL     1       6.675   1.303   0.391  0.00  0.00    +0.212 HD
ENDBRANCH   5  11
BRANCH   1  13
ATOM     13  C   UNL     1       2.186  -0.097   0.251  0.00  0.00    +0.190 C 
BRANCH  13  14
ATOM     14  O   UNL     1       2.316  -0.235  -1.162  0.00  0.00    -0.392 OA
ATOM     15  H   UNL     1       2.011  -1.137  -1.380  0.00  0.00    +0.210 HD
ENDBRANCH  13  14
ENDBRANCH   1  13
TORSDOF 5
