REMARK  Name = 
REMARK  11 active torsions:
REMARK  status: ('A' for Active; 'I' for Inactive)
REMARK    1  A    between atoms: C_1  and  C_2
REMARK    2  A    between atoms: C_2  and  O_4
REMARK    3  A    between atoms: O_4  and  C_5
REMARK    4  A    between atoms: C_5  and  C_7
REMARK    5  A    between atoms: C_5  and  C_11
REMARK    6  A    between atoms: C_7  and  C_8
REMARK    7  A    between atoms: C_8  and  O_9
REMARK    8  A    between atoms: C_11  and  N_12
REMARK    9  A    between atoms: N_12  and  C_13
REMARK   10  A    between atoms: N_12  and  C_14
REMARK   11  A    between atoms: N_12  and  C_15
REMARK                            x       y       z     vdW  Elec       q    Type
REMARK                         _______ _______ _______ _____ _____    ______ ____
ROOT
ATOM      1  C   UNL     1       4.736   0.850   0.562  0.00  0.00    +0.232 C 
ENDROOT
BRANCH   1   2
ATOM      2  O   UNL     1       5.444  -0.395   0.744  0.00  0.00    -0.456 OA
BRANCH   2   4
ATOM      3  C   UNL     1       5.442  -2.740   0.995  0.00  0.00    +0.136 C 
ATOM      4  C   UNL     1       4.720  -1.529   0.495  0.00  0.00    +0.304 C 
ATOM      5  O   UNL     1       3.596  -1.532   0.019  0.00  0.00    -0.251 OA
ENDBRANCH   2   4
ENDBRANCH   1   2
BRANCH   1   6
ATOM      6  C   UNL     1       5.357   1.971   1.442  0.00  0.00    +0.178 C 
BRANCH   6   7
ATOM      7  N   UNL     1       5.421   1.686   2.976  0.00  0.00    +0.239 N 
ATOM      8  C   UNL     1       5.877   2.986   3.657  0.00  0.00    +0.192 C 
ATOM      9  C   UNL     1       6.469   0.622   3.300  0.00  0.00    +0.192 C 
ATOM     10  C   UNL     1       4.076   1.285   3.554  0.00  0.00    +0.192 C 
ENDBRANCH   6   7
ENDBRANCH   1   6
BRANCH   1  11
ATOM     11  C   UNL     1       4.658   1.222  -0.935  0.00  0.00    +0.170 C 
BRANCH  11  12
ATOM     12  C   UNL     1       5.991   1.547  -1.556  0.00  0.00    +0.308 C 
ATOM     13  O   UNL     1       6.937   2.012  -0.941  0.00  0.00    -0.251 OA
BRANCH  12  14
ATOM     14  O   UNL     1       6.037   1.343  -2.887  0.00  0.00    -0.481 OA
ATOM     15  H   UNL     1       5.221   0.990  -3.301  0.00  0.00    +0.295 HD
ENDBRANCH  12  14
ENDBRANCH  11  12
ENDBRANCH   1  11
TORSDOF 7
