REMARK  Name = 
REMARK  14 active torsions:
REMARK  status: ('A' for Active; 'I' for Inactive)
REMARK    1  A    between atoms: C_2  and  C_3
REMARK    2  A    between atoms: C_2  and  N_4
REMARK    3  A    between atoms: C_2  and  P_5
REMARK    4  A    between atoms: P_5  and  O_6
REMARK    5  A    between atoms: P_5  and  C_8
REMARK    6  A    between atoms: C_8  and  C_9
REMARK    7  A    between atoms: C_9  and  C_11
REMARK    8  A    between atoms: C_9  and  C_18
REMARK    9  A    between atoms: C_11  and  C_12
REMARK   10  A    between atoms: N_20  and  CA_21
REMARK   11  A    between atoms: CA_21  and  CB_23
REMARK   12  A    between atoms: CA_21  and  C_30
REMARK   13  A    between atoms: CB_23  and  CG_24
REMARK   14  A    between atoms: C_30  and  O_31
REMARK                            x       y       z     vdW  Elec       q    Type
REMARK                         _______ _______ _______ _____ _____    ______ ____
ROOT
ATOM      1  C   UNK A   0       4.617   3.520  -1.194  0.00  0.00    +0.088 C 
ENDROOT
BRANCH   1   2
ATOM      2  C   UNK A   0       5.118   4.948  -1.454  0.00  0.00    +0.218 C 
ATOM      3  N   PHE A   1       6.470   5.046  -1.760  0.00  0.00    -0.302 N 
ATOM      4  H   PHE A   1       7.090   4.363  -1.329  0.00  0.00    +0.150 HD
ATOM      5  O   UNK A   0       4.377   5.920  -1.482  0.00  0.00    -0.275 OA
BRANCH   3   6
ATOM      6  CA  PHE A   1       7.075   6.356  -2.119  0.00  0.00    +0.186 C 
BRANCH   6   7
ATOM      7  C   PHE A   1       7.155   6.534  -3.640  0.00  0.00    +0.326 C 
ATOM      8  OXT PHE A   1       7.649   7.508  -4.199  0.00  0.00    -0.249 OA
BRANCH   7   9
ATOM      9  O   PHE A   1       6.688   5.479  -4.349  0.00  0.00    -0.479 OA
ATOM     10  H   PHE A   1       6.247   4.841  -3.754  0.00  0.00    +0.295 HD
ENDBRANCH   7   9
ENDBRANCH   6   7
BRANCH   6  11
ATOM     11  CB  PHE A   1       8.510   6.537  -1.576  0.00  0.00    +0.069 C 
BRANCH  11  12
ATOM     12  CG  PHE A   1       8.595   6.477  -0.070  0.00  0.00    -0.045 A 
ATOM     13  CD2 PHE A   1       7.843   7.356   0.721  0.00  0.00    +0.004 A 
ATOM     14  CE2 PHE A   1       7.858   7.248   2.110  0.00  0.00    +0.000 A 
ATOM     15  CZ  PHE A   1       8.645   6.276   2.724  0.00  0.00    +0.000 A 
ATOM     16  CE1 PHE A   1       9.445   5.438   1.950  0.00  0.00    +0.000 A 
ATOM     17  CD1 PHE A   1       9.429   5.543   0.559  0.00  0.00    +0.004 A 
ENDBRANCH  11  12
ENDBRANCH   6  11
ENDBRANCH   3   6
ENDBRANCH   1   2
BRANCH   1  18
ATOM     18  C   UNK A   0       3.249   3.479  -0.442  0.00  0.00    +0.111 C 
BRANCH  18  19
ATOM     19  P   UNK A   0       2.721   1.759  -0.109  0.00  0.00    +0.219 P 
ATOM     20  O   UNK A   0       1.812   2.270   1.019  0.00  0.00    -0.289 OA
BRANCH  19  21
ATOM     21  C   UNK A   0       2.193   0.038   0.224  0.00  0.00    +0.135 C 
ATOM     22  C   UNK A   0       3.259  -0.896  -0.356  0.00  0.00    +0.034 C 
BRANCH  21  23
ATOM     23  N   UNK A   0       0.882  -0.237  -0.428  0.00  0.00    -0.320 NA
ATOM     24  H   UNK A   0       1.035  -0.783  -1.280  0.00  0.00    +0.119 HD
ATOM     25  H   UNK A   0       0.363  -0.870   0.188  0.00  0.00    +0.119 HD
ENDBRANCH  21  23
ENDBRANCH  19  21
BRANCH  19  26
ATOM     26  O   UNK A   0       1.814   1.791  -1.493  0.00  0.00    -0.343 OA
ATOM     27  H   UNK A   0       0.974   1.298  -1.298  0.00  0.00    +0.218 HD
ENDBRANCH  19  26
ENDBRANCH  18  19
ENDBRANCH   1  18
BRANCH   1  28
ATOM     28  C   UNK A   0       4.741   2.673  -2.494  0.00  0.00    +0.048 C 
BRANCH  28  29
ATOM     29  C   UNK A   0       4.167   3.126  -3.823  0.00  0.00    -0.047 A 
ATOM     30  C   UNK A   0       4.627   2.493  -4.998  0.00  0.00    +0.003 A 
ATOM     31  C   UNK A   0       4.171   2.881  -6.263  0.00  0.00    +0.000 A 
ATOM     32  C   UNK A   0       3.239   3.904  -6.380  0.00  0.00    +0.000 A 
ATOM     33  C   UNK A   0       2.758   4.527  -5.232  0.00  0.00    +0.000 A 
ATOM     34  C   UNK A   0       3.211   4.135  -3.966  0.00  0.00    +0.003 A 
ENDBRANCH  28  29
ENDBRANCH   1  28
TORSDOF 13
