REMARK  Name = 
REMARK  10 active torsions:
REMARK  status: ('A' for Active; 'I' for Inactive)
REMARK    1  A    between atoms: C_1  and  C_2
REMARK    2  A    between atoms: C_2  and  C_3
REMARK    3  A    between atoms: C_2  and  O_4
REMARK    4  A    between atoms: O_4  and  C_5
REMARK    5  A    between atoms: C_7  and  N_8
REMARK    6  A    between atoms: C_9  and  C_11
REMARK    7  A    between atoms: C_15  and  O_16
REMARK    8  A    between atoms: O_16  and  C_17
REMARK    9  A    between atoms: C_17  and  C_18
REMARK   10  A    between atoms: C_18  and  N_19
REMARK                            x       y       z     vdW  Elec       q    Type
REMARK                         _______ _______ _______ _____ _____    ______ ____
ROOT
ATOM      1  N   UNL     1       7.357   1.208   1.366  0.00  0.00    -0.281 N 
ATOM      2  H   UNL     1       8.347   1.076   1.534  0.00  0.00    +0.155 HD
ATOM      3  C   UNL     1       6.878   2.492   1.189  0.00  0.00    +0.248 C 
ATOM      4  O   UNL     1       5.696   2.802   1.070  0.00  0.00    -0.270 OA
ENDROOT
BRANCH   3   5
ATOM      5  C   UNL     1       7.877   3.604   1.128  0.00  0.00    +0.040 A 
ATOM      6  C   UNL     1       9.144   3.556   1.714  0.00  0.00    +0.036 A 
ATOM      7  C   UNL     1      10.023   4.654   1.609  0.00  0.00    +0.085 A 
ATOM      8 CL   UNL     1      11.603   4.402   2.272  0.00  0.00    -0.080 Cl
ATOM      9  C   UNL     1       9.636   5.832   0.947  0.00  0.00    +0.157 A 
ATOM     10  C   UNL     1       8.360   5.861   0.359  0.00  0.00    +0.085 A 
ATOM     11 CL   UNL     1       7.798   7.252  -0.506  0.00  0.00    -0.080 Cl
ATOM     12  C   UNL     1       7.494   4.768   0.451  0.00  0.00    +0.036 A 
BRANCH   9  13
ATOM     13  O   UNL     1      10.414   6.941   0.728  0.00  0.00    -0.488 OA
BRANCH  13  14
ATOM     14  C   UNL     1      11.210   7.425   1.815  0.00  0.00    +0.244 C 
BRANCH  14  15
ATOM     15  C   UNL     1      11.261   8.960   1.777  0.00  0.00    +0.119 C 
BRANCH  15  16
ATOM     16  N   UNL     1       9.968   9.558   2.120  0.00  0.00    -0.327 NA
ATOM     17  H   UNL     1      10.024  10.570   2.001  0.00  0.00    +0.118 HD
ATOM     18  H   UNL     1       9.274   9.236   1.445  0.00  0.00    +0.118 HD
ENDBRANCH  15  16
ENDBRANCH  14  15
ENDBRANCH  13  14
ENDBRANCH   9  13
ENDBRANCH   3   5
BRANCH   1  23
ATOM     19  C   UNL     1       4.613  -1.296   0.731  0.00  0.00    +0.123 A 
ATOM     20  C   UNL     1       5.244  -2.450   1.186  0.00  0.00    +0.046 A 
ATOM     21  C   UNL     1       6.537  -2.383   1.707  0.00  0.00    +0.005 A 
ATOM     22  C   UNL     1       7.216  -1.164   1.753  0.00  0.00    +0.023 A 
ATOM     23  C   UNL     1       6.595   0.012   1.317  0.00  0.00    +0.037 A 
ATOM     24  C   UNL     1       5.287  -0.066   0.821  0.00  0.00    +0.069 A 
BRANCH  19  25
ATOM     25  O   UNL     1       3.361  -1.232   0.178  0.00  0.00    -0.489 OA
BRANCH  25  27
ATOM     26  C   UNL     1       1.144  -2.085  -0.043  0.00  0.00    +0.051 C 
ATOM     27  C   UNL     1       2.628  -2.442  -0.052  0.00  0.00    +0.167 C 
ATOM     28  C   UNL     1       3.013  -3.047  -1.400  0.00  0.00    +0.051 C 
ENDBRANCH  25  27
ENDBRANCH  19  25
ENDBRANCH   1  23
TORSDOF 8
