REMARK  Name = 
REMARK  8 active torsions:
REMARK  status: ('A' for Active; 'I' for Inactive)
REMARK    1  A    between atoms: C_2  and  C_3
REMARK    2  A    between atoms: C_2  and  C_7
REMARK    3  A    between atoms: C_2  and  N_18
REMARK    4  A    between atoms: C_3  and  C_4
REMARK    5  A    between atoms: C_4  and  O_5
REMARK    6  A    between atoms: C_7  and  C_8
REMARK    7  A    between atoms: C_24  and  C_29
REMARK    8  A    between atoms: C_29  and  O_30
REMARK                            x       y       z     vdW  Elec       q    Type
REMARK                         _______ _______ _______ _____ _____    ______ ____
ROOT
ATOM      1  C   UNL     1       1.931   0.399   0.055  0.00  0.00    +0.100 C 
ENDROOT
BRANCH   1   2
ATOM      2  N   UNL     1       2.463   1.324   1.068  0.00  0.00    -0.230 N 
ATOM      3  C   UNL     1       2.374   1.041   2.406  0.00  0.00    +0.254 C 
ATOM      4  O   UNL     1       1.937   0.046   2.954  0.00  0.00    -0.270 OA
ATOM      5  C   UNL     1       2.849   2.212   3.128  0.00  0.00    +0.050 A 
ATOM      6  C   UNL     1       3.226   3.151   2.190  0.00  0.00    +0.049 A 
ATOM      7  C   UNL     1       3.674   4.403   2.563  0.00  0.00    +0.014 A 
ATOM      8  C   UNL     1       3.693   4.693   3.933  0.00  0.00    +0.016 A 
ATOM      9  C   UNL     1       3.273   3.738   4.893  0.00  0.00    +0.060 A 
ATOM     10  C   UNL     1       2.874   2.458   4.488  0.00  0.00    +0.028 A 
ATOM     11  C   UNL     1       2.987   2.576   0.865  0.00  0.00    +0.254 C 
ATOM     12  O   UNL     1       3.236   3.179  -0.159  0.00  0.00    -0.270 OA
BRANCH   9  13
ATOM     13  C   UNL     1       3.282   4.141   6.323  0.00  0.00    +0.337 C 
ATOM     14  O   UNL     1       4.037   4.991   6.759  0.00  0.00    -0.245 OA
BRANCH  13  15
ATOM     15  O   UNL     1       2.355   3.521   7.083  0.00  0.00    -0.477 OA
ATOM     16  H   UNL     1       1.682   2.997   6.612  0.00  0.00    +0.295 HD
ENDBRANCH  13  15
ENDBRANCH   9  13
ENDBRANCH   1   2
BRANCH   1  17
ATOM     17  C   UNL     1       0.389   0.340   0.056  0.00  0.00    +0.143 C 
BRANCH  17  18
ATOM     18  C   UNL     1      -0.336   1.538  -0.490  0.00  0.00    +0.307 C 
ATOM     19  O   UNL     1       0.181   2.575  -0.862  0.00  0.00    -0.251 OA
BRANCH  18  20
ATOM     20  O   UNL     1      -1.678   1.356  -0.512  0.00  0.00    -0.481 OA
ATOM     21  H   UNL     1      -1.977   0.491  -0.171  0.00  0.00    +0.295 HD
ENDBRANCH  18  20
ENDBRANCH  17  18
ENDBRANCH   1  17
BRANCH   1  22
ATOM     22  C   UNL     1       2.545   0.528  -1.361  0.00  0.00    +0.059 C 
BRANCH  22  23
ATOM     23  C   UNL     1       4.037   0.214  -1.493  0.00  0.00    -0.038 A 
ATOM     24  C   UNL     1       4.836   0.804  -2.525  0.00  0.00    -0.015 A 
ATOM     25  C   UNL     1       6.212   0.460  -2.608  0.00  0.00    -0.018 A 
ATOM     26  C   UNL     1       7.030   1.022  -3.599  0.00  0.00    +0.008 A 
ATOM     27  C   UNL     1       6.520   1.922  -4.530  0.00  0.00    +0.001 A 
ATOM     28  C   UNL     1       5.180   2.271  -4.476  0.00  0.00    +0.001 A 
ATOM     29  C   UNL     1       6.766  -0.451  -1.704  0.00  0.00    +0.008 A 
ATOM     30  C   UNL     1       5.984  -1.047  -0.726  0.00  0.00    +0.001 A 
ATOM     31  C   UNL     1       4.351   1.721  -3.492  0.00  0.00    +0.009 A 
ATOM     32  C   UNL     1       4.635  -0.728  -0.631  0.00  0.00    +0.004 A 
ENDBRANCH  22  23
ENDBRANCH   1  22
TORSDOF 8
