REMARK  Name = 
REMARK  8 active torsions:
REMARK  status: ('A' for Active; 'I' for Inactive)
REMARK    1  A    between atoms: C_1  and  C_2
REMARK    2  A    between atoms: C_4  and  C_5
REMARK    3  A    between atoms: C_6  and  C_7
REMARK    4  A    between atoms: C_10  and  C_11
REMARK    5  A    between atoms: C_12  and  N_13
REMARK    6  A    between atoms: N_13  and  C_14
REMARK    7  A    between atoms: N_19  and  C_20
REMARK    8  A    between atoms: C_23  and  C_26
REMARK                            x       y       z     vdW  Elec       q    Type
REMARK                         _______ _______ _______ _____ _____    ______ ____
ROOT
ATOM      1  C   UNL     1       1.127  -2.668  -0.026  0.00  0.00    +0.128 A 
ATOM      2  N   UNL     1       0.334  -1.873   0.700  0.00  0.00    -0.199 NA
ATOM      3  C   UNL     1      -0.983  -2.127   0.755  0.00  0.00    +0.221 A 
ATOM      4  N   UNL     1      -1.841  -1.309   1.492  0.00  0.00    -0.284 N 
ATOM      5  H   UNL     1      -2.781  -1.675   1.442  0.00  0.00    +0.155 HD
ATOM      6  N   UNL     1      -1.559  -3.159   0.119  0.00  0.00    -0.223 NA
ATOM      7  C   UNL     1      -0.751  -3.939  -0.617  0.00  0.00    +0.118 A 
ATOM      8  C   UNL     1       0.606  -3.742  -0.718  0.00  0.00    +0.063 A 
ENDROOT
BRANCH   4   9
ATOM      9  C   UNL     1      -1.675  -0.014   2.003  0.00  0.00    +0.034 A 
ATOM     10  C   UNL     1      -2.769   0.644   2.586  0.00  0.00    +0.024 A 
ATOM     11  C   UNL     1      -2.656   1.958   3.067  0.00  0.00    +0.020 A 
ATOM     12  C   UNL     1      -1.437   2.634   2.985  0.00  0.00    +0.052 A 
ATOM     13  C   UNL     1      -0.331   1.979   2.451  0.00  0.00    +0.020 A 
ATOM     14  C   UNL     1      -0.454   0.670   1.978  0.00  0.00    +0.024 A 
BRANCH  12  15
ATOM     15  C   UNL     1      -1.316   3.991   3.429  0.00  0.00    +0.099 C 
ATOM     16  N   UNL     1      -1.211   5.094   3.772  0.00  0.00    -0.191 NA
ENDBRANCH  12  15
ENDBRANCH   4   9
BRANCH   1  17
ATOM     17  N   UNL     1       2.519  -2.440  -0.094  0.00  0.00    -0.299 N 
ATOM     18  H   UNL     1       3.015  -3.277   0.185  0.00  0.00    +0.154 HD
BRANCH  17  21
ATOM     19  C   UNL     1       1.760   0.168  -1.412  0.00  0.00    +0.046 C 
ATOM     20  C   UNL     1       2.994  -0.056  -0.581  0.00  0.00    -0.028 A 
ATOM     21  C   UNL     1       3.282  -1.258   0.100  0.00  0.00    +0.038 A 
ATOM     22  C   UNL     1       4.437  -1.290   0.931  0.00  0.00    -0.028 A 
ATOM     23  C   UNL     1       4.715  -2.444   1.863  0.00  0.00    +0.046 C 
ATOM     24  C   UNL     1       5.358  -0.214   0.924  0.00  0.00    +0.013 A 
ATOM     25  C   UNL     1       5.137   0.918   0.142  0.00  0.00    -0.024 A 
ATOM     26  C   UNL     1       3.944   0.987  -0.581  0.00  0.00    +0.013 A 
BRANCH  25  27
ATOM     27  C   UNL     1       6.097   2.021  -0.025  0.00  0.00    +0.019 C 
ATOM     28  C   UNL     1       6.959   2.477   0.898  0.00  0.00    +0.089 C 
BRANCH  28  29
ATOM     29  C   UNL     1       7.806   3.587   0.631  0.00  0.00    +0.091 C 
ATOM     30  N   UNL     1       8.492   4.497   0.410  0.00  0.00    -0.191 NA
ENDBRANCH  28  29
ENDBRANCH  25  27
ENDBRANCH  17  21
ENDBRANCH   1  17
TORSDOF 6
