REMARK  Name = 
REMARK  12 active torsions:
REMARK  status: ('A' for Active; 'I' for Inactive)
REMARK    1  A    between atoms: C_5  and  O_6
REMARK    2  A    between atoms: C_5  and  C_7
REMARK    3  A    between atoms: C_7  and  C_8
REMARK    4  A    between atoms: C_10  and  C_11
REMARK    5  A    between atoms: C_30  and  O_32
REMARK    6  A    between atoms: O_32  and  C_33
REMARK    7  A    between atoms: C_33  and  C_35
REMARK    8  A    between atoms: C_35  and  C_36
REMARK    9  A    between atoms: C_36  and  C_37
REMARK   10  A    between atoms: C_37  and  C_38
REMARK   11  A    between atoms: C_39  and  C_40
REMARK   12  A    between atoms: C_52  and  O_53
REMARK                            x       y       z     vdW  Elec       q    Type
REMARK                         _______ _______ _______ _____ _____    ______ ____
ROOT
ATOM      1  C   UNL     1      -0.000  -0.000  -0.000  0.00  0.00    +0.005 C 
ATOM      2  C   UNL     1      -0.000  -0.000   0.000  0.00  0.00    +0.019 C 
ATOM      3  C   UNL     1      -0.000  -0.000   0.000  0.00  0.00    -0.063 C 
ATOM      4  C   UNL     1      -0.000  -0.000   0.000  0.00  0.00    -0.044 C 
ATOM      5  C   UNL     1      -0.000  -0.000   0.000  0.00  0.00    -0.041 C 
ATOM      6  C   UNL     1      -0.000  -0.000   0.000  0.00  0.00    +0.036 C 
ATOM      7  C   UNL     1      -0.000  -0.000  -0.000  0.00  0.00    +0.050 C 
ATOM      8  C   UNL     1      -0.000  -0.000   0.000  0.00  0.00    +0.157 C 
ATOM      9  O   UNL     1      -0.000  -0.000   0.000  0.00  0.00    -0.293 OA
ATOM     10  C   UNL     1      -0.000  -0.000   0.000  0.00  0.00    +0.083 C 
ATOM     11  C   UNL     1      -0.000  -0.000   0.000  0.00  0.00    +0.043 C 
ATOM     12  C   UNL     1      -0.000  -0.000   0.000  0.00  0.00    +0.032 C 
ATOM     13  C   UNL     1      -0.000  -0.000  -0.000  0.00  0.00    +0.014 C 
ATOM     14  C   UNL     1      -0.000  -0.000   0.000  0.00  0.00    +0.013 C 
ATOM     15  C   UNL     1      -0.000  -0.000  -0.000  0.00  0.00    +0.001 C 
ATOM     16  C   UNL     1      -0.000  -0.000   0.000  0.00  0.00    +0.014 C 
ATOM     17  C   UNL     1      -0.000  -0.000   0.000  0.00  0.00    +0.084 C 
ATOM     18  C   UNL     1      -0.000  -0.000   0.000  0.00  0.00    +0.036 C 
ATOM     19  C   UNL     1      -0.000  -0.000   0.000  0.00  0.00    +0.007 C 
ENDROOT
BRANCH  17  20
ATOM     20  O   UNL     1      -0.000  -0.000   0.000  0.00  0.00    -0.387 OA
ATOM     21  H   UNL     1       0.000   0.000   0.000  0.00  0.00    +0.210 HD
ENDBRANCH  17  20
BRANCH  17  22
ATOM     22  C   UNL     1      -0.000  -0.000  -0.000  0.00  0.00    +0.153 C 
BRANCH  22  23
ATOM     23  C   UNL     1      -0.000  -0.000   0.000  0.00  0.00    +0.065 C 
ATOM     24  N   UNL     1      -0.000  -0.000   0.000  0.00  0.00    -0.196 NA
ENDBRANCH  22  23
ENDBRANCH  17  22
TORSDOF 3
REMARK  Name = 
REMARK  12 active torsions:
REMARK  status: ('A' for Active; 'I' for Inactive)
REMARK    1  A    between atoms: C_5  and  O_6
REMARK    2  A    between atoms: C_5  and  C_7
REMARK    3  A    between atoms: C_7  and  C_8
REMARK    4  A    between atoms: C_10  and  C_11
REMARK    5  A    between atoms: C_30  and  O_32
REMARK    6  A    between atoms: O_32  and  C_33
REMARK    7  A    between atoms: C_33  and  C_35
REMARK    8  A    between atoms: C_35  and  C_36
REMARK    9  A    between atoms: C_36  and  C_37
REMARK   10  A    between atoms: C_37  and  C_38
REMARK   11  A    between atoms: C_39  and  C_40
REMARK   12  A    between atoms: C_52  and  O_53
REMARK                            x       y       z     vdW  Elec       q    Type
REMARK                         _______ _______ _______ _____ _____    ______ ____
ROOT
ATOM      1  C   UNL     1      -0.000  -0.000  -0.000  0.00  0.00    +0.002 C 
ATOM      2  C   UNL     1      -0.000  -0.000  -0.000  0.00  0.00    +0.000 C 
ATOM      3  C   UNL     1      -0.000  -0.000  -0.000  0.00  0.00    +0.023 C 
ATOM      4  C   UNL     1      -0.000  -0.000  -0.000  0.00  0.00    -0.041 A 
ATOM      5  C   UNL     1      -0.000  -0.000  -0.000  0.00  0.00    +0.008 A 
ATOM      6  C   UNL     1      -0.000  -0.000  -0.000  0.00  0.00    +0.046 A 
ATOM      7  C   UNL     1      -0.000  -0.000  -0.000  0.00  0.00    +0.117 A 
ATOM      8  C   UNL     1      -0.000  -0.000  -0.000  0.00  0.00    +0.049 A 
ATOM      9  C   UNL     1      -0.000  -0.000  -0.000  0.00  0.00    -0.040 A 
ATOM     10  C   UNL     1      -0.000  -0.000  -0.000  0.00  0.00    +0.036 C 
ATOM     11  C   UNL     1      -0.000  -0.000  -0.000  0.00  0.00    +0.009 C 
ATOM     12  C   UNL     1      -0.000  -0.000  -0.000  0.00  0.00    +0.011 C 
ATOM     13  C   UNL     1      -0.000  -0.000  -0.000  0.00  0.00    +0.009 C 
ATOM     14  C   UNL     1      -0.000  -0.000  -0.000  0.00  0.00    +0.008 C 
ATOM     15  C   UNL     1      -0.000  -0.000  -0.000  0.00  0.00    +0.015 C 
ATOM     16  C   UNL     1      -0.000  -0.000   0.000  0.00  0.00    +0.183 C 
ATOM     17  C   UNL     1      -0.000  -0.000  -0.000  0.00  0.00    +0.045 C 
ATOM     18  C   UNL     1      -0.000  -0.000  -0.000  0.00  0.00    +0.008 C 
ENDROOT
BRANCH   7  19
ATOM     19  O   UNL     1      -0.000  -0.000  -0.000  0.00  0.00    -0.507 OA
ATOM     20  H   UNL     1      -0.000  -0.000  -0.000  0.00  0.00    +0.292 HD
ENDBRANCH   7  19
BRANCH  16  21
ATOM     21  O   UNL     1      -0.000  -0.000  -0.000  0.00  0.00    -0.461 OA
BRANCH  21  22
ATOM     22  C   UNL     1      -0.000  -0.000  -0.000  0.00  0.00    +0.307 C 
ATOM     23  O   UNL     1      -0.000  -0.000  -0.000  0.00  0.00    -0.251 OA
BRANCH  22  24
ATOM     24  C   UNL     1      -0.000  -0.000  -0.000  0.00  0.00    +0.120 C 
BRANCH  24  25
ATOM     25  C   UNL     1      -0.000  -0.000  -0.000  0.00  0.00    +0.011 C 
BRANCH  25  26
ATOM     26  C   UNL     1      -0.000  -0.000  -0.000  0.00  0.00    -0.003 C 
ATOM     27  C   UNL     1      -0.000  -0.000  -0.000  0.00  0.00    +0.004 C 
ENDBRANCH  25  26
ENDBRANCH  24  25
ENDBRANCH  22  24
ENDBRANCH  21  22
ENDBRANCH  16  21
TORSDOF 6
