REMARK  Name = 
REMARK  13 active torsions:
REMARK  status: ('A' for Active; 'I' for Inactive)
REMARK    1  A    between atoms: C_2  and  C_3
REMARK    2  A    between atoms: C_3  and  O_4
REMARK    3  A    between atoms: O_4  and  C_5
REMARK    4  A    between atoms: C_5  and  C_7
REMARK    5  A    between atoms: C_7  and  C_9
REMARK    6  A    between atoms: C_7  and  N_17
REMARK    7  A    between atoms: C_9  and  C_10
REMARK    8  A    between atoms: C_10  and  C_11
REMARK    9  A    between atoms: N_17  and  C_18
REMARK   10  A    between atoms: C_22  and  C_32
REMARK   11  A    between atoms: N_25  and  C_26
REMARK   12  A    between atoms: C_26  and  C_27
REMARK   13  A    between atoms: C_27  and  O_28
REMARK                            x       y       z     vdW  Elec       q    Type
REMARK                         _______ _______ _______ _____ _____    ______ ____
ROOT
ATOM      1 CL   UNL     1       0.926  -0.052   0.073  0.00  0.00    -0.145 Cl
ATOM      2  H   UNL     1       2.301  -0.045   0.066  0.00  0.00    +0.145 HD
ENDROOT
TORSDOF 0
REMARK  Name = 
REMARK  13 active torsions:
REMARK  status: ('A' for Active; 'I' for Inactive)
REMARK    1  A    between atoms: C_2  and  C_3
REMARK    2  A    between atoms: C_3  and  O_4
REMARK    3  A    between atoms: O_4  and  C_5
REMARK    4  A    between atoms: C_5  and  C_7
REMARK    5  A    between atoms: C_7  and  C_9
REMARK    6  A    between atoms: C_7  and  N_17
REMARK    7  A    between atoms: C_9  and  C_10
REMARK    8  A    between atoms: C_10  and  C_11
REMARK    9  A    between atoms: N_17  and  C_18
REMARK   10  A    between atoms: C_22  and  C_32
REMARK   11  A    between atoms: N_25  and  C_26
REMARK   12  A    between atoms: C_26  and  C_27
REMARK   13  A    between atoms: C_27  and  O_28
REMARK                            x       y       z     vdW  Elec       q    Type
REMARK                         _______ _______ _______ _____ _____    ______ ____
ROOT
ATOM      1  C   UNL     1       6.936  -2.459   0.613  0.00  0.00    +0.151 C 
ATOM      2  C   UNL     1       8.453  -2.523   0.662  0.00  0.00    +0.234 C 
ATOM      3  O   UNL     1       9.005  -1.700   1.384  0.00  0.00    -0.274 OA
ATOM      4  N   UNL     1       9.095  -2.966  -0.474  0.00  0.00    -0.288 N 
ATOM      5  C   UNL     1       9.925  -1.985  -1.185  0.00  0.00    +0.127 C 
ATOM      6  C   UNL     1       9.092  -0.674  -1.371  0.00  0.00    +0.100 C 
ATOM      7  S   UNL     1       7.356  -1.059  -1.875  0.00  0.00    -0.149 S 
ATOM      8  C   UNL     1       6.612  -1.155  -0.191  0.00  0.00    +0.098 C 
ENDROOT
BRANCH   6   9
ATOM      9  C   UNL     1       9.652   0.300  -2.362  0.00  0.00    +0.004 A 
ATOM     10  S   UNL     1      10.211   1.844  -1.992  0.00  0.00    -0.100 S 
ATOM     11  C   UNL     1      10.539   2.295  -3.578  0.00  0.00    +0.045 A 
ATOM     12  C   UNL     1      10.206   1.240  -4.417  0.00  0.00    +0.008 A 
ATOM     13  C   UNL     1       9.713   0.120  -3.739  0.00  0.00    +0.012 A 
ENDBRANCH   6   9
BRANCH   1  14
ATOM     14  N   UNL     1       6.350  -2.404   1.974  0.00  0.00    -0.293 NA
ATOM     15  H   UNL     1       6.607  -3.270   2.503  0.00  0.00    +0.123 HD
BRANCH  14  16
ATOM     16  C   UNL     1       4.878  -2.195   2.007  0.00  0.00    +0.164 C 
BRANCH  16  17
ATOM     17  C   UNL     1       4.380  -1.924   3.408  0.00  0.00    +0.324 C 
ATOM     18  O   UNL     1       3.199  -1.631   3.561  0.00  0.00    -0.249 OA
BRANCH  17  19
ATOM     19  O   UNL     1       5.239  -1.876   4.456  0.00  0.00    -0.464 OA
BRANCH  19  21
ATOM     20  C   UNL     1       4.753  -1.920   6.806  0.00  0.00    +0.048 C 
ATOM     21  C   UNL     1       5.040  -1.082   5.572  0.00  0.00    +0.229 C 
ENDBRANCH  19  21
ENDBRANCH  17  19
ENDBRANCH  16  17
BRANCH  16  22
ATOM     22  C   UNL     1       4.075  -3.302   1.275  0.00  0.00    +0.035 C 
BRANCH  22  23
ATOM     23  C   UNL     1       4.287  -4.739   1.787  0.00  0.00    +0.037 C 
BRANCH  23  24
ATOM     24  C   UNL     1       3.506  -5.708   0.928  0.00  0.00    -0.047 A 
ATOM     25  C   UNL     1       2.467  -6.480   1.476  0.00  0.00    +0.003 A 
ATOM     26  C   UNL     1       1.737  -7.358   0.664  0.00  0.00    +0.000 A 
ATOM     27  C   UNL     1       2.038  -7.472  -0.696  0.00  0.00    +0.000 A 
ATOM     28  C   UNL     1       3.074  -6.717  -1.247  0.00  0.00    +0.000 A 
ATOM     29  C   UNL     1       3.807  -5.842  -0.442  0.00  0.00    +0.003 A 
ENDBRANCH  23  24
ENDBRANCH  22  23
ENDBRANCH  16  22
ENDBRANCH  14  16
ENDBRANCH   1  14
BRANCH   4  30
ATOM     30  C   UNL     1       8.613  -4.118  -1.248  0.00  0.00    +0.228 C 
BRANCH  30  31
ATOM     31  C   UNL     1       8.506  -5.359  -0.397  0.00  0.00    +0.322 C 
ATOM     32  O   UNL     1       7.425  -5.912  -0.266  0.00  0.00    -0.249 OA
BRANCH  31  33
ATOM     33  O   UNL     1       9.593  -5.897   0.198  0.00  0.00    -0.480 OA
ATOM     34  H   UNL     1      10.476  -5.518   0.091  0.00  0.00    +0.295 HD
ENDBRANCH  31  33
ENDBRANCH  30  31
ENDBRANCH   4  30
TORSDOF 12
