REMARK  Name = 
REMARK  5 active torsions:
REMARK  status: ('A' for Active; 'I' for Inactive)
REMARK    1  A    between atoms: O_1  and  C_2
REMARK    2  A    between atoms: C_2  and  C_3
REMARK    3  A    between atoms: C_3  and  O_4
REMARK    4  A    between atoms: O_4  and  C_5
REMARK    5  A    between atoms: C_6  and  C_11
REMARK                            x       y       z     vdW  Elec       q    Type
REMARK                         _______ _______ _______ _____ _____    ______ ____
ROOT
ATOM      1  C   UNL     1       5.116  -1.212   2.400  0.00  0.00    +0.128 A 
ATOM      2  C   UNL     1       5.005  -2.561   2.784  0.00  0.00    +0.046 A 
ATOM      3  C   UNL     1       5.670  -3.050   3.906  0.00  0.00    +0.004 A 
ATOM      4  C   UNL     1       6.443  -2.194   4.671  0.00  0.00    +0.001 A 
ATOM      5  C   UNL     1       6.543  -0.848   4.316  0.00  0.00    +0.012 A 
ATOM      6  C   UNL     1       5.903  -0.315   3.173  0.00  0.00    +0.027 A 
ENDROOT
BRANCH   6   7
ATOM      7  C   UNL     1       6.079   1.134   2.851  0.00  0.00    +0.024 A 
ATOM      8  C   UNL     1       5.016   1.922   2.350  0.00  0.00    +0.014 A 
ATOM      9  C   UNL     1       5.175   3.284   2.060  0.00  0.00    +0.042 A 
ATOM     10  C   UNL     1       6.395   3.898   2.298  0.00  0.00    +0.161 A 
ATOM     11  F   UNL     1       6.539   5.205   2.036  0.00  0.00    -0.202 F 
ATOM     12  C   UNL     1       7.455   3.168   2.808  0.00  0.00    +0.194 A 
ATOM     13  F   UNL     1       8.627   3.770   3.062  0.00  0.00    -0.199 F 
ATOM     14  C   UNL     1       7.302   1.806   3.067  0.00  0.00    +0.169 A 
ATOM     15  F   UNL     1       8.369   1.141   3.541  0.00  0.00    -0.202 F 
ENDBRANCH   6   7
BRANCH   1  16
ATOM     16  O   UNL     1       4.508  -0.714   1.268  0.00  0.00    -0.489 OA
BRANCH  16  17
ATOM     17  C   UNL     1       3.619  -1.586   0.567  0.00  0.00    +0.257 C 
BRANCH  17  18
ATOM     18  C   UNL     1       3.014  -0.852  -0.623  0.00  0.00    +0.196 C 
BRANCH  18  19
ATOM     19  O   UNL     1       2.143  -1.726  -1.332  0.00  0.00    -0.392 OA
ATOM     20  H   UNL     1       1.814  -1.237  -2.105  0.00  0.00    +0.210 HD
ENDBRANCH  18  19
ENDBRANCH  17  18
ENDBRANCH  16  17
ENDBRANCH   1  16
TORSDOF 5
