REMARK  Name = 
REMARK  4 active torsions:
REMARK  status: ('A' for Active; 'I' for Inactive)
REMARK    1  A    between atoms: C_12  and  O_13
REMARK    2  A    between atoms: N_17  and  C_18
REMARK    3  A    between atoms: C_18  and  C_19
REMARK    4  A    between atoms: C_22  and  N_23
REMARK                            x       y       z     vdW  Elec       q    Type
REMARK                         _______ _______ _______ _____ _____    ______ ____
ROOT
ATOM      1  C   UNL     1       2.216   1.786  -1.431  0.00  0.00    +0.127 C 
ATOM      2  N   UNL     1       2.337   1.903  -2.892  0.00  0.00    -0.313 N 
ATOM      3  C   UNL     1       3.296   2.753  -3.457  0.00  0.00    +0.038 A 
ATOM      4  C   UNL     1       3.265   4.157  -3.233  0.00  0.00    -0.001 A 
ATOM      5  C   UNL     1       4.096   5.013  -3.980  0.00  0.00    +0.055 A 
ATOM      6  C   UNL     1       5.028   4.481  -4.862  0.00  0.00    +0.118 A 
ATOM      7  C   UNL     1       5.168   3.111  -4.995  0.00  0.00    +0.047 A 
ATOM      8  C   UNL     1       2.399   4.793  -2.216  0.00  0.00    +0.010 C 
ATOM      9  C   UNL     1       2.225   4.264  -0.994  0.00  0.00    +0.006 C 
ATOM     10  C   UNL     1       4.296   2.258  -4.313  0.00  0.00    +0.027 A 
ATOM     11  C   UNL     1       2.777   2.971  -0.645  0.00  0.00    -0.027 C 
ATOM     12  C   UNL     1       3.781   2.838   0.250  0.00  0.00    -0.017 C 
ATOM     13  C   UNL     1       4.495   1.520   0.474  0.00  0.00    +0.054 C 
ATOM     14  C   UNL     1       4.165   0.522  -0.627  0.00  0.00    -0.025 C 
ATOM     15  C   UNL     1       2.859   0.470  -0.972  0.00  0.00    -0.004 C 
ENDROOT
BRANCH   6  16
ATOM     16  O   UNL     1       5.840   5.280  -5.611  0.00  0.00    -0.507 OA
ATOM     17  H   UNL     1       5.506   6.191  -5.562  0.00  0.00    +0.292 HD
ENDBRANCH   6  16
BRANCH   2  18
ATOM     18  C   UNL     1       1.824   0.756  -3.664  0.00  0.00    +0.163 C 
BRANCH  18  19
ATOM     19  C   UNL     1       1.230   1.144  -4.997  0.00  0.00    +0.077 A 
ATOM     20  C   UNL     1       0.248   2.111  -5.110  0.00  0.00    +0.138 A 
ATOM     21  N   UNL     1      -0.242   2.532  -6.305  0.00  0.00    -0.232 NA
ATOM     22  C   UNL     1       0.276   1.991  -7.412  0.00  0.00    +0.185 A 
ATOM     23  C   UNL     1       1.219   0.962  -7.295  0.00  0.00    +0.148 A 
ATOM     24  C   UNL     1       1.650   0.439  -8.505  0.00  0.00    +0.149 A 
ATOM     25  N   UNL     1       1.262   0.907  -9.700  0.00  0.00    -0.198 NA
ATOM     26  C   UNL     1       0.423   1.935  -9.683  0.00  0.00    +0.216 A 
ATOM     27  N   UNL     1       0.082   2.491 -10.896  0.00  0.00    -0.327 N 
ATOM     28  H   UNL     1      -0.796   2.986 -10.829  0.00  0.00    +0.145 HD
ATOM     29  H   UNL     1       0.192   1.821 -11.643  0.00  0.00    +0.145 HD
ATOM     30  N   UNL     1      -0.123   2.466  -8.591  0.00  0.00    -0.193 NA
ATOM     31  N   UNL     1       1.701   0.523  -6.101  0.00  0.00    -0.242 NA
BRANCH  24  32
ATOM     32  N   UNL     1       2.479  -0.697  -8.525  0.00  0.00    -0.341 N 
ATOM     33  H   UNL     1       2.824  -0.855  -9.465  0.00  0.00    +0.144 HD
ATOM     34  H   UNL     1       3.197  -0.635  -7.808  0.00  0.00    +0.144 HD
ENDBRANCH  24  32
ENDBRANCH  18  19
ENDBRANCH   2  18
TORSDOF 4
