REMARK  Name = 
REMARK  9 active torsions:
REMARK  status: ('A' for Active; 'I' for Inactive)
REMARK    1  A    between atoms: C_2  and  C_3
REMARK    2  A    between atoms: C_2  and  N_10
REMARK    3  A    between atoms: C_2  and  C_12
REMARK    4  A    between atoms: C_3  and  C_4
REMARK    5  A    between atoms: N_10  and  C_11
REMARK    6  A    between atoms: C_18  and  C_20
REMARK    7  A    between atoms: N_22  and  C_23
REMARK    8  A    between atoms: C_23  and  C_24
REMARK    9  A    between atoms: C_28  and  N_30
REMARK                            x       y       z     vdW  Elec       q    Type
REMARK                         _______ _______ _______ _____ _____    ______ ____
ROOT
ATOM      1  C   UNL     1       1.652  -8.351  -1.409  0.00  0.00    +0.234 C 
ATOM      2  N   UNL     1       0.880  -7.230  -1.617  0.00  0.00    -0.289 N 
ATOM      3  C   UNL     1       1.490  -5.901  -1.770  0.00  0.00    +0.162 C 
ATOM      4  C   UNL     1       0.454  -5.097  -2.581  0.00  0.00    +0.033 C 
ATOM      5  C   UNL     1      -0.645  -6.093  -2.945  0.00  0.00    +0.021 C 
ATOM      6  C   UNL     1      -0.543  -7.166  -1.880  0.00  0.00    +0.108 C 
ATOM      7  O   UNL     1       2.869  -8.257  -1.213  0.00  0.00    -0.274 OA
ENDROOT
BRANCH   3   8
ATOM      8  C   UNL     1       1.761  -5.151  -0.440  0.00  0.00    +0.234 C 
ATOM      9  N   UNL     1       1.436  -5.851   0.705  0.00  0.00    -0.314 N 
ATOM     10  H   UNL     1       1.499  -6.855   0.603  0.00  0.00    +0.149 HD
ATOM     11  O   UNL     1       2.183  -3.997  -0.422  0.00  0.00    -0.274 OA
BRANCH   9  12
ATOM     12  C   UNL     1       1.640  -5.286   2.025  0.00  0.00    +0.107 C 
BRANCH  12  13
ATOM     13  C   UNL     1       0.650  -5.818   3.079  0.00  0.00    +0.006 C 
ATOM     14  C   UNL     1      -0.794  -5.396   2.761  0.00  0.00    +0.006 C 
ATOM     15  C   UNL     1      -1.784  -5.934   3.797  0.00  0.00    +0.019 C 
ATOM     16  C   UNL     1      -1.697  -7.455   3.977  0.00  0.00    +0.051 C 
ATOM     17  C   UNL     1      -0.253  -7.873   4.287  0.00  0.00    +0.019 C 
ATOM     18  C   UNL     1       0.766  -7.337   3.281  0.00  0.00    +0.006 C 
BRANCH  16  19
ATOM     19  N   UNL     1      -2.217  -8.142   2.792  0.00  0.00    -0.327 NA
ATOM     20  H   UNL     1      -1.754  -7.812   1.950  0.00  0.00    +0.118 HD
ATOM     21  H   UNL     1      -2.027  -9.141   2.858  0.00  0.00    +0.118 HD
ENDBRANCH  16  19
ENDBRANCH  12  13
ENDBRANCH   9  12
ENDBRANCH   3   8
BRANCH   1  22
ATOM     22  C   UNL     1       0.943  -9.733  -1.417  0.00  0.00    +0.145 C 
BRANCH  22  23
ATOM     23  N   UNL     1       1.700 -10.700  -0.579  0.00  0.00    -0.308 NA
ATOM     24  H   UNL     1       2.680 -10.674  -0.878  0.00  0.00    +0.122 HD
ATOM     25  C   UNL     1       1.638 -10.382   0.841  0.00  0.00    +0.101 C 
ENDBRANCH  22  23
BRANCH  22  26
ATOM     26  C   UNL     1       0.851 -10.203  -2.889  0.00  0.00    +0.063 C 
BRANCH  26  27
ATOM     27  C   UNL     1       0.046 -11.469  -3.079  0.00  0.00    -0.045 A 
ATOM     28  C   UNL     1       0.682 -12.716  -3.005  0.00  0.00    +0.004 A 
ATOM     29  C   UNL     1      -0.053 -13.897  -3.100  0.00  0.00    +0.000 A 
ATOM     30  C   UNL     1      -1.433 -13.846  -3.278  0.00  0.00    +0.000 A 
ATOM     31  C   UNL     1      -2.074 -12.612  -3.385  0.00  0.00    +0.000 A 
ATOM     32  C   UNL     1      -1.339 -11.427  -3.288  0.00  0.00    +0.004 A 
ENDBRANCH  26  27
ENDBRANCH  22  26
ENDBRANCH   1  22
TORSDOF 8
