REMARK  Name = 
REMARK  13 active torsions:
REMARK  status: ('A' for Active; 'I' for Inactive)
REMARK    1  A    between atoms: C_1  and  C_2
REMARK    2  A    between atoms: C_2  and  C_3
REMARK    3  A    between atoms: C_3  and  N_4
REMARK    4  A    between atoms: N_4  and  C_5
REMARK    5  A    between atoms: N_4  and  C_7
REMARK    6  A    between atoms: C_5  and  C_6
REMARK    7  A    between atoms: C_7  and  C_8
REMARK    8  A    between atoms: C_7  and  C_10
REMARK    9  A    between atoms: C_8  and  C_9
REMARK   10  A    between atoms: C_10  and  O_11
REMARK   11  A    between atoms: N_12  and  C_13
REMARK   12  A    between atoms: C_14  and  C_15
REMARK   13  A    between atoms: C_19  and  C_20
REMARK                            x       y       z     vdW  Elec       q    Type
REMARK                         _______ _______ _______ _____ _____    ______ ____
ROOT
ATOM      1  C   UNL     1       6.568   1.892   1.879  0.00  0.00    +0.205 C 
ATOM      2  N   UNL     1       7.288   2.783   2.480  0.00  0.00    -0.216 NA
ENDROOT
BRANCH   2   3
ATOM      3  C   UNL     1       8.701   2.790   2.510  0.00  0.00    +0.073 A 
ATOM      4  C   UNL     1       9.520   1.679   2.828  0.00  0.00    -0.025 A 
ATOM      5  C   UNL     1       9.010   0.286   3.075  0.00  0.00    +0.046 C 
ATOM      6  C   UNL     1      10.922   1.830   2.902  0.00  0.00    +0.005 A 
ATOM      7  C   UNL     1      11.526   3.065   2.730  0.00  0.00    +0.001 A 
ATOM      8  C   UNL     1      10.735   4.176   2.453  0.00  0.00    +0.005 A 
ATOM      9  C   UNL     1       9.337   4.051   2.340  0.00  0.00    -0.025 A 
ATOM     10  C   UNL     1       8.579   5.324   2.064  0.00  0.00    +0.046 C 
ENDBRANCH   2   3
BRANCH   1  11
ATOM     11  O   UNL     1       7.059   0.806   1.240  0.00  0.00    -0.494 OA
ATOM     12  H   UNL     1       6.306   0.257   0.936  0.00  0.00    +0.293 HD
ENDBRANCH   1  11
BRANCH   1  13
ATOM     13  C   UNL     1       5.030   1.954   1.847  0.00  0.00    +0.142 C 
BRANCH  13  14
ATOM     14  C   UNL     1       4.519   1.586   3.266  0.00  0.00    +0.025 C 
ATOM     15  C   UNL     1       4.917   0.205   3.775  0.00  0.00    +0.006 C 
ENDBRANCH  13  14
BRANCH  13  16
ATOM     16  N   UNL     1       4.495   1.100   0.710  0.00  0.00    -0.292 NA
BRANCH  16  17
ATOM     17  C   UNL     1       4.939   1.609  -0.621  0.00  0.00    +0.082 C 
ATOM     18  C   UNL     1       4.542   3.031  -0.999  0.00  0.00    +0.020 C 
ENDBRANCH  16  17
BRANCH  16  19
ATOM     19  C   UNL     1       3.012   1.005   0.775  0.00  0.00    +0.085 C 
BRANCH  19  21
ATOM     20  C   UNL     1       0.817   0.251  -0.216  0.00  0.00    +0.005 C 
ATOM     21  C   UNL     1       2.334   0.181  -0.335  0.00  0.00    +0.012 C 
ENDBRANCH  19  21
ENDBRANCH  16  19
ENDBRANCH  13  16
ENDBRANCH   1  13
TORSDOF 8
