REMARK  Name = 
REMARK  12 active torsions:
REMARK  status: ('A' for Active; 'I' for Inactive)
REMARK    1  A    between atoms: C_2  and  N_3
REMARK    2  A    between atoms: C_2  and  C_4
REMARK    3  A    between atoms: C_2  and  C_11
REMARK    4  A    between atoms: C_4  and  C_5
REMARK    5  A    between atoms: C_17  and  C_19
REMARK    6  A    between atoms: N_21  and  C_22
REMARK    7  A    between atoms: C_22  and  C_24
REMARK    8  A    between atoms: C_22  and  B_33
REMARK    9  A    between atoms: C_24  and  C_25
REMARK   10  A    between atoms: C_27  and  C_31
REMARK   11  A    between atoms: B_33  and  O_34
REMARK   12  A    between atoms: B_33  and  O_35
REMARK                            x       y       z     vdW  Elec       q    Type
REMARK                         _______ _______ _______ _____ _____    ______ ____
ROOT
ATOM      1  C   UNL     1       4.762  -3.241   2.050  0.00  0.00    +0.000 C 
ATOM      2  N   UNL     1       4.718  -2.690   3.329  0.00  0.00    +0.000 N 
ATOM      3  H   UNL     1       4.553  -1.688   3.356  0.00  0.00    +0.000 HD
ATOM      4  O   UNL     1       4.894  -4.402   1.857  0.00  0.00    +0.000 OA
ENDROOT
BRANCH   1   7
ATOM      5  C   UNL     1       2.756  -1.085   0.908  0.00  0.00    +0.000 C 
ATOM      6  N   UNL     1       4.116  -1.238   0.800  0.00  0.00    +0.000 N 
ATOM      7  C   UNL     1       4.780  -2.520   0.745  0.00  0.00    +0.000 C 
ATOM      8  C   UNL     1       6.274  -2.241   0.511  0.00  0.00    +0.000 C 
ATOM      9  C   UNL     1       6.329  -0.743   0.360  0.00  0.00    +0.000 C 
ATOM     10  C   UNL     1       5.118  -0.241   1.112  0.00  0.00    +0.000 C 
ATOM     11  O   UNL     1       2.276  -0.004   1.219  0.00  0.00    +0.000 OA
BRANCH   5  12
ATOM     12  C   UNL     1       1.797  -2.240   0.765  0.00  0.00    +0.000 C 
BRANCH  12  13
ATOM     13  N   UNL     1       0.667  -1.753  -0.052  0.00  0.00    +0.000 NA
ATOM     14  H   UNL     1       0.960  -1.733  -1.051  0.00  0.00    +0.000 HD
ATOM     15  H   UNL     1      -0.252  -2.242   0.004  0.00  0.00    +0.000 HD
ENDBRANCH  12  13
BRANCH  12  16
ATOM     16  C   UNL     1       1.399  -2.654   2.190  0.00  0.00    +0.000 C 
BRANCH  16  17
ATOM     17  C   UNL     1       0.425  -3.778   2.291  0.00  0.00    +0.000 A 
ATOM     18  C   UNL     1      -0.008  -4.140   3.566  0.00  0.00    +0.000 A 
ATOM     19  C   UNL     1      -1.066  -5.037   3.697  0.00  0.00    +0.000 A 
ATOM     20  C   UNL     1      -1.778  -5.438   2.562  0.00  0.00    +0.000 A 
ATOM     21  C   UNL     1      -1.314  -5.112   1.299  0.00  0.00    +0.000 A 
ATOM     22  C   UNL     1      -0.147  -4.390   1.164  0.00  0.00    +0.000 A 
ENDBRANCH  16  17
ENDBRANCH  12  16
ENDBRANCH   5  12
ENDBRANCH   1   7
BRANCH   2  23
ATOM     23  C   UNL     1       4.792  -3.324   4.694  0.00  0.00    +0.000 C 
BRANCH  23  24
ATOM     24  B   UNL     1       5.862  -2.601   5.742  0.00  0.00    +0.000 B 
BRANCH  24  25
ATOM     25  O   UNL     1       6.013  -3.078   7.139  0.00  0.00    +0.000 OA
ATOM     26  H   UNL     1       5.382  -3.814   7.339  0.00  0.00    +0.000 HD
ENDBRANCH  24  25
BRANCH  24  27
ATOM     27  O   UNL     1       6.791  -1.536   5.348  0.00  0.00    +0.000 OA
ATOM     28  H   UNL     1       6.603  -1.275   4.418  0.00  0.00    +0.000 HD
ENDBRANCH  24  27
ENDBRANCH  23  24
BRANCH  23  29
ATOM     29  C   UNL     1       5.001  -4.880   4.717  0.00  0.00    +0.000 C 
BRANCH  29  30
ATOM     30  C   UNL     1       6.307  -5.325   4.051  0.00  0.00    +0.000 A 
ATOM     31  C   UNL     1       7.559  -4.890   4.473  0.00  0.00    +0.000 A 
ATOM     32  C   UNL     1       8.682  -5.128   3.665  0.00  0.00    +0.000 A 
ATOM     33  C   UNL     1       8.545  -5.744   2.405  0.00  0.00    +0.000 A 
ATOM     34  C   UNL     1       7.297  -6.197   1.993  0.00  0.00    +0.000 A 
ATOM     35  C   UNL     1       6.232  -6.104   2.884  0.00  0.00    +0.000 A 
BRANCH  34  36
ATOM     36  C   UNL     1       7.075  -6.620   0.619  0.00  0.00    +0.000 C 
ATOM     37  N   UNL     1       6.947  -6.952  -0.494  0.00  0.00    +0.000 NA
ENDBRANCH  34  36
ENDBRANCH  29  30
ENDBRANCH  23  29
ENDBRANCH   2  23
TORSDOF 12
