REMARK  Name = 
REMARK  10 active torsions:
REMARK  status: ('A' for Active; 'I' for Inactive)
REMARK    1  A    between atoms: C_1  and  C_2
REMARK    2  A    between atoms: C_2  and  C_3
REMARK    3  A    between atoms: C_8  and  N_9
REMARK    4  A    between atoms: C_10  and  C_11
REMARK    5  A    between atoms: C_12  and  C_13
REMARK    6  A    between atoms: C_13  and  C_14
REMARK    7  A    between atoms: C_16  and  O_17
REMARK    8  A    between atoms: O_17  and  C_18
REMARK    9  A    between atoms: C_21  and  O_22
REMARK   10  A    between atoms: O_22  and  C_23
REMARK                            x       y       z     vdW  Elec       q    Type
REMARK                         _______ _______ _______ _____ _____    ______ ____
ROOT
ATOM      1  C   UNL     1       2.918   0.280  -1.498  0.00  0.00    +0.063 A 
ATOM      2  C   UNL     1       3.349  -0.873  -2.148  0.00  0.00    +0.086 A 
ATOM      3  C   UNL     1       3.840  -0.650  -3.436  0.00  0.00    +0.137 A 
ATOM      4  N   UNL     1       3.884   0.556  -4.031  0.00  0.00    -0.199 NA
ATOM      5  C   UNL     1       3.413   1.588  -3.336  0.00  0.00    +0.215 A 
ATOM      6  N   UNL     1       3.422   2.836  -3.922  0.00  0.00    -0.327 N 
ATOM      7  H   UNL     1       4.139   2.885  -4.630  0.00  0.00    +0.145 HD
ATOM      8  H   UNL     1       3.414   3.553  -3.208  0.00  0.00    +0.145 HD
ATOM      9  N   UNL     1       2.952   1.504  -2.095  0.00  0.00    -0.218 NA
ENDROOT
BRANCH   3  10
ATOM     10  N   UNL     1       4.389  -1.684  -4.208  0.00  0.00    -0.342 N 
ATOM     11  H   UNL     1       3.761  -2.476  -4.272  0.00  0.00    +0.144 HD
ATOM     12  H   UNL     1       4.609  -1.287  -5.118  0.00  0.00    +0.144 HD
ENDBRANCH   3  10
BRANCH   1  14
ATOM     13  C   UNL     1       3.478   0.842   0.889  0.00  0.00    +0.010 C 
ATOM     14  C   UNL     1       2.406   0.356  -0.084  0.00  0.00    +0.053 C 
ENDBRANCH   1  14
BRANCH   2  15
ATOM     15  C   UNL     1       3.297  -2.217  -1.605  0.00  0.00    -0.061 C 
ATOM     16  C   UNL     1       3.252  -3.435  -1.141  0.00  0.00    -0.092 C 
BRANCH  16  17
ATOM     17  C   UNL     1       3.200  -4.855  -0.601  0.00  0.00    +0.128 C 
BRANCH  17  18
ATOM     18  C   UNL     1       2.301  -4.969   0.641  0.00  0.00    +0.009 A 
ATOM     19  C   UNL     1       0.921  -5.255   0.659  0.00  0.00    +0.124 A 
ATOM     20  C   UNL     1       0.271  -5.487   1.890  0.00  0.00    +0.049 A 
ATOM     21  C   UNL     1       0.939  -5.384   3.103  0.00  0.00    +0.049 A 
ATOM     22  C   UNL     1       2.269  -5.009   3.123  0.00  0.00    +0.121 A 
ATOM     23  C   UNL     1       2.943  -4.810   1.906  0.00  0.00    +0.053 A 
BRANCH  19  24
ATOM     24  O   UNL     1       0.017  -5.408  -0.351  0.00  0.00    -0.495 OA
ATOM     25  C   UNL     1       0.281  -4.931  -1.650  0.00  0.00    +0.277 C 
ENDBRANCH  19  24
BRANCH  22  26
ATOM     26  O   UNL     1       2.788  -4.904   4.381  0.00  0.00    -0.495 OA
ATOM     27  C   UNL     1       4.035  -4.243   4.516  0.00  0.00    +0.277 C 
ENDBRANCH  22  26
ENDBRANCH  17  18
ENDBRANCH  16  17
ENDBRANCH   2  15
TORSDOF 7
