REMARK  Name = 
REMARK  6 active torsions:
REMARK  status: ('A' for Active; 'I' for Inactive)
REMARK    1  A    between atoms: C_1  and  C_2
REMARK    2  A    between atoms: C_5  and  C_6
REMARK    3  A    between atoms: C_17  and  C_18
REMARK    4  A    between atoms: C_18  and  C_19
REMARK    5  A    between atoms: C_19  and  C_20
REMARK    6  A    between atoms: C_20  and  O_21
REMARK                            x       y       z     vdW  Elec       q    Type
REMARK                         _______ _______ _______ _____ _____    ______ ____
ROOT
ATOM      1  C   UNL     1       1.083   0.533  -0.057  0.00  0.00    +0.045 C 
ATOM      2  C   UNL     1       2.542   0.230  -0.013  0.00  0.00    -0.029 A 
ATOM      3  C   UNL     1       3.157  -1.068  -0.019  0.00  0.00    -0.019 A 
ATOM      4  C   UNL     1       4.538  -0.876   0.035  0.00  0.00    +0.043 A 
ATOM      5  N   UNL     1       4.757   0.481   0.078  0.00  0.00    -0.361 N 
ATOM      6  H   UNL     1       5.665   0.928   0.152  0.00  0.00    +0.165 HD
ATOM      7  C   UNL     1       3.564   1.151   0.027  0.00  0.00    +0.086 A 
ENDROOT
BRANCH   4   8
ATOM      8  C   UNL     1       5.624  -1.797  -0.027  0.00  0.00    +0.039 C 
ATOM      9  C   UNL     1       6.873  -1.667   0.455  0.00  0.00    +0.048 C 
ATOM     10  C   UNL     1       7.887  -2.735   0.355  0.00  0.00    +0.008 A 
ATOM     11  C   UNL     1       9.028  -2.262   1.008  0.00  0.00    +0.042 A 
ATOM     12  C   UNL     1      10.189  -3.005   1.113  0.00  0.00    +0.024 A 
ATOM     13  C   UNL     1      10.193  -4.276   0.529  0.00  0.00    +0.002 A 
ATOM     14  C   UNL     1       9.050  -4.767  -0.127  0.00  0.00    +0.001 A 
ATOM     15  N   UNL     1       8.810  -0.982   1.503  0.00  0.00    -0.281 N 
ATOM     16  H   UNL     1       9.486  -0.424   2.003  0.00  0.00    +0.155 HD
ATOM     17  C   UNL     1       7.885  -3.995  -0.218  0.00  0.00    +0.010 A 
ATOM     18  C   UNL     1       7.534  -0.531   1.197  0.00  0.00    +0.249 C 
ATOM     19  O   UNL     1       7.076   0.568   1.444  0.00  0.00    -0.270 OA
ENDBRANCH   4   8
BRANCH   3  20
ATOM     20  C   UNL     1       2.403  -2.369  -0.094  0.00  0.00    +0.048 C 
BRANCH  20  21
ATOM     21  C   UNL     1       2.687  -3.373   1.017  0.00  0.00    +0.125 C 
BRANCH  21  22
ATOM     22  C   UNL     1       2.115  -3.077   2.383  0.00  0.00    +0.305 C 
ATOM     23  O   UNL     1       1.642  -3.958   3.092  0.00  0.00    -0.251 OA
BRANCH  22  24
ATOM     24  O   UNL     1       2.235  -1.815   2.830  0.00  0.00    -0.481 OA
ATOM     25  H   UNL     1       2.706  -1.197   2.238  0.00  0.00    +0.295 HD
ENDBRANCH  22  24
ENDBRANCH  21  22
ENDBRANCH  20  21
ENDBRANCH   3  20
TORSDOF 5
