REMARK  Name = 
REMARK  10 active torsions:
REMARK  status: ('A' for Active; 'I' for Inactive)
REMARK    1  A    between atoms: C_2  and  C_3
REMARK    2  A    between atoms: C_3  and  C_4
REMARK    3  A    between atoms: C_7  and  O_8
REMARK    4  A    between atoms: O_8  and  C_9
REMARK    5  A    between atoms: C_9  and  C_10
REMARK    6  A    between atoms: C_10  and  C_11
REMARK    7  A    between atoms: C_15  and  C_16
REMARK    8  A    between atoms: C_17  and  O_18
REMARK    9  A    between atoms: C_19  and  C_20
REMARK   10  A    between atoms: C_21  and  C_22
REMARK                            x       y       z     vdW  Elec       q    Type
REMARK                         _______ _______ _______ _____ _____    ______ ____
ROOT
ATOM      1  C   UNL     1      -3.164  -7.194  -2.674  0.00  0.00    +0.276 C 
ENDROOT
BRANCH   1   2
ATOM      2  C   UNL     1      -2.981  -7.221  -1.141  0.00  0.00    +0.142 C 
ATOM      3  C   UNL     1      -2.584  -5.819  -0.659  0.00  0.00    +0.059 C 
ATOM      4  O   UNL     1      -1.869  -8.093  -0.828  0.00  0.00    -0.482 OA
ATOM      5  C   UNL     1      -2.098  -9.444  -1.000  0.00  0.00    +0.128 A 
ATOM      6  C   UNL     1      -3.396  -9.993  -1.018  0.00  0.00    +0.001 A 
ATOM      7  C   UNL     1      -3.560 -11.368  -1.297  0.00  0.00    -0.002 A 
ATOM      8  C   UNL     1      -2.410 -12.166  -1.467  0.00  0.00    +0.123 A 
ATOM      9  C   UNL     1      -1.110 -11.633  -1.399  0.00  0.00    -0.002 A 
ATOM     10  C   UNL     1       0.090 -12.534  -1.568  0.00  0.00    +0.048 C 
ATOM     11  C   UNL     1      -4.931 -11.986  -1.418  0.00  0.00    +0.048 C 
ATOM     12  C   UNL     1      -4.595  -9.098  -0.795  0.00  0.00    +0.043 C 
ATOM     13  C   UNL     1      -0.952 -10.249  -1.174  0.00  0.00    -0.002 A 
ATOM     14  C   UNL     1       0.407  -9.593  -1.141  0.00  0.00    +0.048 C 
ATOM     15  C   UNL     1      -4.206  -7.693  -0.363  0.00  0.00    +0.056 C 
BRANCH   8  16
ATOM     16  O   UNL     1      -2.515 -13.512  -1.715  0.00  0.00    -0.506 OA
ATOM     17  H   UNL     1      -3.434 -13.801  -1.621  0.00  0.00    +0.292 HD
ENDBRANCH   8  16
ENDBRANCH   1   2
BRANCH   1  18
ATOM     18  O   UNL     1      -4.269  -6.402  -3.126  0.00  0.00    -0.488 OA
BRANCH  18  22
ATOM     19  C   UNL     1      -4.780  -6.228  -7.290  0.00  0.00    -0.046 A 
ATOM     20  C   UNL     1      -5.592  -5.491  -6.416  0.00  0.00    +0.007 A 
ATOM     21  C   UNL     1      -5.408  -5.578  -5.027  0.00  0.00    +0.046 A 
ATOM     22  C   UNL     1      -4.412  -6.399  -4.497  0.00  0.00    +0.121 A 
ATOM     23  C   UNL     1      -3.622  -7.147  -5.374  0.00  0.00    +0.046 A 
ATOM     24  C   UNL     1      -3.794  -7.056  -6.750  0.00  0.00    +0.007 A 
BRANCH  19  25
ATOM     25  C   UNL     1      -4.916  -6.113  -8.790  0.00  0.00    +0.059 C 
BRANCH  25  26
ATOM     26  C   UNL     1      -5.071  -7.458  -9.501  0.00  0.00    +0.146 C 
ATOM     27  C   UNL     1      -5.076  -7.326 -11.007  0.00  0.00    +0.234 C 
ATOM     28  O   UNL     1      -4.476  -6.482 -11.655  0.00  0.00    -0.274 OA
ATOM     29  N   UNL     1      -5.826  -8.316 -11.570  0.00  0.00    -0.246 N 
ATOM     30  H   UNL     1      -5.917  -8.381 -12.573  0.00  0.00    +0.158 HD
ATOM     31  C   UNL     1      -6.786  -8.879 -10.795  0.00  0.00    +0.279 C 
ATOM     32  O   UNL     1      -7.682  -9.599 -11.194  0.00  0.00    -0.263 OA
ATOM     33  S   UNL     1      -6.621  -8.348  -9.138  0.00  0.00    -0.054 S 
ENDBRANCH  25  26
ENDBRANCH  19  25
ENDBRANCH  18  22
ENDBRANCH   1  18
TORSDOF 6
