REMARK  Name = 
REMARK  7 active torsions:
REMARK  status: ('A' for Active; 'I' for Inactive)
REMARK    1  A    between atoms: C_2  and  C_3
REMARK    2  A    between atoms: C_2  and  O_4
REMARK    3  A    between atoms: C_2  and  C_5
REMARK    4  A    between atoms: C_5  and  C_6
REMARK    5  A    between atoms: C_6  and  C_8
REMARK    6  A    between atoms: C_6  and  C_14
REMARK    7  A    between atoms: C_15  and  O_16
REMARK                            x       y       z     vdW  Elec       q    Type
REMARK                         _______ _______ _______ _____ _____    ______ ____
ROOT
ATOM      1  C   UNL     1       4.448  -1.872   2.214  0.00  0.00    +0.086 A 
ATOM      2  C   UNL     1       4.895  -3.204   1.696  0.00  0.00    +0.345 A 
ATOM      3  O   UNL     1       5.083  -3.411   0.501  0.00  0.00    -0.245 OA
ATOM      4  O   UNL     1       5.059  -4.231   2.615  0.00  0.00    -0.422 OA
ATOM      5  C   UNL     1       5.303  -3.929   3.961  0.00  0.00    +0.143 A 
ATOM      6  C   UNL     1       5.114  -2.641   4.441  0.00  0.00    +0.059 A 
ATOM      7  C   UNL     1       5.487  -2.371   5.764  0.00  0.00    +0.015 A 
ATOM      8  C   UNL     1       6.007  -3.381   6.580  0.00  0.00    +0.001 A 
ATOM      9  C   UNL     1       6.145  -4.678   6.086  0.00  0.00    +0.004 A 
ATOM     10  C   UNL     1       5.791  -4.958   4.768  0.00  0.00    +0.047 A 
ATOM     11  C   UNL     1       4.551  -1.634   3.539  0.00  0.00    +0.138 A 
ENDROOT
BRANCH  11  12
ATOM     12  O   UNL     1       4.171  -0.469   4.171  0.00  0.00    -0.506 OA
ATOM     13  H   UNL     1       3.922   0.206   3.520  0.00  0.00    +0.292 HD
ENDBRANCH  11  12
BRANCH   1  14
ATOM     14  C   UNL     1       3.974  -0.893   1.129  0.00  0.00    +0.062 C 
BRANCH  14  15
ATOM     15  C   UNL     1       4.564   0.529   1.298  0.00  0.00    -0.040 A 
ATOM     16  C   UNL     1       5.946   0.688   1.527  0.00  0.00    +0.004 A 
ATOM     17  C   UNL     1       6.505   1.953   1.735  0.00  0.00    +0.000 A 
ATOM     18  C   UNL     1       5.704   3.089   1.684  0.00  0.00    +0.000 A 
ATOM     19  C   UNL     1       4.346   2.962   1.423  0.00  0.00    +0.000 A 
ATOM     20  C   UNL     1       3.781   1.698   1.231  0.00  0.00    +0.004 A 
ENDBRANCH  14  15
BRANCH  14  21
ATOM     21  C   UNL     1       2.423  -0.884   0.992  0.00  0.00    +0.044 C 
BRANCH  21  22
ATOM     22  C   UNL     1       1.726  -2.228   0.756  0.00  0.00    +0.112 C 
ATOM     23  C   UNL     1       0.218  -2.030   0.622  0.00  0.00    +0.037 C 
BRANCH  22  24
ATOM     24  O   UNL     1       2.220  -2.836  -0.428  0.00  0.00    -0.392 OA
ATOM     25  H   UNL     1       1.741  -2.486  -1.197  0.00  0.00    +0.210 HD
ENDBRANCH  22  24
ENDBRANCH  21  22
ENDBRANCH  14  21
ENDBRANCH   1  14
TORSDOF 6
