REMARK  Name = 
REMARK  6 active torsions:
REMARK  status: ('A' for Active; 'I' for Inactive)
REMARK    1  A    between atoms: C_5  and  C_6
REMARK    2  A    between atoms: C_7  and  S_8
REMARK    3  A    between atoms: S_8  and  N_11
REMARK    4  A    between atoms: N_14  and  C_15
REMARK    5  A    between atoms: C_15  and  C_16
REMARK    6  A    between atoms: N_19  and  C_22
REMARK                            x       y       z     vdW  Elec       q    Type
REMARK                         _______ _______ _______ _____ _____    ______ ____
ROOT
ATOM      1  N   UNL     1      10.527  -2.155  -0.926  0.00  0.00    -0.167 NA
ATOM      2  C   UNL     1      10.260  -3.588  -1.243  0.00  0.00    +0.205 C 
ATOM      3  C   UNL     1      10.168  -4.612  -0.117  0.00  0.00    +0.231 C 
ATOM      4  O   UNL     1      10.077  -5.815  -0.375  0.00  0.00    -0.274 OA
ATOM      5  N   UNL     1      10.317  -4.147   1.188  0.00  0.00    -0.299 N 
ATOM      6  C   UNL     1      10.140  -2.722   1.436  0.00  0.00    +0.125 C 
ATOM      7  C   UNL     1      10.970  -1.903   0.464  0.00  0.00    +0.129 C 
ENDROOT
BRANCH   1   8
ATOM      8  S   UNL     1       9.448  -1.029  -1.606  0.00  0.00    +0.055 S 
ATOM      9  O   UNL     1       8.120  -1.518  -1.326  0.00  0.00    -0.153 OA
ATOM     10  O   UNL     1       9.858   0.281  -1.145  0.00  0.00    -0.153 OA
BRANCH   8  12
ATOM     11  C   UNL     1      11.010  -0.968  -3.752  0.00  0.00    +0.028 C 
ATOM     12  C   UNL     1       9.750  -1.127  -3.313  0.00  0.00    +0.153 C 
BRANCH  11  17
ATOM     13 CL   UNL     1      13.151  -1.944  -9.258  0.00  0.00    -0.084 Cl
ATOM     14  C   UNL     1      12.489  -1.618  -7.705  0.00  0.00    +0.041 A 
ATOM     15  C   UNL     1      11.376  -2.329  -7.266  0.00  0.00    +0.020 A 
ATOM     16  C   UNL     1      10.860  -2.097  -5.988  0.00  0.00    +0.009 A 
ATOM     17  C   UNL     1      11.448  -1.145  -5.142  0.00  0.00    -0.024 A 
ATOM     18  C   UNL     1      12.564  -0.432  -5.602  0.00  0.00    +0.009 A 
ATOM     19  C   UNL     1      13.079  -0.663  -6.882  0.00  0.00    +0.020 A 
ENDBRANCH  11  17
ENDBRANCH   8  12
ENDBRANCH   1   8
BRANCH   5  20
ATOM     20  C   UNL     1      11.171  -4.933   2.078  0.00  0.00    +0.111 C 
BRANCH  20  21
ATOM     21  C   UNL     1      10.699  -5.032   3.539  0.00  0.00    +0.009 C 
ATOM     22  C   UNL     1      11.715  -5.830   4.384  0.00  0.00    +0.024 C 
ATOM     23  C   UNL     1      11.733  -7.320   4.029  0.00  0.00    +0.105 C 
ATOM     24  N   UNL     1      10.368  -7.850   4.082  0.00  0.00    -0.330 N 
ATOM     25  C   UNL     1       9.366  -7.171   3.254  0.00  0.00    +0.105 C 
ATOM     26  C   UNL     1       9.322  -5.697   3.657  0.00  0.00    +0.024 C 
BRANCH  24  27
ATOM     27  C   UNL     1      10.071  -9.040   4.723  0.00  0.00    +0.033 A 
ATOM     28  C   UNL     1      10.708  -9.412   5.911  0.00  0.00    +0.043 A 
ATOM     29  C   UNL     1      10.326 -10.576   6.567  0.00  0.00    +0.112 A 
ATOM     30  N   UNL     1       9.362 -11.406   6.128  0.00  0.00    -0.263 NA
ATOM     31  C   UNL     1       8.762 -11.053   4.976  0.00  0.00    +0.112 A 
ATOM     32  C   UNL     1       9.081  -9.911   4.255  0.00  0.00    +0.043 A 
ENDBRANCH  24  27
ENDBRANCH  20  21
ENDBRANCH   5  20
TORSDOF 6
