REMARK  Name = 
REMARK  5 active torsions:
REMARK  status: ('A' for Active; 'I' for Inactive)
REMARK    1  A    between atoms: C_1  and  C_2
REMARK    2  A    between atoms: C_2  and  C_3
REMARK    3  A    between atoms: C_6  and  N_7
REMARK    4  A    between atoms: N_7  and  S_8
REMARK    5  A    between atoms: S_8  and  O_9
REMARK                            x       y       z     vdW  Elec       q    Type
REMARK                         _______ _______ _______ _____ _____    ______ ____
ROOT
ATOM      1  C   UNL     1       2.851   0.902  -1.118  0.00  0.00    -0.048 A 
ATOM      2  C   UNL     1       3.183   0.275  -2.327  0.00  0.00    +0.005 A 
ATOM      3  C   UNL     1       3.397   1.030  -3.482  0.00  0.00    +0.025 A 
ATOM      4  C   UNL     1       3.268   2.417  -3.432  0.00  0.00    +0.050 A 
ATOM      5  C   UNL     1       3.013   3.057  -2.221  0.00  0.00    +0.025 A 
ATOM      6  C   UNL     1       2.795   2.301  -1.068  0.00  0.00    +0.005 A 
ENDROOT
BRANCH   1   8
ATOM      7  C   UNL     1       0.973  -0.253   0.044  0.00  0.00    +0.009 C 
ATOM      8  C   UNL     1       2.459   0.082   0.086  0.00  0.00    +0.032 C 
ENDBRANCH   1   8
BRANCH   4   9
ATOM      9  N   UNL     1       3.393   3.207  -4.612  0.00  0.00    -0.197 N 
ATOM     10  H   UNL     1       2.955   2.793  -5.434  0.00  0.00    +0.176 HD
BRANCH   9  11
ATOM     11  S   UNL     1       4.930   3.736  -5.034  0.00  0.00    +0.164 S 
ATOM     12  O   UNL     1       4.773   4.589  -6.187  0.00  0.00    -0.127 OA
ATOM     13  O   UNL     1       5.813   2.595  -5.053  0.00  0.00    -0.127 OA
BRANCH  11  14
ATOM     14  O   UNL     1       5.382   4.638  -3.787  0.00  0.00    -0.238 OA
ATOM     15  H   UNL     1       5.867   4.056  -3.168  0.00  0.00    +0.246 HD
ENDBRANCH  11  14
ENDBRANCH   9  11
ENDBRANCH   4   9
TORSDOF 4
