REMARK  Name = 
REMARK  7 active torsions:
REMARK  status: ('A' for Active; 'I' for Inactive)
REMARK    1  A    between atoms: C_4  and  C_6
REMARK    2  A    between atoms: C_6  and  O_7
REMARK    3  A    between atoms: C_8  and  O_10
REMARK    4  A    between atoms: C_11  and  O_13
REMARK    5  A    between atoms: C_17  and  C_18
REMARK    6  A    between atoms: C_18  and  C_19
REMARK    7  A    between atoms: C_19  and  C_20
REMARK                            x       y       z     vdW  Elec       q    Type
REMARK                         _______ _______ _______ _____ _____    ______ ____
ROOT
ATOM      1  C   UNL     1       2.175   0.090   0.079  0.00  0.00    +0.209 C 
ATOM      2  S   UNL     1       2.762   1.782   0.327  0.00  0.00    -0.077 S 
ATOM      3  C   UNL     1       3.896   1.246   1.534  0.00  0.00    +0.072 C 
ATOM      4  N   UNL     1       3.820   0.025   1.954  0.00  0.00    -0.272 NA
ATOM      5  C   UNL     1       2.633  -0.634   1.357  0.00  0.00    +0.176 C 
ATOM      6  C   UNL     1       2.880  -2.145   1.187  0.00  0.00    +0.173 C 
ATOM      7  C   UNL     1       3.358  -2.538  -0.217  0.00  0.00    +0.176 C 
ATOM      8  C   UNL     1       2.523  -1.836  -1.302  0.00  0.00    +0.176 C 
ATOM      9  O   UNL     1       2.659  -0.420  -1.161  0.00  0.00    -0.355 OA
ENDROOT
BRANCH   6  10
ATOM     10  O   UNL     1       1.654  -2.819   1.532  0.00  0.00    -0.387 OA
ATOM     11  H   UNL     1       1.537  -3.599   0.958  0.00  0.00    +0.210 HD
ENDBRANCH   6  10
BRANCH   7  12
ATOM     12  O   UNL     1       4.742  -2.194  -0.362  0.00  0.00    -0.387 OA
ATOM     13  H   UNL     1       4.948  -2.104  -1.309  0.00  0.00    +0.210 HD
ENDBRANCH   7  12
BRANCH   3  14
ATOM     14  C   UNL     1       4.879   2.243   2.084  0.00  0.00    +0.062 C 
BRANCH  14  15
ATOM     15  C   UNL     1       6.318   1.736   2.059  0.00  0.00    +0.003 C 
ATOM     16  C   UNL     1       6.849   1.566   0.646  0.00  0.00    +0.004 C 
ENDBRANCH  14  15
ENDBRANCH   3  14
BRANCH   8  17
ATOM     17  C   UNL     1       1.054  -2.292  -1.369  0.00  0.00    +0.190 C 
BRANCH  17  18
ATOM     18  O   UNL     1       0.960  -3.711  -1.408  0.00  0.00    -0.392 OA
ATOM     19  H   UNL     1       1.054  -3.986  -2.338  0.00  0.00    +0.210 HD
ENDBRANCH  17  18
ENDBRANCH   8  17
TORSDOF 6
