REMARK  Name = 
REMARK  15 active torsions:
REMARK  status: ('A' for Active; 'I' for Inactive)
REMARK    1  A    between atoms: O_1  and  C_2
REMARK    2  A    between atoms: C_2  and  C_3
REMARK    3  A    between atoms: C_3  and  O_4
REMARK    4  A    between atoms: O_4  and  C_5
REMARK    5  A    between atoms: C_5  and  O_6
REMARK    6  A    between atoms: O_6  and  C_7
REMARK    7  A    between atoms: C_7  and  C_8
REMARK    8  A    between atoms: C_11  and  C_12
REMARK    9  A    between atoms: C_12  and  C_13
REMARK   10  A    between atoms: C_13  and  C_14
REMARK   11  A    between atoms: C_14  and  C_15
REMARK   12  A    between atoms: C_15  and  C_16
REMARK   13  A    between atoms: C_16  and  O_17
REMARK   14  A    between atoms: O_17  and  C_18
REMARK   15  A    between atoms: C_22  and  C_26
REMARK                            x       y       z     vdW  Elec       q    Type
REMARK                         _______ _______ _______ _____ _____    ______ ____
ROOT
ATOM      1  C   UNL     1      12.454  -1.254  -3.206  0.00  0.00    +0.004 C 
ENDROOT
BRANCH   1   2
ATOM      2  C   UNL     1      11.219  -0.351  -3.216  0.00  0.00    +0.008 C 
BRANCH   2   3
ATOM      3  C   UNL     1      11.549   1.138  -3.229  0.00  0.00    +0.077 C 
BRANCH   3   6
ATOM      4  C   UNL     1       8.392   2.987  -2.927  0.00  0.00    +0.109 A 
ATOM      5  C   UNL     1       9.468   2.386  -2.235  0.00  0.00    +0.073 A 
ATOM      6  C   UNL     1      10.284   1.912  -3.228  0.00  0.00    +0.138 A 
ATOM      7  O   UNL     1       9.727   2.185  -4.439  0.00  0.00    -0.359 OA
ATOM      8  N   UNL     1       8.531   2.860  -4.253  0.00  0.00    -0.081 NA
BRANCH   4   9
ATOM      9  C   UNL     1       7.229   3.696  -2.330  0.00  0.00    +0.221 C 
BRANCH   9  10
ATOM     10  O   UNL     1       7.690   4.756  -1.488  0.00  0.00    -0.348 OA
BRANCH  10  11
ATOM     11  C   UNL     1       6.632   5.382  -0.785  0.00  0.00    +0.323 C 
BRANCH  11  12
ATOM     12  O   UNL     1       5.958   4.491   0.095  0.00  0.00    -0.352 OA
BRANCH  12  13
ATOM     13  C   UNL     1       6.832   3.979   1.101  0.00  0.00    +0.190 C 
BRANCH  13  14
ATOM     14  C   UNL     1       6.060   2.993   1.968  0.00  0.00    +0.184 C 
BRANCH  14  15
ATOM     15  O   UNL     1       6.920   2.429   2.948  0.00  0.00    -0.393 OA
ATOM     16  H   UNL     1       6.382   1.812   3.473  0.00  0.00    +0.209 HD
ENDBRANCH  14  15
ENDBRANCH  13  14
ENDBRANCH  12  13
ENDBRANCH  11  12
ENDBRANCH  10  11
ENDBRANCH   9  10
ENDBRANCH   4   9
ENDBRANCH   3   6
ENDBRANCH   2   3
ENDBRANCH   1   2
BRANCH   1  17
ATOM     17  C   UNL     1      12.077  -2.743  -3.273  0.00  0.00    +0.041 C 
BRANCH  17  18
ATOM     18  C   UNL     1      11.292  -3.040  -4.549  0.00  0.00    +0.229 C 
BRANCH  18  19
ATOM     19  O   UNL     1      10.985  -4.414  -4.687  0.00  0.00    -0.489 OA
BRANCH  19  20
ATOM     20  C   UNL     1      10.172  -4.793  -5.734  0.00  0.00    +0.157 A 
ATOM     21  C   UNL     1       9.796  -6.154  -5.691  0.00  0.00    +0.085 A 
ATOM     22 CL   UNL     1      10.293  -7.188  -4.388  0.00  0.00    -0.080 Cl
ATOM     23  C   UNL     1       9.005  -6.732  -6.688  0.00  0.00    +0.037 A 
ATOM     24  C   UNL     1       8.564  -5.959  -7.756  0.00  0.00    +0.039 A 
ATOM     25  C   UNL     1       8.906  -4.610  -7.815  0.00  0.00    +0.037 A 
ATOM     26  C   UNL     1       9.700  -4.023  -6.820  0.00  0.00    +0.085 A 
ATOM     27 CL   UNL     1      10.005  -2.341  -7.116  0.00  0.00    -0.080 Cl
BRANCH  24  28
ATOM     28  C   UNL     1       7.756  -6.523  -8.846  0.00  0.00    +0.218 C 
ATOM     29  O   UNL     1       7.495  -7.843  -8.727  0.00  0.00    -0.474 OA
ATOM     30  C   UNL     1       6.929  -8.200  -9.980  0.00  0.00    +0.254 C 
ATOM     31  C   UNL     1       6.520  -6.882 -10.592  0.00  0.00    +0.186 C 
ATOM     32  N   UNL     1       7.306  -5.872  -9.873  0.00  0.00    -0.247 NA
ENDBRANCH  24  28
ENDBRANCH  19  20
ENDBRANCH  18  19
ENDBRANCH  17  18
ENDBRANCH   1  17
TORSDOF 15
