REMARK  Name = 
REMARK  6 active torsions:
REMARK  status: ('A' for Active; 'I' for Inactive)
REMARK    1  A    between atoms: C_2  and  O_3
REMARK    2  A    between atoms: C_2  and  C_7
REMARK    3  A    between atoms: C_2  and  C_23
REMARK    4  A    between atoms: O_3  and  C_4
REMARK    5  A    between atoms: C_4  and  C_5
REMARK    6  A    between atoms: N_9  and  C_10
REMARK                            x       y       z     vdW  Elec       q    Type
REMARK                         _______ _______ _______ _____ _____    ______ ____
ROOT
ATOM      1  C   UNL     1       2.813   0.921   0.908  0.00  0.00    +0.263 C 
ATOM      2  N   UNL     1       2.220   2.162   1.133  0.00  0.00    -0.282 N 
ATOM      3  H   UNL     1       1.557   2.454   0.427  0.00  0.00    +0.155 HD
ATOM      4  O   UNL     1       3.925   0.612   1.334  0.00  0.00    -0.271 OA
ENDROOT
BRANCH   2   5
ATOM      5  C   UNL     1       2.764   3.147   1.973  0.00  0.00    +0.045 A 
ATOM      6  C   UNL     1       3.211   2.910   3.288  0.00  0.00    +0.060 A 
ATOM      7  C   UNL     1       2.952   1.646   4.007  0.00  0.00    +0.250 C 
ATOM      8  C   UNL     1       3.788   1.393   5.250  0.00  0.00    +0.291 C 
ATOM      9  N   UNL     1       4.082   2.522   5.966  0.00  0.00    -0.246 N 
ATOM     10  H   UNL     1       4.572   2.378   6.838  0.00  0.00    +0.158 HD
ATOM     11  C   UNL     1       4.224   3.770   5.419  0.00  0.00    +0.251 C 
ATOM     12  O   UNL     1       4.746   4.683   6.049  0.00  0.00    -0.270 OA
ATOM     13  O   UNL     1       4.169   0.277   5.561  0.00  0.00    -0.266 OA
ATOM     14  O   UNL     1       2.026   0.895   3.729  0.00  0.00    -0.282 OA
ATOM     15  C   UNL     1       3.778   3.961   4.019  0.00  0.00    +0.050 A 
ATOM     16  C   UNL     1       3.898   5.237   3.450  0.00  0.00    +0.014 A 
ATOM     17  C   UNL     1       3.418   5.476   2.165  0.00  0.00    +0.003 A 
ATOM     18  C   UNL     1       2.834   4.440   1.440  0.00  0.00    +0.024 A 
ENDBRANCH   2   5
BRANCH   1  19
ATOM     19  C   UNL     1       1.987   0.017  -0.038  0.00  0.00    +0.292 C 
BRANCH  19  20
ATOM     20  C   UNL     1       2.312   0.314  -1.495  0.00  0.00    +0.003 A 
ATOM     21  C   UNL     1       1.637   1.322  -2.204  0.00  0.00    +0.027 A 
ATOM     22  C   UNL     1       1.966   1.602  -3.531  0.00  0.00    +0.041 A 
ATOM     23 CL   UNL     1       1.135   2.860  -4.360  0.00  0.00    -0.084 Cl
ATOM     24  C   UNL     1       2.962   0.880  -4.179  0.00  0.00    +0.020 A 
ATOM     25  C   UNL     1       3.635  -0.131  -3.493  0.00  0.00    +0.002 A 
ATOM     26  C   UNL     1       3.318  -0.409  -2.159  0.00  0.00    +0.008 A 
ENDBRANCH  19  20
BRANCH  19  27
ATOM     27  O   UNL     1       0.604   0.309   0.260  0.00  0.00    -0.447 OA
BRANCH  27  28
ATOM     28  C   UNL     1      -0.307  -0.630  -0.087  0.00  0.00    +0.305 C 
ATOM     29  O   UNL     1      -0.073  -1.653  -0.712  0.00  0.00    -0.251 OA
ATOM     30  C   UNL     1      -1.663  -0.236   0.420  0.00  0.00    +0.136 C 
ENDBRANCH  27  28
ENDBRANCH  19  27
ENDBRANCH   1  19
TORSDOF 5
