REMARK  Name = 
REMARK  11 active torsions:
REMARK  status: ('A' for Active; 'I' for Inactive)
REMARK    1  A    between atoms: C_1  and  C_2
REMARK    2  A    between atoms: C_4  and  N_5
REMARK    3  A    between atoms: C_6  and  C_8
REMARK    4  A    between atoms: C_8  and  C_9
REMARK    5  A    between atoms: C_12  and  O_13
REMARK    6  A    between atoms: O_13  and  C_14
REMARK    7  A    between atoms: C_14  and  C_15
REMARK    8  A    between atoms: C_14  and  C_16
REMARK    9  A    between atoms: C_14  and  C_17
REMARK   10  A    between atoms: C_17  and  O_18
REMARK   11  A    between atoms: C_23  and  C_24
REMARK                            x       y       z     vdW  Elec       q    Type
REMARK                         _______ _______ _______ _____ _____    ______ ____
ROOT
ATOM      1  C   UNL     1       8.871   3.648  -0.163  0.00  0.00    -0.038 A 
ATOM      2  C   UNL     1       9.624   3.900   0.984  0.00  0.00    +0.007 A 
ATOM      3  C   UNL     1      11.013   3.767   0.968  0.00  0.00    +0.046 A 
ATOM      4  C   UNL     1      11.685   3.344  -0.175  0.00  0.00    +0.122 A 
ATOM      5  C   UNL     1      10.930   3.083  -1.325  0.00  0.00    +0.046 A 
ATOM      6  C   UNL     1       9.537   3.246  -1.326  0.00  0.00    +0.007 A 
ENDROOT
BRANCH   1   7
ATOM      7  C   UNL     1       7.375   3.806  -0.115  0.00  0.00    +0.131 C 
BRANCH   7  10
ATOM      8  N   UNL     1       7.209   1.399   0.473  0.00  0.00    -0.285 N 
ATOM      9  H   UNL     1       8.219   1.435   0.543  0.00  0.00    +0.155 HD
ATOM     10  C   UNL     1       6.538   2.591   0.247  0.00  0.00    +0.222 C 
ATOM     11  O   UNL     1       5.318   2.741   0.342  0.00  0.00    -0.275 OA
BRANCH   8  18
ATOM     12  C   UNL     1       3.239  -1.612   0.599  0.00  0.00    +0.044 C 
ATOM     13  C   UNL     1       4.694  -1.351   0.861  0.00  0.00    -0.048 A 
ATOM     14  C   UNL     1       5.500  -2.341   1.429  0.00  0.00    +0.006 A 
ATOM     15  C   UNL     1       6.862  -2.105   1.661  0.00  0.00    -0.048 A 
ATOM     16  C   UNL     1       7.695  -3.179   2.297  0.00  0.00    +0.044 C 
ATOM     17  C   UNL     1       7.414  -0.862   1.306  0.00  0.00    +0.026 A 
ATOM     18  C   UNL     1       6.610   0.152   0.769  0.00  0.00    +0.034 A 
ATOM     19  C   UNL     1       5.257  -0.112   0.539  0.00  0.00    +0.026 A 
ENDBRANCH   8  18
ENDBRANCH   7  10
ENDBRANCH   1   7
BRANCH   4  20
ATOM     20  O   UNL     1      13.028   3.096  -0.271  0.00  0.00    -0.475 OA
BRANCH  20  21
ATOM     21  C   UNL     1      14.003   3.830   0.511  0.00  0.00    +0.200 C 
ATOM     22  C   UNL     1      14.080   3.373   1.976  0.00  0.00    +0.067 C 
ATOM     23  C   UNL     1      13.872   5.343   0.305  0.00  0.00    +0.067 C 
BRANCH  21  24
ATOM     24  C   UNL     1      15.389   3.452  -0.064  0.00  0.00    +0.348 C 
ATOM     25  O   UNL     1      16.456   3.895   0.342  0.00  0.00    -0.247 OA
BRANCH  24  26
ATOM     26  O   UNL     1      15.325   2.543  -1.071  0.00  0.00    -0.478 OA
ATOM     27  H   UNL     1      14.389   2.311  -1.241  0.00  0.00    +0.295 HD
ENDBRANCH  24  26
ENDBRANCH  21  24
ENDBRANCH  20  21
ENDBRANCH   4  20
TORSDOF 7
