REMARK  Name = 
REMARK  7 active torsions:
REMARK  status: ('A' for Active; 'I' for Inactive)
REMARK    1  A    between atoms: C_1  and  O_2
REMARK    2  A    between atoms: O_2  and  C_3
REMARK    3  A    between atoms: C_4  and  C_5
REMARK    4  A    between atoms: N_6  and  N_7
REMARK    5  A    between atoms: C_8  and  C_10
REMARK    6  A    between atoms: C_12  and  O_13
REMARK    7  A    between atoms: C_14  and  O_15
REMARK                            x       y       z     vdW  Elec       q    Type
REMARK                         _______ _______ _______ _____ _____    ______ ____
ROOT
ATOM      1  C   UNL     1       0.859   2.408  -0.356  0.00  0.00    +0.142 C 
ATOM      2  N   UNL     1       0.427   1.669  -1.324  0.00  0.00    -0.187 NA
ENDROOT
BRANCH   1  12
ATOM      3  C   UNL     1       2.957   1.106   0.327  0.00  0.00    +0.129 A 
ATOM      4  C   UNL     1       4.305   1.154   0.710  0.00  0.00    +0.047 A 
ATOM      5  C   UNL     1       4.982   2.351   0.888  0.00  0.00    +0.012 A 
ATOM      6  C   UNL     1       4.325   3.562   0.707  0.00  0.00    -0.017 A 
ATOM      7  C   UNL     1       2.954   3.587   0.331  0.00  0.00    -0.006 A 
ATOM      8  C   UNL     1       2.381   4.883   0.193  0.00  0.00    +0.009 A 
ATOM      9  C   UNL     1       3.120   6.057   0.391  0.00  0.00    +0.001 A 
ATOM     10  C   UNL     1       4.463   5.990   0.730  0.00  0.00    +0.001 A 
ATOM     11  C   UNL     1       5.058   4.746   0.895  0.00  0.00    +0.008 A 
ATOM     12  C   UNL     1       2.275   2.325   0.108  0.00  0.00    +0.044 A 
BRANCH   3  14
ATOM     13  C   UNL     1       1.372  -0.663  -0.262  0.00  0.00    +0.277 C 
ATOM     14  O   UNL     1       2.568  -0.201   0.325  0.00  0.00    -0.494 OA
ENDBRANCH   3  14
ENDBRANCH   1  12
BRANCH   2  15
ATOM     15  N   UNL     1      -0.880   1.752  -1.717  0.00  0.00    -0.203 N 
ATOM     16  H   UNL     1      -1.447   2.524  -1.398  0.00  0.00    +0.178 HD
ATOM     17  C   UNL     1      -1.353   0.738  -2.552  0.00  0.00    +0.263 C 
ATOM     18  O   UNL     1      -0.692  -0.262  -2.840  0.00  0.00    -0.268 OA
BRANCH  17  19
ATOM     19  C   UNL     1      -2.729   0.840  -3.130  0.00  0.00    +0.042 A 
ATOM     20  C   UNL     1      -3.617   1.898  -2.884  0.00  0.00    +0.017 A 
ATOM     21  C   UNL     1      -4.877   1.919  -3.500  0.00  0.00    +0.050 A 
ATOM     22  C   UNL     1      -5.243   0.888  -4.357  0.00  0.00    +0.158 A 
ATOM     23  C   UNL     1      -4.377  -0.167  -4.605  0.00  0.00    +0.159 A 
ATOM     24  C   UNL     1      -3.128  -0.200  -3.999  0.00  0.00    +0.062 A 
BRANCH  22  25
ATOM     25  O   UNL     1      -6.464   0.918  -4.961  0.00  0.00    -0.503 OA
ATOM     26  H   UNL     1      -6.490   0.113  -5.513  0.00  0.00    +0.292 HD
ENDBRANCH  22  25
BRANCH  23  27
ATOM     27  O   UNL     1      -4.793  -1.151  -5.458  0.00  0.00    -0.503 OA
ATOM     28  H   UNL     1      -4.079  -1.808  -5.537  0.00  0.00    +0.292 HD
ENDBRANCH  23  27
ENDBRANCH  17  19
ENDBRANCH   2  15
TORSDOF 6
