REMARK  Name = 
REMARK  5 active torsions:
REMARK  status: ('A' for Active; 'I' for Inactive)
REMARK    1  A    between atoms: C_6  and  C_7
REMARK    2  A    between atoms: N_9  and  C_10
REMARK    3  A    between atoms: C_10  and  C_11
REMARK    4  A    between atoms: C_21  and  O_22
REMARK    5  A    between atoms: C_27  and  C_29
REMARK                            x       y       z     vdW  Elec       q    Type
REMARK                         _______ _______ _______ _____ _____    ______ ____
ROOT
ATOM      1  C   UNL     1       2.316  -0.073  -0.093  0.00  0.00    +0.228 C 
ATOM      2  O   UNL     1       3.035   0.643   0.907  0.00  0.00    -0.357 OA
ATOM      3  C   UNL     1       3.133  -0.009   2.154  0.00  0.00    +0.164 C 
ATOM      4  C   UNL     1       3.981  -1.239   1.966  0.00  0.00    +0.050 C 
ATOM      5  C   UNL     1       3.382  -2.178   0.919  0.00  0.00    +0.078 C 
ATOM      6  C   UNL     1       2.640  -3.326   1.621  0.00  0.00    +0.028 C 
ATOM      7  N   UNL     1       2.640  -1.493  -0.152  0.00  0.00    -0.266 N 
ATOM      8  C   UNL     1       2.199  -2.239  -1.251  0.00  0.00    +0.269 C 
ATOM      9  O   UNL     1       2.058  -3.457  -1.186  0.00  0.00    -0.268 OA
ATOM     10  C   UNL     1       2.038  -1.483  -2.568  0.00  0.00    +0.151 A 
ATOM     11  N   UNL     1       2.221  -0.086  -2.608  0.00  0.00    -0.335 N 
ATOM     12  C   UNL     1       2.300   0.552  -3.843  0.00  0.00    +0.103 A 
ATOM     13  C   UNL     1       2.162  -0.046  -5.036  0.00  0.00    +0.103 A 
ATOM     14  C   UNL     1       1.876  -1.491  -5.013  0.00  0.00    +0.236 A 
ATOM     15  O   UNL     1       1.711  -2.151  -6.042  0.00  0.00    -0.283 OA
ATOM     16  C   UNL     1       1.839  -2.201  -3.696  0.00  0.00    +0.194 A 
ATOM     17  C   UNL     1       2.657   0.641  -1.409  0.00  0.00    +0.173 C 
ENDROOT
BRANCH  13  18
ATOM     18  C   UNL     1       2.326   0.777  -6.267  0.00  0.00    +0.250 C 
ATOM     19  N   UNL     1       2.194   0.089  -7.455  0.00  0.00    -0.307 N 
ATOM     20  H   UNL     1       1.976  -0.904  -7.430  0.00  0.00    +0.149 HD
ATOM     21  O   UNL     1       2.572   1.976  -6.221  0.00  0.00    -0.270 OA
BRANCH  19  22
ATOM     22  C   UNL     1       2.195   0.745  -8.746  0.00  0.00    +0.142 C 
BRANCH  22  23
ATOM     23  C   UNL     1       3.298   0.237  -9.628  0.00  0.00    +0.005 A 
ATOM     24  C   UNL     1       3.061  -0.794 -10.545  0.00  0.00    +0.131 A 
ATOM     25  F   UNL     1       1.845  -1.355 -10.617  0.00  0.00    -0.205 F 
ATOM     26  C   UNL     1       4.057  -1.247 -11.403  0.00  0.00    +0.077 A 
ATOM     27  C   UNL     1       5.315  -0.665 -11.336  0.00  0.00    +0.126 A 
ATOM     28  F   UNL     1       6.278  -1.078 -12.171  0.00  0.00    -0.205 F 
ATOM     29  C   UNL     1       5.591   0.345 -10.420  0.00  0.00    +0.039 A 
ATOM     30  C   UNL     1       4.584   0.791  -9.559  0.00  0.00    +0.011 A 
ENDBRANCH  22  23
ENDBRANCH  19  22
ENDBRANCH  13  18
BRANCH  16  31
ATOM     31  O   UNL     1       1.664  -3.572  -3.762  0.00  0.00    -0.502 OA
ATOM     32  H   UNL     1       1.610  -3.795  -4.714  0.00  0.00    +0.292 HD
ENDBRANCH  16  31
TORSDOF 4
