REMARK  Name = 
REMARK  11 active torsions:
REMARK  status: ('A' for Active; 'I' for Inactive)
REMARK    1  A    between atoms: C_2  and  N_3
REMARK    2  A    between atoms: N_3  and  C_4
REMARK    3  A    between atoms: C_4  and  C_5
REMARK    4  A    between atoms: C_5  and  C_7
REMARK    5  A    between atoms: C_10  and  C_13
REMARK    6  A    between atoms: C_24  and  O_26
REMARK    7  A    between atoms: O_26  and  C_27
REMARK    8  A    between atoms: C_27  and  C_29
REMARK    9  A    between atoms: C_29  and  C_30
REMARK   10  A    between atoms: C_29  and  C_32
REMARK   11  A    between atoms: C_30  and  O_31
REMARK                            x       y       z     vdW  Elec       q    Type
REMARK                         _______ _______ _______ _____ _____    ______ ____
ROOT
ATOM      1 BR   UNL     1      -1.749   1.774   1.901  0.00  0.00    +0.000 Br
ENDROOT
TORSDOF 0
REMARK  Name = 
REMARK  11 active torsions:
REMARK  status: ('A' for Active; 'I' for Inactive)
REMARK    1  A    between atoms: C_2  and  N_3
REMARK    2  A    between atoms: N_3  and  C_4
REMARK    3  A    between atoms: C_4  and  C_5
REMARK    4  A    between atoms: C_5  and  C_7
REMARK    5  A    between atoms: C_10  and  C_13
REMARK    6  A    between atoms: C_24  and  O_26
REMARK    7  A    between atoms: O_26  and  C_27
REMARK    8  A    between atoms: C_27  and  C_29
REMARK    9  A    between atoms: C_29  and  C_30
REMARK   10  A    between atoms: C_29  and  C_32
REMARK   11  A    between atoms: C_30  and  O_31
REMARK                            x       y       z     vdW  Elec       q    Type
REMARK                         _______ _______ _______ _____ _____    ______ ____
ROOT
ATOM      1  C   UNL     1       1.304   0.117  -0.643  0.00  0.00    +0.193 C 
ATOM      2  N   UNL     1       2.805   0.099  -0.095  0.00  0.00    +0.251 N 
ATOM      3  C   UNL     1       3.217   1.493   0.792  0.00  0.00    +0.070 C 
ATOM      4  C   UNL     1       4.799   1.256   0.975  0.00  0.00    +0.099 C 
ATOM      5  C   UNL     1       5.125  -0.013   1.827  0.00  0.00    +0.187 C 
ATOM      6  C   UNL     1       4.348  -1.227   1.313  0.00  0.00    +0.099 C 
ATOM      7  C   UNL     1       1.981   1.297   1.725  0.00  0.00    +0.060 C 
ATOM      8  C   UNL     1       2.030  -0.206   2.124  0.00  0.00    +0.060 C 
ATOM      9  C   UNL     1       2.859  -0.934   1.017  0.00  0.00    +0.070 C 
ENDROOT
BRANCH   5  10
ATOM     10  O   UNL     1       4.694   0.036   3.216  0.00  0.00    -0.460 OA
BRANCH  10  11
ATOM     11  C   UNL     1       5.321   0.721   4.203  0.00  0.00    +0.317 C 
ATOM     12  O   UNL     1       6.198   1.551   4.019  0.00  0.00    -0.250 OA
BRANCH  11  13
ATOM     13  C   UNL     1       4.795   0.233   5.558  0.00  0.00    +0.153 C 
BRANCH  13  14
ATOM     14  C   UNL     1       3.416   0.775   5.895  0.00  0.00    -0.032 A 
ATOM     15  C   UNL     1       3.165   2.152   5.974  0.00  0.00    +0.004 A 
ATOM     16  C   UNL     1       1.874   2.631   6.214  0.00  0.00    +0.000 A 
ATOM     17  C   UNL     1       0.816   1.744   6.380  0.00  0.00    +0.000 A 
ATOM     18  C   UNL     1       1.051   0.374   6.350  0.00  0.00    +0.000 A 
ATOM     19  C   UNL     1       2.341  -0.107   6.116  0.00  0.00    +0.004 A 
ENDBRANCH  13  14
BRANCH  13  20
ATOM     20  C   UNL     1       5.842   0.421   6.664  0.00  0.00    +0.175 C 
BRANCH  20  21
ATOM     21  O   UNL     1       6.167   1.787   6.901  0.00  0.00    -0.394 OA
ATOM     22  H   UNL     1       6.540   2.148   6.073  0.00  0.00    +0.209 HD
ENDBRANCH  20  21
ENDBRANCH  13  20
ENDBRANCH  11  13
ENDBRANCH  10  11
ENDBRANCH   5  10
BRANCH   2  23
ATOM     23  C   UNL     1       3.632  -0.100  -1.400  0.00  0.00    +0.215 C 
BRANCH  23  24
ATOM     24  C   UNL     1       3.362  -1.373  -2.211  0.00  0.00    +0.207 C 
ATOM     25  O   UNL     1       2.917  -2.403  -1.711  0.00  0.00    -0.286 OA
BRANCH  24  26
ATOM     26  C   UNL     1       3.671  -1.333  -3.667  0.00  0.00    +0.023 A 
ATOM     27  C   UNL     1       2.971  -2.165  -4.546  0.00  0.00    +0.012 A 
ATOM     28  C   UNL     1       3.247  -2.129  -5.921  0.00  0.00    +0.009 A 
ATOM     29  C   UNL     1       4.216  -1.259  -6.455  0.00  0.00    -0.018 A 
ATOM     30  C   UNL     1       4.907  -0.438  -5.546  0.00  0.00    +0.009 A 
ATOM     31  C   UNL     1       4.650  -0.480  -4.173  0.00  0.00    +0.012 A 
BRANCH  29  32
ATOM     32  C   UNL     1       4.488  -1.169  -7.909  0.00  0.00    -0.018 A 
ATOM     33  C   UNL     1       3.465  -1.333  -8.859  0.00  0.00    +0.008 A 
ATOM     34  C   UNL     1       3.708  -1.179 -10.228  0.00  0.00    +0.001 A 
ATOM     35  C   UNL     1       4.981  -0.847 -10.680  0.00  0.00    +0.000 A 
ATOM     36  C   UNL     1       6.017  -0.697  -9.766  0.00  0.00    +0.001 A 
ATOM     37  C   UNL     1       5.775  -0.869  -8.399  0.00  0.00    +0.008 A 
ENDBRANCH  29  32
ENDBRANCH  24  26
ENDBRANCH  23  24
ENDBRANCH   2  23
TORSDOF 10
