REMARK  Name = 
REMARK  5 active torsions:
REMARK  status: ('A' for Active; 'I' for Inactive)
REMARK    1  A    between atoms: C_2  and  C_3
REMARK    2  A    between atoms: C_2  and  C_5
REMARK    3  A    between atoms: C_2  and  C_12
REMARK    4  A    between atoms: C_3  and  S_4
REMARK    5  A    between atoms: C_5  and  C_6
REMARK                            x       y       z     vdW  Elec       q    Type
REMARK                         _______ _______ _______ _____ _____    ______ ____
ROOT
ATOM      1  C   UNL     1       2.011  -0.008   0.094  0.00  0.00    +0.069 C 
ENDROOT
BRANCH   1   2
ATOM      2  C   UNL     1       2.426   1.301   0.727  0.00  0.00    +0.113 A 
ATOM      3  N   UNL     1       2.657   2.446   0.005  0.00  0.00    -0.341 N 
ATOM      4  H   UNL     1       2.578   2.530  -0.999  0.00  0.00    +0.167 HD
ATOM      5  C   UNL     1       3.032   3.436   0.875  0.00  0.00    +0.078 A 
ATOM      6  C   UNL     1       3.393   4.760   0.680  0.00  0.00    +0.097 A 
ATOM      7  C   UNL     1       3.690   5.448   1.844  0.00  0.00    +0.309 A 
ATOM      8  N   UNL     1       3.628   4.849   3.043  0.00  0.00    -0.215 N 
ATOM      9  C   UNL     1       3.294   3.570   3.268  0.00  0.00    +0.337 A 
ATOM     10  H   UNL     1       3.857   5.415   3.862  0.00  0.00    +0.452 HD
ATOM     11  C   UNL     1       2.982   2.840   2.125  0.00  0.00    +0.152 A 
ATOM     12  N   UNL     1       2.605   1.526   2.016  0.00  0.00    -0.226 NA
ENDBRANCH   1   2
BRANCH   1  13
ATOM     13  C   UNL     1       0.477  -0.161   0.107  0.00  0.00    +0.077 C 
BRANCH  13  14
ATOM     14  S   UNL     1      -0.421   1.037  -0.942  0.00  0.00    -0.178 S 
ATOM     15  H   UNL     1      -0.926   0.143  -1.808  0.00  0.00    +0.102 HD
ENDBRANCH  13  14
ENDBRANCH   1  13
BRANCH   1  16
ATOM     16  C   UNL     1       2.613  -0.236  -1.315  0.00  0.00    +0.047 C 
BRANCH  16  17
ATOM     17  C   UNL     1       4.126  -0.236  -1.343  0.00  0.00    -0.047 A 
ATOM     18  C   UNL     1       4.830   0.753  -2.047  0.00  0.00    +0.003 A 
ATOM     19  C   UNL     1       6.226   0.768  -2.044  0.00  0.00    +0.000 A 
ATOM     20  C   UNL     1       6.932  -0.213  -1.352  0.00  0.00    +0.000 A 
ATOM     21  C   UNL     1       6.244  -1.213  -0.669  0.00  0.00    +0.000 A 
ATOM     22  C   UNL     1       4.849  -1.226  -0.665  0.00  0.00    +0.003 A 
ENDBRANCH  16  17
ENDBRANCH   1  16
TORSDOF 5
