REMARK  Name = 
REMARK  8 active torsions:
REMARK  status: ('A' for Active; 'I' for Inactive)
REMARK    1  A    between atoms: N_1  and  C_2
REMARK    2  A    between atoms: C_7  and  C_11
REMARK    3  A    between atoms: C_13  and  C_14
REMARK    4  A    between atoms: C_14  and  C_15
REMARK    5  A    between atoms: C_15  and  O_16
REMARK    6  A    between atoms: C_19  and  C_22
REMARK    7  A    between atoms: C_20  and  O_21
REMARK    8  A    between atoms: C_26  and  N_28
REMARK                            x       y       z     vdW  Elec       q    Type
REMARK                         _______ _______ _______ _____ _____    ______ ____
ROOT
ATOM      1  C   UNL     1       7.937   2.403  -0.727  0.00  0.00    +0.041 A 
ATOM      2  C   UNL     1       9.059   1.671  -1.204  0.00  0.00    +0.134 A 
ATOM      3  C   UNL     1      10.248   2.296  -1.659  0.00  0.00    +0.025 A 
ATOM      4  C   UNL     1      10.262   3.709  -1.610  0.00  0.00    +0.016 A 
ATOM      5  C   UNL     1       9.143   4.474  -1.232  0.00  0.00    -0.035 A 
ATOM      6  C   UNL     1       7.997   3.806  -0.781  0.00  0.00    +0.017 A 
ENDROOT
BRANCH   1  13
ATOM      7  C   UNL     1       2.524   0.042   0.063  0.00  0.00    +0.117 A 
ATOM      8  N   UNL     1       3.138   1.235   0.132  0.00  0.00    -0.231 NA
ATOM      9  C   UNL     1       4.488   1.199   0.036  0.00  0.00    +0.091 A 
ATOM     10  C   UNL     1       5.213   0.021  -0.077  0.00  0.00    +0.066 A 
ATOM     11  N   UNL     1       6.531   0.379  -0.200  0.00  0.00    -0.353 N 
ATOM     12  H   UNL     1       7.299  -0.265  -0.337  0.00  0.00    +0.166 HD
ATOM     13  C   UNL     1       6.669   1.752  -0.320  0.00  0.00    +0.053 A 
ATOM     14  C   UNL     1       4.581  -1.218  -0.092  0.00  0.00    +0.031 A 
ATOM     15  C   UNL     1       5.410   2.273  -0.044  0.00  0.00    +0.056 A 
ATOM     16  C   UNL     1       3.188  -1.178  -0.046  0.00  0.00    +0.045 A 
BRANCH   7  17
ATOM     17  N   UNL     1       1.127   0.066   0.003  0.00  0.00    -0.343 N 
ATOM     18  H   UNL     1       0.835   1.027   0.160  0.00  0.00    +0.144 HD
ATOM     19  H   UNL     1       0.702  -0.584   0.650  0.00  0.00    +0.144 HD
ENDBRANCH   7  17
ENDBRANCH   1  13
BRANCH   3  20
ATOM     20  C   UNL     1      11.408   1.565  -2.276  0.00  0.00    -0.008 A 
ATOM     21  C   UNL     1      11.786   0.260  -1.905  0.00  0.00    +0.093 A 
ATOM     22  C   UNL     1      12.798  -0.433  -2.603  0.00  0.00    +0.274 A 
ATOM     23  C   UNL     1      13.517   0.186  -3.628  0.00  0.00    +0.084 A 
ATOM     24  C   UNL     1      13.204   1.493  -3.972  0.00  0.00    +0.007 A 
ATOM     25  C   UNL     1      12.156   2.157  -3.321  0.00  0.00    +0.009 A 
BRANCH  22  26
ATOM     26  N   UNL     1      13.065  -1.845  -2.295  0.00  0.00    +0.080 N 
ATOM     27  O   UNL     1      12.392  -2.375  -1.400  0.00  0.00    +0.041 OA
ATOM     28  O   UNL     1      13.924  -2.431  -2.969  0.00  0.00    -0.576 OA
ENDBRANCH  22  26
ENDBRANCH   3  20
BRANCH   2  29
ATOM     29  O   UNL     1       8.917   0.302  -1.305  0.00  0.00    -0.505 OA
ATOM     30  H   UNL     1       9.242   0.056  -2.191  0.00  0.00    +0.292 HD
ENDBRANCH   2  29
BRANCH   5  31
ATOM     31  C   UNL     1       9.131   5.969  -1.503  0.00  0.00    +0.155 C 
BRANCH  31  32
ATOM     32  C   UNL     1       8.898   6.943  -0.372  0.00  0.00    +0.309 C 
ATOM     33  O   UNL     1       8.808   8.153  -0.573  0.00  0.00    -0.251 OA
BRANCH  32  34
ATOM     34  O   UNL     1       8.815   6.438   0.871  0.00  0.00    -0.480 OA
ATOM     35  H   UNL     1       8.915   5.471   0.937  0.00  0.00    +0.295 HD
ENDBRANCH  32  34
ENDBRANCH  31  32
ENDBRANCH   5  31
TORSDOF 8
