REMARK  Name = 
REMARK  4 active torsions:
REMARK  status: ('A' for Active; 'I' for Inactive)
REMARK    1  A    between atoms: C_2  and  C_4
REMARK    2  A    between atoms: N_6  and  C_16
REMARK    3  A    between atoms: C_19  and  S_22
REMARK    4  A    between atoms: S_22  and  N_23
REMARK                            x       y       z     vdW  Elec       q    Type
REMARK                         _______ _______ _______ _____ _____    ______ ____
ROOT
ATOM      1  C   UNL     1       3.096  -1.068   1.062  0.00  0.00    +0.155 A 
ATOM      2  C   UNL     1       2.822  -2.436   0.823  0.00  0.00    +0.033 A 
ATOM      3  C   UNL     1       2.030  -3.189  -0.079  0.00  0.00    +0.014 A 
ATOM      4  C   UNL     1       1.933  -4.597   0.021  0.00  0.00    +0.028 A 
ATOM      5  C   UNL     1       2.600  -5.201   1.085  0.00  0.00    +0.068 A 
ATOM      6  N   UNL     1       2.701  -6.485   1.541  0.00  0.00    -0.277 N 
ATOM      7  H   UNL     1       2.308  -7.323   1.127  0.00  0.00    +0.189 HD
ATOM      8  N   UNL     1       3.378  -6.600   2.705  0.00  0.00    -0.181 NA
ATOM      9  C   UNL     1       3.742  -5.343   2.995  0.00  0.00    +0.144 A 
ATOM     10  C   UNL     1       3.353  -4.456   1.970  0.00  0.00    +0.045 A 
ATOM     11  C   UNL     1       3.522  -3.105   1.813  0.00  0.00    +0.086 A 
ATOM     12  N   UNL     1       4.271  -2.190   2.492  0.00  0.00    -0.231 N 
ATOM     13  N   UNL     1       3.921  -0.912   2.121  0.00  0.00    -0.161 NA
ENDROOT
BRANCH  12  14
ATOM     14  C   UNL     1       5.361  -2.349   3.404  0.00  0.00    +0.066 A 
ATOM     15  C   UNL     1       6.176  -3.487   3.377  0.00  0.00    +0.030 A 
ATOM     16  C   UNL     1       7.182  -3.667   4.332  0.00  0.00    +0.030 A 
ATOM     17  C   UNL     1       7.416  -2.675   5.283  0.00  0.00    +0.105 A 
ATOM     18  C   UNL     1       6.682  -1.487   5.261  0.00  0.00    +0.030 A 
ATOM     19  C   UNL     1       5.656  -1.323   4.320  0.00  0.00    +0.030 A 
BRANCH  17  20
ATOM     20  S   UNL     1       8.707  -2.899   6.475  0.00  0.00    +0.056 S 
ATOM     21  O   UNL     1       9.240  -1.606   6.838  0.00  0.00    -0.153 OA
ATOM     22  O   UNL     1       9.549  -3.999   6.068  0.00  0.00    -0.153 OA
BRANCH  20  23
ATOM     23  N   UNL     1       7.853  -3.443   7.815  0.00  0.00    -0.204 NA
ATOM     24  H   UNL     1       7.958  -2.781   8.584  0.00  0.00    +0.144 HD
ATOM     25  H   UNL     1       8.146  -4.392   8.050  0.00  0.00    +0.144 HD
ENDBRANCH  20  23
ENDBRANCH  17  20
ENDBRANCH  12  14
BRANCH   1  29
ATOM     26  N   UNL     1       3.028   1.292   0.670  0.00  0.00    -0.324 N 
ATOM     27  H   UNL     1       3.723   1.358   1.404  0.00  0.00    +0.145 HD
ATOM     28  H   UNL     1       2.709   2.111   0.175  0.00  0.00    +0.145 HD
ATOM     29  C   UNL     1       2.549   0.067   0.305  0.00  0.00    +0.262 C 
ATOM     30  O   UNL     1       1.730  -0.043  -0.604  0.00  0.00    -0.269 OA
ENDBRANCH   1  29
TORSDOF 4
