REMARK  Name = 
REMARK  7 active torsions:
REMARK  status: ('A' for Active; 'I' for Inactive)
REMARK    1  A    between atoms: C_1  and  O_2
REMARK    2  A    between atoms: O_2  and  C_3
REMARK    3  A    between atoms: C_6  and  N_7
REMARK    4  A    between atoms: N_7  and  C_8
REMARK    5  A    between atoms: C_9  and  C_22
REMARK    6  A    between atoms: N_12  and  C_13
REMARK    7  A    between atoms: C_13  and  C_14
REMARK                            x       y       z     vdW  Elec       q    Type
REMARK                         _______ _______ _______ _____ _____    ______ ____
ROOT
ATOM      1  C   UNL     1       4.127  -5.752  -2.238  0.00  0.00    +0.107 C 
ATOM      2  C   UNL     1       4.833  -7.003  -2.655  0.00  0.00    +0.268 C 
ATOM      3  O   UNL     1       5.975  -7.013  -3.095  0.00  0.00    -0.268 OA
ATOM      4  N   UNL     1       4.000  -8.040  -2.434  0.00  0.00    -0.229 N 
ATOM      5  C   UNL     1       2.915  -7.597  -1.763  0.00  0.00    +0.256 C 
ATOM      6  O   UNL     1       2.152  -8.268  -1.087  0.00  0.00    -0.269 OA
ATOM      7  C   UNL     1       2.884  -6.122  -1.887  0.00  0.00    +0.071 C 
ENDROOT
BRANCH   7   8
ATOM      8  C   UNL     1       1.692  -5.284  -1.699  0.00  0.00    -0.011 A 
ATOM      9  C   UNL     1       0.652  -5.672  -0.843  0.00  0.00    +0.009 A 
ATOM     10  C   UNL     1      -0.566  -4.988  -0.836  0.00  0.00    +0.001 A 
ATOM     11  C   UNL     1      -0.759  -3.894  -1.675  0.00  0.00    +0.000 A 
ATOM     12  C   UNL     1       0.275  -3.469  -2.504  0.00  0.00    +0.001 A 
ATOM     13  C   UNL     1       1.489  -4.158  -2.515  0.00  0.00    +0.009 A 
ENDBRANCH   7   8
BRANCH   1  14
ATOM     14  N   UNL     1       4.759  -4.524  -2.364  0.00  0.00    -0.310 N 
ATOM     15  H   UNL     1       5.596  -4.627  -2.948  0.00  0.00    +0.152 HD
BRANCH  14  19
ATOM     16  C   UNL     1       5.998  -2.193   0.972  0.00  0.00    +0.120 A 
ATOM     17  C   UNL     1       6.483  -1.931  -0.307  0.00  0.00    +0.047 A 
ATOM     18  C   UNL     1       6.036  -2.689  -1.398  0.00  0.00    +0.027 A 
ATOM     19  C   UNL     1       5.117  -3.736  -1.229  0.00  0.00    +0.032 A 
ATOM     20  C   UNL     1       4.557  -3.905   0.044  0.00  0.00    +0.027 A 
ATOM     21  C   UNL     1       4.998  -3.146   1.135  0.00  0.00    +0.047 A 
BRANCH  16  23
ATOM     22  C   UNL     1       7.794  -1.269   2.167  0.00  0.00    +0.277 C 
ATOM     23  O   UNL     1       6.394  -1.532   2.102  0.00  0.00    -0.495 OA
ENDBRANCH  16  23
ENDBRANCH  14  19
ENDBRANCH   1  14
BRANCH   4  24
ATOM     24  C   UNL     1       4.340  -9.437  -2.569  0.00  0.00    +0.152 C 
BRANCH  24  25
ATOM     25  C   UNL     1       3.553 -10.140  -3.661  0.00  0.00    -0.030 A 
ATOM     26  C   UNL     1       2.346 -10.793  -3.367  0.00  0.00    +0.005 A 
ATOM     27  C   UNL     1       1.660 -11.510  -4.357  0.00  0.00    +0.000 A 
ATOM     28  C   UNL     1       2.175 -11.561  -5.657  0.00  0.00    +0.000 A 
ATOM     29  C   UNL     1       3.350 -10.880  -5.964  0.00  0.00    +0.000 A 
ATOM     30  C   UNL     1       4.031 -10.170  -4.973  0.00  0.00    +0.005 A 
ENDBRANCH  24  25
ENDBRANCH   4  24
TORSDOF 6
