REMARK  Name = 
REMARK  6 active torsions:
REMARK  status: ('A' for Active; 'I' for Inactive)
REMARK    1  A    between atoms: C_1  and  C_2
REMARK    2  A    between atoms: C_2  and  C_3
REMARK    3  A    between atoms: C_2  and  C_4
REMARK    4  A    between atoms: C_7  and  O_8
REMARK    5  A    between atoms: O_8  and  C_9
REMARK    6  A    between atoms: C_9  and  C_10
REMARK                            x       y       z     vdW  Elec       q    Type
REMARK                         _______ _______ _______ _____ _____    ______ ____
ROOT
ATOM      1  C   UNL     1       2.901   0.956  -1.271  0.00  0.00    +0.112 A 
ATOM      2  N   UNL     1       2.770   2.324  -1.197  0.00  0.00    -0.326 N 
ATOM      3  H   UNL     1       2.408   2.857  -0.420  0.00  0.00    +0.169 HD
ATOM      4  C   UNL     1       3.157   2.845  -2.397  0.00  0.00    +0.167 A 
ATOM      5  C   UNL     1       3.538   1.759  -3.159  0.00  0.00    +0.169 A 
ATOM      6  C   UNL     1       3.963   2.051  -4.453  0.00  0.00    +0.248 A 
ATOM      7  N   UNL     1       3.957   3.337  -4.888  0.00  0.00    -0.178 NA
ATOM      8  C   UNL     1       3.523   4.293  -4.044  0.00  0.00    +0.218 A 
ATOM      9  N   UNL     1       3.479   5.582  -4.535  0.00  0.00    -0.327 N 
ATOM     10  H   UNL     1       3.517   6.254  -3.782  0.00  0.00    +0.145 HD
ATOM     11  H   UNL     1       4.120   5.695  -5.306  0.00  0.00    +0.145 HD
ATOM     12  N   UNL     1       3.133   4.130  -2.768  0.00  0.00    -0.195 NA
ATOM     13  N   UNL     1       3.392   0.593  -2.443  0.00  0.00    -0.225 NA
ENDROOT
BRANCH   1  15
ATOM     14  C   UNL     1       1.355  -0.877  -0.648  0.00  0.00    +0.015 C 
ATOM     15  C   UNL     1       2.483   0.036  -0.165  0.00  0.00    +0.049 C 
ATOM     16  C   UNL     1       3.668  -0.792   0.330  0.00  0.00    +0.015 C 
ENDBRANCH   1  15
BRANCH   6  17
ATOM     17  O   UNL     1       4.254   1.023  -5.323  0.00  0.00    -0.475 OA
BRANCH  17  18
ATOM     18  C   UNL     1       5.267   1.339  -6.275  0.00  0.00    +0.234 C 
BRANCH  18  19
ATOM     19  C   UNL     1       5.502   0.085  -7.146  0.00  0.00    +0.027 C 
ATOM     20  C   UNL     1       5.876  -1.164  -6.326  0.00  0.00    +0.007 C 
ATOM     21  C   UNL     1       7.303  -1.124  -5.783  0.00  0.00    +0.000 C 
ATOM     22  C   UNL     1       8.327  -0.839  -6.877  0.00  0.00    +0.000 C 
ATOM     23  C   UNL     1       7.973   0.398  -7.696  0.00  0.00    +0.000 C 
ATOM     24  C   UNL     1       6.548   0.332  -8.241  0.00  0.00    +0.007 C 
ENDBRANCH  18  19
ENDBRANCH  17  18
ENDBRANCH   6  17
TORSDOF 4
