REMARK  Name = 
REMARK  6 active torsions:
REMARK  status: ('A' for Active; 'I' for Inactive)
REMARK    1  A    between atoms: C_2  and  C_3
REMARK    2  A    between atoms: C_3  and  N_4
REMARK    3  A    between atoms: C_5  and  O_6
REMARK    4  A    between atoms: C_5  and  C_7
REMARK    5  A    between atoms: C_7  and  C_8
REMARK    6  A    between atoms: C_10  and  C_12
REMARK                            x       y       z     vdW  Elec       q    Type
REMARK                         _______ _______ _______ _____ _____    ______ ____
ROOT
ATOM      1  C   UNL     1       1.840   0.183  -0.052  0.00  0.00    +0.018 C 
ATOM      2  C   UNL     1       2.907   0.850  -0.906  0.00  0.00    +0.025 C 
ATOM      3  C   UNL     1       2.675  -0.638  -0.997  0.00  0.00    +0.014 C 
ENDROOT
BRANCH   2   4
ATOM      4  C   UNL     1       2.533   1.786  -2.029  0.00  0.00    -0.037 A 
ATOM      5  C   UNL     1       1.706   2.905  -1.804  0.00  0.00    +0.004 A 
ATOM      6  C   UNL     1       1.443   3.856  -2.807  0.00  0.00    +0.004 A 
ATOM      7  C   UNL     1       2.008   3.718  -4.072  0.00  0.00    +0.046 A 
ATOM      8  C   UNL     1       2.808   2.620  -4.300  0.00  0.00    +0.124 A 
ATOM      9  O   UNL     1       3.435   2.383  -5.492  0.00  0.00    -0.491 OA
ATOM     10  C   UNL     1       4.163   1.152  -5.292  0.00  0.00    +0.234 C 
ATOM     11  C   UNL     1       3.967   0.638  -3.864  0.00  0.00    +0.080 C 
ATOM     12  C   UNL     1       3.064   1.674  -3.316  0.00  0.00    +0.001 A 
ENDBRANCH   2   4
BRANCH   1  13
ATOM     13  C   UNL     1       2.033   0.124   1.433  0.00  0.00    +0.149 C 
BRANCH  13  14
ATOM     14  N   UNL     1       1.706  -1.208   1.925  0.00  0.00    -0.254 NA
ATOM     15  C   UNL     1       1.793  -1.456   3.179  0.00  0.00    +0.182 C 
BRANCH  15  16
ATOM     16  C   UNL     1       1.500  -2.809   3.767  0.00  0.00    +0.091 C 
ATOM     17  C   UNL     1       2.762  -3.646   3.876  0.00  0.00    +0.013 C 
ENDBRANCH  15  16
BRANCH  15  18
ATOM     18  O   UNL     1       2.167  -0.568   4.120  0.00  0.00    -0.496 OA
ATOM     19  H   UNL     1       2.337   0.309   3.753  0.00  0.00    +0.293 HD
ENDBRANCH  15  18
ENDBRANCH  13  14
ENDBRANCH   1  13
TORSDOF 5
