REMARK  Name = 
REMARK  12 active torsions:
REMARK  status: ('A' for Active; 'I' for Inactive)
REMARK    1  A    between atoms: C_1  and  O_2
REMARK    2  A    between atoms: O_2  and  C_3
REMARK    3  A    between atoms: C_3  and  C_5
REMARK    4  A    between atoms: C_6  and  C_7
REMARK    5  A    between atoms: C_9  and  C_10
REMARK    6  A    between atoms: C_11  and  C_22
REMARK    7  A    between atoms: C_12  and  C_13
REMARK    8  A    between atoms: C_18  and  N_19
REMARK    9  A    between atoms: C_22  and  O_24
REMARK   10  A    between atoms: O_24  and  C_25
REMARK   11  A    between atoms: C_25  and  C_26
REMARK   12  A    between atoms: C_26  and  C_27
REMARK                            x       y       z     vdW  Elec       q    Type
REMARK                         _______ _______ _______ _____ _____    ______ ____
ROOT
ATOM      1  C   UNL     1       4.558  -0.858  -0.981  0.00  0.00    +0.065 C 
ATOM      2  C   UNL     1       5.309  -2.207  -1.129  0.00  0.00    +0.102 C 
ATOM      3  C   UNL     1       6.828  -2.044  -1.385  0.00  0.00    +0.065 C 
ATOM      4  C   UNL     1       7.390  -0.810  -1.407  0.00  0.00    +0.016 C 
ATOM      5  C   UNL     1       8.853  -0.517  -1.644  0.00  0.00    +0.061 C 
ATOM      6  N   UNL     1       6.607   0.307  -1.196  0.00  0.00    -0.321 N 
ATOM      7  H   UNL     1       7.067   1.214  -1.228  0.00  0.00    +0.152 HD
ATOM      8  C   UNL     1       5.233   0.317  -1.035  0.00  0.00    +0.016 C 
ATOM      9  C   UNL     1       4.652   1.710  -0.959  0.00  0.00    +0.061 C 
ENDROOT
BRANCH   2  10
ATOM     10  C   UNL     1       4.654  -3.040  -2.247  0.00  0.00    +0.042 A 
ATOM     11  C   UNL     1       3.928  -4.247  -2.089  0.00  0.00    +0.277 A 
ATOM     12  C   UNL     1       3.260  -4.811  -3.200  0.00  0.00    +0.084 A 
ATOM     13  C   UNL     1       3.329  -4.219  -4.460  0.00  0.00    +0.007 A 
ATOM     14  C   UNL     1       4.081  -3.069  -4.641  0.00  0.00    +0.001 A 
ATOM     15  C   UNL     1       4.731  -2.487  -3.551  0.00  0.00    +0.011 A 
BRANCH  11  16
ATOM     16  N   UNL     1       3.780  -4.982  -0.809  0.00  0.00    +0.080 N 
ATOM     17  O   UNL     1       3.037  -5.977  -0.803  0.00  0.00    +0.041 OA
ATOM     18  O   UNL     1       4.384  -4.588   0.195  0.00  0.00    -0.576 OA
ENDBRANCH  11  16
ENDBRANCH   2  10
BRANCH   1  19
ATOM     19  C   UNL     1       3.070  -0.887  -0.877  0.00  0.00    +0.337 C 
ATOM     20  O   UNL     1       2.326  -0.022  -1.312  0.00  0.00    -0.245 OA
BRANCH  19  22
ATOM     21  C   UNL     1       1.215  -2.148  -0.237  0.00  0.00    +0.280 C 
ATOM     22  O   UNL     1       2.641  -2.023  -0.272  0.00  0.00    -0.465 OA
ENDBRANCH  19  22
ENDBRANCH   1  19
BRANCH   3  23
ATOM     23  C   UNL     1       7.584  -3.320  -1.576  0.00  0.00    +0.338 C 
ATOM     24  O   UNL     1       7.199  -4.403  -1.161  0.00  0.00    -0.245 OA
BRANCH  23  25
ATOM     25  O   UNL     1       8.728  -3.130  -2.276  0.00  0.00    -0.454 OA
BRANCH  25  26
ATOM     26  C   UNL     1       9.547  -4.281  -2.467  0.00  0.00    +0.306 C 
BRANCH  26  27
ATOM     27  C   UNL     1       9.174  -5.107  -3.692  0.00  0.00    +0.167 C 
ATOM     28  O   UNL     1       8.279  -4.777  -4.472  0.00  0.00    -0.294 OA
ATOM     29  C   UNL     1      10.003  -6.341  -3.946  0.00  0.00    +0.089 C 
ENDBRANCH  26  27
ENDBRANCH  25  26
ENDBRANCH  23  25
ENDBRANCH   3  23
TORSDOF 8
