REMARK  Name = 
REMARK  6 active torsions:
REMARK  status: ('A' for Active; 'I' for Inactive)
REMARK    1  A    between atoms: C_1  and  C_2
REMARK    2  A    between atoms: C_2  and  C_3
REMARK    3  A    between atoms: C_2  and  C_6
REMARK    4  A    between atoms: C_3  and  O_4
REMARK    5  A    between atoms: C_9  and  C_10
REMARK    6  A    between atoms: C_10  and  C_11
REMARK                            x       y       z     vdW  Elec       q    Type
REMARK                         _______ _______ _______ _____ _____    ______ ____
ROOT
ATOM      1  C   UNL     1       2.949   1.268   0.514  0.00  0.00    -0.034 A 
ATOM      2  C   UNL     1       4.177   1.200   1.187  0.00  0.00    +0.005 A 
ATOM      3  C   UNL     1       4.647   2.288   1.926  0.00  0.00    +0.004 A 
ATOM      4  C   UNL     1       3.905   3.471   2.000  0.00  0.00    -0.047 A 
ATOM      5  C   UNL     1       2.709   3.563   1.277  0.00  0.00    +0.004 A 
ATOM      6  C   UNL     1       2.232   2.472   0.546  0.00  0.00    +0.005 A 
ENDROOT
BRANCH   1   8
ATOM      7  C   UNL     1       3.054   0.026  -1.654  0.00  0.00    +0.024 C 
ATOM      8  C   UNL     1       2.409   0.081  -0.269  0.00  0.00    +0.124 C 
BRANCH   8   9
ATOM      9  C   UNL     1       2.561  -1.253   0.462  0.00  0.00    +0.312 C 
ATOM     10  O   UNL     1       3.059  -2.260  -0.018  0.00  0.00    -0.250 OA
BRANCH   9  11
ATOM     11  O   UNL     1       2.042  -1.249   1.716  0.00  0.00    -0.480 OA
ATOM     12  H   UNL     1       1.705  -0.374   1.991  0.00  0.00    +0.295 HD
ENDBRANCH   9  11
ENDBRANCH   8   9
ENDBRANCH   1   8
BRANCH   4  13
ATOM     13  C   UNL     1       4.357   4.604   2.895  0.00  0.00    +0.046 C 
BRANCH  13  14
ATOM     14  C   UNL     1       3.374   4.829   4.041  0.00  0.00    +0.060 C 
ATOM     15  C   UNL     1       3.816   5.875   5.039  0.00  0.00    +0.137 C 
ATOM     16  O   UNL     1       4.421   6.899   4.750  0.00  0.00    -0.297 OA
ATOM     17  C   UNL     1       3.390   5.524   6.445  0.00  0.00    +0.074 C 
ATOM     18  C   UNL     1       2.618   4.224   6.239  0.00  0.00    +0.008 C 
ATOM     19  C   UNL     1       3.207   3.623   4.971  0.00  0.00    +0.012 C 
ENDBRANCH  13  14
ENDBRANCH   4  13
TORSDOF 5
