REMARK  Name = 
REMARK  45 active torsions:
REMARK  status: ('A' for Active; 'I' for Inactive)
REMARK    1  A    between atoms: C_1  and  C_2
REMARK    2  A    between atoms: C_2  and  C_3
REMARK    3  A    between atoms: C_3  and  C_4
REMARK    4  A    between atoms: C_4  and  C_5
REMARK    5  A    between atoms: C_5  and  C_6
REMARK    6  A    between atoms: C_6  and  C_7
REMARK    7  A    between atoms: C_7  and  C_8
REMARK    8  A    between atoms: C_8  and  C_9
REMARK    9  A    between atoms: C_9  and  C_10
REMARK   10  A    between atoms: C_10  and  C_11
REMARK   11  A    between atoms: C_11  and  C_12
REMARK   12  A    between atoms: C_12  and  C_13
REMARK   13  A    between atoms: C_13  and  C_14
REMARK   14  A    between atoms: C_14  and  C_15
REMARK   15  A    between atoms: C_15  and  C_16
REMARK   16  A    between atoms: C_16  and  O_18
REMARK   17  A    between atoms: O_18  and  C_19
REMARK   18  A    between atoms: C_19  and  C_20
REMARK   19  A    between atoms: C_20  and  C_22
REMARK   20  A    between atoms: C_20  and  O_34
REMARK   21  A    between atoms: C_22  and  O_23
REMARK   22  A    between atoms: O_23  and  P_24
REMARK   23  A    between atoms: P_24  and  O_27
REMARK   24  A    between atoms: O_27  and  C_28
REMARK   25  A    between atoms: C_28  and  C_29
REMARK   26  A    between atoms: C_29  and  N_30
REMARK   27  A    between atoms: N_30  and  C_31
REMARK   28  A    between atoms: N_30  and  C_32
REMARK   29  A    between atoms: N_30  and  C_33
REMARK   30  A    between atoms: O_34  and  C_35
REMARK   31  A    between atoms: C_35  and  C_37
REMARK   32  A    between atoms: C_37  and  C_38
REMARK   33  A    between atoms: C_38  and  C_39
REMARK   34  A    between atoms: C_39  and  C_40
REMARK   35  A    between atoms: C_40  and  C_41
REMARK   36  A    between atoms: C_41  and  C_42
REMARK   37  A    between atoms: C_42  and  C_43
REMARK   38  A    between atoms: C_43  and  C_44
REMARK   39  A    between atoms: C_44  and  C_45
REMARK   40  A    between atoms: C_45  and  C_46
REMARK   41  A    between atoms: C_46  and  C_47
REMARK   42  A    between atoms: C_47  and  C_48
REMARK   43  A    between atoms: C_48  and  C_49
REMARK   44  A    between atoms: C_49  and  C_50
REMARK   45  A    between atoms: C_50  and  C_51
REMARK                            x       y       z     vdW  Elec       q    Type
REMARK                         _______ _______ _______ _____ _____    ______ ____
ROOT
ATOM      1  C   UNL     1      19.301  -9.290  -8.546  0.00  0.00    +0.240 C 
ENDROOT
BRANCH   1   2
ATOM      2  C   UNL     1      18.827  -8.847  -9.930  0.00  0.00    +0.216 C 
BRANCH   2   3
ATOM      3  O   UNL     1      17.417  -8.828 -10.002  0.00  0.00    -0.324 OA
BRANCH   3   4
ATOM      4  P   UNL     1      16.837  -8.253 -11.527  0.00  0.00    +0.213 P 
ATOM      5  O   UNL     1      17.176  -6.808 -11.166  0.00  0.00    -0.517 OA
ATOM      6  O   UNL     1      15.468  -8.868 -11.234  0.00  0.00    -0.437 OA
BRANCH   4   7
ATOM      7  O   UNL     1      16.257  -7.677 -13.052  0.00  0.00    -0.322 OA
BRANCH   7   8
ATOM      8  C   UNL     1      15.918  -8.762 -13.901  0.00  0.00    +0.218 C 
BRANCH   8   9
ATOM      9  C   UNL     1      15.442  -8.231 -15.239  0.00  0.00    +0.161 C 
BRANCH   9  10
ATOM     10  N   UNL     1      16.502  -7.406 -16.020  0.00  0.00    +0.239 N 
ATOM     11  C   UNL     1      15.863  -6.973 -17.325  0.00  0.00    +0.192 C 
ATOM     12  C   UNL     1      17.741  -8.231 -16.298  0.00  0.00    +0.192 C 
ATOM     13  C   UNL     1      16.895  -6.151 -15.225  0.00  0.00    +0.192 C 
ENDBRANCH   9  10
ENDBRANCH   8   9
ENDBRANCH   7   8
ENDBRANCH   4   7
ENDBRANCH   3   4
ENDBRANCH   2   3
ENDBRANCH   1   2
BRANCH   1  14
ATOM     14  C   UNL     1      18.793 -10.690  -8.166  0.00  0.00    +0.279 C 
BRANCH  14  15
ATOM     15  O   UNL     1      17.373 -10.725  -7.971  0.00  0.00    -0.461 OA
BRANCH  15  16
ATOM     16  C   UNL     1      16.654 -11.414  -8.902  0.00  0.00    +0.307 C 
ATOM     17  O   UNL     1      17.136 -12.106  -9.794  0.00  0.00    -0.251 OA
BRANCH  16  18
ATOM     18  C   UNL     1      15.174 -11.307  -8.625  0.00  0.00    +0.120 C 
BRANCH  18  19
ATOM     19  C   UNL     1      14.642 -12.658  -8.162  0.00  0.00    +0.011 C 
BRANCH  19  20
ATOM     20  C   UNL     1      13.131 -12.645  -7.939  0.00  0.00    +0.001 C 
BRANCH  20  21
ATOM     21  C   UNL     1      12.648 -14.025  -7.491  0.00  0.00    +0.000 C 
BRANCH  21  22
ATOM     22  C   UNL     1      11.139 -14.049  -7.263  0.00  0.00    +0.000 C 
BRANCH  22  23
ATOM     23  C   UNL     1      10.681 -15.436  -6.814  0.00  0.00    +0.000 C 
BRANCH  23  24
ATOM     24  C   UNL     1       9.174 -15.464  -6.582  0.00  0.00    -0.000 C 
BRANCH  24  25
ATOM     25  C   UNL     1       8.715 -16.849  -6.132  0.00  0.00    -0.000 C 
BRANCH  25  26
ATOM     26  C   UNL     1       7.207 -16.870  -5.901  0.00  0.00    -0.000 C 
BRANCH  26  27
ATOM     27  C   UNL     1       6.743 -18.252  -5.450  0.00  0.00    -0.000 C 
BRANCH  27  28
ATOM     28  C   UNL     1       5.235 -18.269  -5.220  0.00  0.00    -0.000 C 
BRANCH  28  29
ATOM     29  C   UNL     1       4.766 -19.650  -4.767  0.00  0.00    -0.000 C 
BRANCH  29  30
ATOM     30  C   UNL     1       3.256 -19.663  -4.539  0.00  0.00    -0.000 C 
BRANCH  30  32
ATOM     31  C   UNL     1       1.278 -21.055  -3.858  0.00  0.00    +0.004 C 
ATOM     32  C   UNL     1       2.780 -21.041  -4.086  0.00  0.00    -0.003 C 
ENDBRANCH  30  32
ENDBRANCH  29  30
ENDBRANCH  28  29
ENDBRANCH  27  28
ENDBRANCH  26  27
ENDBRANCH  25  26
ENDBRANCH  24  25
ENDBRANCH  23  24
ENDBRANCH  22  23
ENDBRANCH  21  22
ENDBRANCH  20  21
ENDBRANCH  19  20
ENDBRANCH  18  19
ENDBRANCH  16  18
ENDBRANCH  15  16
ENDBRANCH  14  15
ENDBRANCH   1  14
BRANCH   1  33
ATOM     33  O   UNL     1      20.750  -9.349  -8.531  0.00  0.00    -0.456 OA
BRANCH  33  34
ATOM     34  C   UNL     1      21.389  -8.158  -8.414  0.00  0.00    +0.308 C 
ATOM     35  O   UNL     1      20.849  -7.064  -8.323  0.00  0.00    -0.251 OA
BRANCH  34  36
ATOM     36  C   UNL     1      22.879  -8.348  -8.360  0.00  0.00    +0.120 C 
BRANCH  36  37
ATOM     37  C   UNL     1      23.376  -7.887  -6.999  0.00  0.00    +0.011 C 
BRANCH  37  38
ATOM     38  C   UNL     1      24.890  -7.996  -6.871  0.00  0.00    +0.001 C 
BRANCH  38  39
ATOM     39  C   UNL     1      25.323  -7.530  -5.484  0.00  0.00    +0.000 C 
BRANCH  39  40
ATOM     40  C   UNL     1      26.832  -7.625  -5.310  0.00  0.00    +0.000 C 
BRANCH  40  41
ATOM     41  C   UNL     1      27.236  -7.161  -3.915  0.00  0.00    +0.000 C 
BRANCH  41  42
ATOM     42  C   UNL     1      28.745  -7.256  -3.733  0.00  0.00    -0.000 C 
BRANCH  42  43
ATOM     43  C   UNL     1      29.153  -6.794  -2.339  0.00  0.00    -0.000 C 
BRANCH  43  44
ATOM     44  C   UNL     1      30.664  -6.897  -2.165  0.00  0.00    -0.000 C 
BRANCH  44  45
ATOM     45  C   UNL     1      31.083  -6.440  -0.772  0.00  0.00    -0.000 C 
BRANCH  45  46
ATOM     46  C   UNL     1      32.595  -6.543  -0.605  0.00  0.00    -0.000 C 
BRANCH  46  47
ATOM     47  C   UNL     1      33.022  -6.086   0.786  0.00  0.00    -0.000 C 
BRANCH  47  48
ATOM     48  C   UNL     1      34.535  -6.188   0.951  0.00  0.00    -0.000 C 
BRANCH  48  49
ATOM     49  C   UNL     1      34.969  -5.733   2.341  0.00  0.00    -0.003 C 
ATOM     50  C   UNL     1      36.476  -5.835   2.505  0.00  0.00    +0.004 C 
ENDBRANCH  48  49
ENDBRANCH  47  48
ENDBRANCH  46  47
ENDBRANCH  45  46
ENDBRANCH  44  45
ENDBRANCH  43  44
ENDBRANCH  42  43
ENDBRANCH  41  42
ENDBRANCH  40  41
ENDBRANCH  39  40
ENDBRANCH  38  39
ENDBRANCH  37  38
ENDBRANCH  36  37
ENDBRANCH  34  36
ENDBRANCH  33  34
ENDBRANCH   1  33
TORSDOF 40
