REMARK  Name = 
REMARK  11 active torsions:
REMARK  status: ('A' for Active; 'I' for Inactive)
REMARK    1  A    between atoms: C_1  and  C_2
REMARK    2  A    between atoms: C_2  and  N_3
REMARK    3  A    between atoms: N_6  and  C_7
REMARK    4  A    between atoms: C_7  and  C_8
REMARK    5  A    between atoms: C_8  and  N_9
REMARK    6  A    between atoms: C_12  and  N_18
REMARK    7  A    between atoms: C_14  and  C_16
REMARK    8  A    between atoms: N_18  and  C_24
REMARK    9  A    between atoms: C_19  and  C_21
REMARK   10  A    between atoms: C_21  and  O_22
REMARK   11  A    between atoms: O_22  and  C_23
REMARK                            x       y       z     vdW  Elec       q    Type
REMARK                         _______ _______ _______ _____ _____    ______ ____
ROOT
ATOM      1  N   UNL     1       1.180  -5.917  -0.436  0.00  0.00    -0.300 NA
ATOM      2  C   UNL     1       0.476  -6.105   0.844  0.00  0.00    +0.089 C 
ATOM      3  C   UNL     1       1.240  -7.010   1.820  0.00  0.00    +0.021 C 
ATOM      4  C   UNL     1       0.788  -6.970   3.280  0.00  0.00    +0.010 C 
ATOM      5  C   UNL     1       1.444  -8.422   1.190  0.00  0.00    +0.087 C 
ATOM      6  C   UNL     1       2.434  -8.108   0.037  0.00  0.00    +0.038 C 
ATOM      7  C   UNL     1       1.815  -7.129  -0.971  0.00  0.00    +0.086 C 
ENDROOT
BRANCH   5   8
ATOM      8  N   UNL     1       0.238  -9.200   0.686  0.00  0.00    -0.264 N 
ATOM      9  C   UNL     1      -1.076  -9.018   1.134  0.00  0.00    +0.246 C 
ATOM     10  O   UNL     1      -1.421  -8.150   1.939  0.00  0.00    -0.273 OA
BRANCH   8  11
ATOM     11  C   UNL     1       0.512 -10.250  -0.253  0.00  0.00    +0.072 A 
ATOM     12  C   UNL     1       1.224 -11.404   0.087  0.00  0.00    +0.145 A 
ATOM     13  F   UNL     1       1.615 -11.620   1.350  0.00  0.00    -0.204 F 
ATOM     14  C   UNL     1       1.511 -12.370  -0.881  0.00  0.00    +0.040 A 
ATOM     15  C   UNL     1       1.124 -12.169  -2.209  0.00  0.00    +0.003 A 
ATOM     16  C   UNL     1       0.424 -11.018  -2.562  0.00  0.00    +0.002 A 
ATOM     17  C   UNL     1       0.107 -10.076  -1.586  0.00  0.00    +0.026 A 
ENDBRANCH   8  11
BRANCH   9  18
ATOM     18  C   UNL     1      -2.185  -9.961   0.618  0.00  0.00    +0.255 C 
BRANCH  18  19
ATOM     19  O   UNL     1      -2.189 -11.265   1.177  0.00  0.00    -0.374 OA
ATOM     20  C   UNL     1      -2.450 -11.233   2.576  0.00  0.00    +0.194 C 
ENDBRANCH  18  19
ENDBRANCH   9  18
ENDBRANCH   5   8
BRANCH   1  21
ATOM     21  C   UNL     1       2.050  -4.734  -0.435  0.00  0.00    +0.108 C 
BRANCH  21  22
ATOM     22  C   UNL     1       2.317  -4.246  -1.870  0.00  0.00    +0.166 C 
BRANCH  22  26
ATOM     23  N   UNL     1       4.886  -1.853  -2.179  0.00  0.00    -0.194 N 
ATOM     24  C   UNL     1       4.366  -2.892  -1.439  0.00  0.00    +0.364 A 
ATOM     25  O   UNL     1       4.934  -3.588  -0.613  0.00  0.00    -0.243 OA
ATOM     26  N   UNL     1       3.079  -3.021  -1.939  0.00  0.00    -0.192 N 
ATOM     27  N   UNL     1       2.945  -2.196  -3.026  0.00  0.00    -0.043 NA
ATOM     28  N   UNL     1       4.000  -1.505  -3.158  0.00  0.00    -0.043 NA
BRANCH  23  30
ATOM     29  C   UNL     1       7.059  -2.589  -3.039  0.00  0.00    +0.029 C 
ATOM     30  C   UNL     1       6.285  -1.534  -2.262  0.00  0.00    +0.147 C 
ENDBRANCH  23  30
ENDBRANCH  22  26
ENDBRANCH  21  22
ENDBRANCH   1  21
TORSDOF 8
