REMARK  Name = 
REMARK  15 active torsions:
REMARK  status: ('A' for Active; 'I' for Inactive)
REMARK    1  A    between atoms: C_1  and  O_2
REMARK    2  A    between atoms: O_2  and  C_3
REMARK    3  A    between atoms: C_3  and  C_4
REMARK    4  A    between atoms: C_4  and  O_5
REMARK    5  A    between atoms: O_5  and  C_6
REMARK    6  A    between atoms: C_6  and  C_8
REMARK    7  A    between atoms: C_9  and  C_10
REMARK    8  A    between atoms: C_12  and  C_13
REMARK    9  A    between atoms: C_14  and  C_25
REMARK   10  A    between atoms: C_15  and  C_16
REMARK   11  A    between atoms: C_20  and  N_22
REMARK   12  A    between atoms: C_25  and  O_27
REMARK   13  A    between atoms: O_27  and  C_28
REMARK   14  A    between atoms: C_28  and  C_29
REMARK   15  A    between atoms: C_30  and  C_31
REMARK                            x       y       z     vdW  Elec       q    Type
REMARK                         _______ _______ _______ _____ _____    ______ ____
ROOT
ATOM      1  C   UNL     1       6.530  -3.182  -3.032  0.00  0.00    +0.065 C 
ATOM      2  C   UNL     1       6.474  -4.678  -2.621  0.00  0.00    +0.096 C 
ATOM      3  C   UNL     1       6.591  -5.639  -3.826  0.00  0.00    +0.065 C 
ATOM      4  C   UNL     1       6.873  -5.158  -5.064  0.00  0.00    +0.016 C 
ATOM      5  C   UNL     1       7.086  -5.993  -6.306  0.00  0.00    +0.061 C 
ATOM      6  N   UNL     1       7.017  -3.802  -5.260  0.00  0.00    -0.321 N 
ATOM      7  H   UNL     1       7.276  -3.489  -6.193  0.00  0.00    +0.152 HD
ATOM      8  C   UNL     1       6.817  -2.824  -4.306  0.00  0.00    +0.016 C 
ATOM      9  C   UNL     1       6.992  -1.425  -4.856  0.00  0.00    +0.061 C 
ENDROOT
BRANCH   2  10
ATOM     10  C   UNL     1       5.248  -4.960  -1.736  0.00  0.00    -0.029 A 
ATOM     11  C   UNL     1       5.404  -5.325  -0.380  0.00  0.00    +0.088 A 
ATOM     12  C   UNL     1       4.279  -5.431   0.459  0.00  0.00    +0.273 A 
ATOM     13  C   UNL     1       2.998  -5.174  -0.045  0.00  0.00    +0.084 A 
ATOM     14  C   UNL     1       2.840  -4.873  -1.397  0.00  0.00    +0.007 A 
ATOM     15  C   UNL     1       3.951  -4.779  -2.239  0.00  0.00    +0.005 A 
BRANCH  12  16
ATOM     16  N   UNL     1       4.433  -5.796   1.872  0.00  0.00    +0.080 N 
ATOM     17  O   UNL     1       5.570  -6.068   2.286  0.00  0.00    +0.041 OA
ATOM     18  O   UNL     1       3.412  -5.806   2.586  0.00  0.00    -0.576 OA
ENDBRANCH  12  16
ENDBRANCH   2  10
BRANCH   1  19
ATOM     19  C   UNL     1       6.335  -2.141  -1.982  0.00  0.00    +0.338 C 
ATOM     20  O   UNL     1       5.862  -1.029  -2.145  0.00  0.00    -0.245 OA
BRANCH  19  21
ATOM     21  O   UNL     1       6.894  -2.576  -0.825  0.00  0.00    -0.459 OA
BRANCH  21  22
ATOM     22  C   UNL     1       7.788  -1.635  -0.227  0.00  0.00    +0.260 C 
BRANCH  22  23
ATOM     23  C   UNL     1       7.220  -0.869   0.959  0.00  0.00    +0.200 C 
BRANCH  23  25
ATOM     24  C   UNL     1       7.957   0.546   2.720  0.00  0.00    +0.194 C 
ATOM     25  O   UNL     1       8.317  -0.159   1.544  0.00  0.00    -0.380 OA
ENDBRANCH  23  25
ENDBRANCH  22  23
ENDBRANCH  21  22
ENDBRANCH  19  21
ENDBRANCH   1  19
BRANCH   3  26
ATOM     26  C   UNL     1       6.469  -7.096  -3.547  0.00  0.00    +0.338 C 
ATOM     27  O   UNL     1       6.768  -7.602  -2.472  0.00  0.00    -0.245 OA
BRANCH  26  28
ATOM     28  O   UNL     1       5.967  -7.744  -4.619  0.00  0.00    -0.457 OA
BRANCH  28  29
ATOM     29  C   UNL     1       5.837  -9.167  -4.575  0.00  0.00    +0.260 C 
BRANCH  29  30
ATOM     30  C   UNL     1       4.458  -9.575  -5.024  0.00  0.00    +0.014 C 
ATOM     31  C   UNL     1       3.516  -8.748  -5.510  0.00  0.00    +0.007 C 
BRANCH  31  32
ATOM     32  C   UNL     1       2.130  -9.125  -5.822  0.00  0.00    -0.025 A 
ATOM     33  C   UNL     1       1.754 -10.403  -6.254  0.00  0.00    +0.008 A 
ATOM     34  C   UNL     1       0.411 -10.701  -6.508  0.00  0.00    +0.001 A 
ATOM     35  C   UNL     1      -0.567  -9.722  -6.346  0.00  0.00    +0.000 A 
ATOM     36  C   UNL     1      -0.204  -8.440  -5.943  0.00  0.00    +0.001 A 
ATOM     37  C   UNL     1       1.137  -8.143  -5.689  0.00  0.00    +0.008 A 
ENDBRANCH  31  32
ENDBRANCH  29  30
ENDBRANCH  28  29
ENDBRANCH  26  28
ENDBRANCH   3  26
TORSDOF 12
