REMARK  Name = 
REMARK  8 active torsions:
REMARK  status: ('A' for Active; 'I' for Inactive)
REMARK    1  A    between atoms: N_2  and  C_3
REMARK    2  A    between atoms: C_3  and  C_4
REMARK    3  A    between atoms: C_4  and  C_5
REMARK    4  A    between atoms: C_5  and  N_7
REMARK    5  A    between atoms: N_7  and  CA_8
REMARK    6  A    between atoms: CA_8  and  CB_10
REMARK    7  A    between atoms: CA_8  and  C_16
REMARK    8  A    between atoms: CB_10  and  CG_11
REMARK                            x       y       z     vdW  Elec       q    Type
REMARK                         _______ _______ _______ _____ _____    ______ ____
ROOT
ATOM      1 ZN   UNL     1       4.849  -0.402   0.725  0.00  0.00    +0.000 Zn
ENDROOT
TORSDOF 0
REMARK  Name = 
REMARK  8 active torsions:
REMARK  status: ('A' for Active; 'I' for Inactive)
REMARK    1  A    between atoms: N_2  and  C_3
REMARK    2  A    between atoms: C_3  and  C_4
REMARK    3  A    between atoms: C_4  and  C_5
REMARK    4  A    between atoms: C_5  and  N_7
REMARK    5  A    between atoms: N_7  and  CA_8
REMARK    6  A    between atoms: CA_8  and  CB_10
REMARK    7  A    between atoms: CA_8  and  C_16
REMARK    8  A    between atoms: CB_10  and  CG_11
REMARK                            x       y       z     vdW  Elec       q    Type
REMARK                         _______ _______ _______ _____ _____    ______ ____
ROOT
ATOM      1  CA  HIS A   1       6.460  -1.106   2.202  0.00  0.00    +0.000 C 
ENDROOT
BRANCH   1   2
ATOM      2  C   HIS A   1       6.806  -1.783   3.551  0.00  0.00    +0.000 C 
ATOM      3  OXT HIS A   1       7.357  -2.909   3.512  0.00  0.00    -0.500 OA
ATOM      4  O   HIS A   1       6.307  -1.144   4.535  0.00  0.00    -0.500 OA
ENDBRANCH   1   2
BRANCH   1   5
ATOM      5  N   HIS A   1       7.050  -1.459   0.897  0.00  0.00    -1.000 NA
BRANCH   5   6
ATOM      6  C   UNK A   0       6.441  -2.007  -0.146  0.00  0.00    +0.000 C 
ATOM      7  O   UNK A   0       5.259  -1.812  -0.432  0.00  0.00    +0.000 OA
BRANCH   6   8
ATOM      8  C   UNK A   0       7.409  -2.728  -1.081  0.00  0.00    +0.000 C 
BRANCH   8   9
ATOM      9  C   UNK A   0       7.049  -2.455  -2.548  0.00  0.00    +0.000 C 
BRANCH   9  10
ATOM     10  N   UNK A   0       7.904  -3.185  -3.478  0.00  0.00    +0.000 NA
ATOM     11  H   UNK A   0       7.874  -4.183  -3.267  0.00  0.00    +0.000 HD
ATOM     12  H   UNK A   0       7.554  -3.081  -4.429  0.00  0.00    +0.000 HD
ENDBRANCH   9  10
ENDBRANCH   8   9
ENDBRANCH   6   8
ENDBRANCH   5   6
ENDBRANCH   1   5
BRANCH   1  13
ATOM     13  CB  HIS A   1       6.773   0.409   2.428  0.00  0.00    +0.000 C 
BRANCH  13  14
ATOM     14  CG  HIS A   1       8.184   0.689   2.773  0.00  0.00    +0.000 A 
ATOM     15  ND1 HIS A   1       8.598   0.750   4.081  0.00  0.00    +0.000 N 
ATOM     16  HD1 HIS A   1       8.023   0.535   4.885  0.00  0.00    +0.000 HD
ATOM     17  CE1 HIS A   1       9.943   1.005   4.078  0.00  0.00    +0.000 A 
ATOM     18  NE2 HIS A   1      10.414   1.090   2.855  0.00  0.00    +0.000 NA
ATOM     19  CD2 HIS A   1       9.347   0.819   2.037  0.00  0.00    +0.000 A 
ENDBRANCH  13  14
ENDBRANCH   1  13
TORSDOF 8
