REMARK  Name = 
REMARK  15 active torsions:
REMARK  status: ('A' for Active; 'I' for Inactive)
REMARK    1  A    between atoms: O_1  and  P_2
REMARK    2  A    between atoms: P_2  and  O_3
REMARK    3  A    between atoms: P_2  and  O_4
REMARK    4  A    between atoms: O_6  and  P_7
REMARK    5  A    between atoms: P_7  and  O_8
REMARK    6  A    between atoms: P_7  and  O_9
REMARK    7  A    between atoms: C_12  and  C_13
REMARK    8  A    between atoms: C_17  and  C_19
REMARK    9  A    between atoms: C_24  and  N_27
REMARK   10  A    between atoms: C_28  and  O_29
REMARK   11  A    between atoms: C_28  and  C_30
REMARK   12  A    between atoms: C_34  and  C_37
REMARK   13  A    between atoms: C_35  and  C_36
REMARK   14  A    between atoms: C_40  and  O_41
REMARK   15  A    between atoms: O_41  and  C_42
REMARK                            x       y       z     vdW  Elec       q    Type
REMARK                         _______ _______ _______ _____ _____    ______ ____
ROOT
ATOM      1  P   UNL     1       2.772  -0.000  -0.091  0.00  0.00    +0.470 P 
ATOM      2  O   UNL     1       4.320  -0.000  -0.091  0.00  0.00    -0.228 OA
ENDROOT
BRANCH   1   3
ATOM      3  O   UNL     1       1.042  -0.000  -0.091  0.00  0.00    -0.303 OA
ATOM      4  H   UNL     1       0.764  -1.023  -0.398  0.00  0.00    +0.222 HD
ENDBRANCH   1   3
BRANCH   1   5
ATOM      5  O   UNL     1       2.575   1.681   1.016  0.00  0.00    -0.303 OA
ATOM      6  H   UNL     1       2.671   1.305   1.943  0.00  0.00    +0.222 HD
ENDBRANCH   1   5
BRANCH   1   7
ATOM      7  O   UNL     1       2.660   1.179  -1.679  0.00  0.00    -0.303 OA
ATOM      8  H   UNL     1       3.290   1.918  -1.453  0.00  0.00    +0.222 HD
ENDBRANCH   1   7
TORSDOF 3
REMARK  Name = 
REMARK  15 active torsions:
REMARK  status: ('A' for Active; 'I' for Inactive)
REMARK    1  A    between atoms: O_1  and  P_2
REMARK    2  A    between atoms: P_2  and  O_3
REMARK    3  A    between atoms: P_2  and  O_4
REMARK    4  A    between atoms: O_6  and  P_7
REMARK    5  A    between atoms: P_7  and  O_8
REMARK    6  A    between atoms: P_7  and  O_9
REMARK    7  A    between atoms: C_12  and  C_13
REMARK    8  A    between atoms: C_17  and  C_19
REMARK    9  A    between atoms: C_24  and  N_27
REMARK   10  A    between atoms: C_28  and  O_29
REMARK   11  A    between atoms: C_28  and  C_30
REMARK   12  A    between atoms: C_34  and  C_37
REMARK   13  A    between atoms: C_35  and  C_36
REMARK   14  A    between atoms: C_40  and  O_41
REMARK   15  A    between atoms: O_41  and  C_42
REMARK                            x       y       z     vdW  Elec       q    Type
REMARK                         _______ _______ _______ _____ _____    ______ ____
ROOT
ATOM      1  P   UNL     1       2.642   0.002  -0.047  0.00  0.00    +0.470 P 
ATOM      2  O   UNL     1       4.190   0.002  -0.047  0.00  0.00    -0.228 OA
ENDROOT
BRANCH   1   3
ATOM      3  O   UNL     1       0.912   0.002  -0.047  0.00  0.00    -0.303 OA
ATOM      4  H   UNL     1       0.601   0.956   0.274  0.00  0.00    +0.222 HD
ENDBRANCH   1   3
BRANCH   1   5
ATOM      5  O   UNL     1       2.433  -1.928  -0.483  0.00  0.00    -0.303 OA
ATOM      6  H   UNL     1       2.597  -2.085  -1.448  0.00  0.00    +0.222 HD
ENDBRANCH   1   5
BRANCH   1   7
ATOM      7  O   UNL     1       2.512  -0.574   1.849  0.00  0.00    -0.303 OA
ATOM      8  H   UNL     1       3.028  -1.420   1.908  0.00  0.00    +0.222 HD
ENDBRANCH   1   7
TORSDOF 3
REMARK  Name = 
REMARK  15 active torsions:
REMARK  status: ('A' for Active; 'I' for Inactive)
REMARK    1  A    between atoms: O_1  and  P_2
REMARK    2  A    between atoms: P_2  and  O_3
REMARK    3  A    between atoms: P_2  and  O_4
REMARK    4  A    between atoms: O_6  and  P_7
REMARK    5  A    between atoms: P_7  and  O_8
REMARK    6  A    between atoms: P_7  and  O_9
REMARK    7  A    between atoms: C_12  and  C_13
REMARK    8  A    between atoms: C_17  and  C_19
REMARK    9  A    between atoms: C_24  and  N_27
REMARK   10  A    between atoms: C_28  and  O_29
REMARK   11  A    between atoms: C_28  and  C_30
REMARK   12  A    between atoms: C_34  and  C_37
REMARK   13  A    between atoms: C_35  and  C_36
REMARK   14  A    between atoms: C_40  and  O_41
REMARK   15  A    between atoms: O_41  and  C_42
REMARK                            x       y       z     vdW  Elec       q    Type
REMARK                         _______ _______ _______ _____ _____    ______ ____
ROOT
ATOM      1  N   UNL     1      -0.678  -6.472  -3.558  0.00  0.00    -0.212 NA
ATOM      2  C   UNL     1       0.013  -7.522  -3.662  0.00  0.00    +0.220 C 
ENDROOT
BRANCH   1  13
ATOM      3  C   UNL     1      -1.515  -0.021   0.661  0.00  0.00    +0.133 C 
ATOM      4  C   UNL     1      -2.660   0.097   1.659  0.00  0.00    +0.039 C 
ATOM      5  O   UNL     1      -1.748   0.971  -0.354  0.00  0.00    -0.371 OA
ATOM      6  C   UNL     1      -1.011   0.937  -1.595  0.00  0.00    +0.133 C 
ATOM      7  C   UNL     1      -1.930   1.502  -2.661  0.00  0.00    +0.039 C 
ATOM      8  C   UNL     1      -0.523  -0.420  -2.124  0.00  0.00    +0.137 C 
ATOM      9  N   UNL     1      -0.914  -1.566  -1.283  0.00  0.00    -0.310 N 
ATOM     10  C   UNL     1      -0.630  -2.790  -1.867  0.00  0.00    +0.121 A 
ATOM     11  C   UNL     1      -1.160  -2.997  -3.134  0.00  0.00    +0.046 A 
ATOM     12  C   UNL     1      -1.006  -4.202  -3.767  0.00  0.00    +0.033 A 
ATOM     13  C   UNL     1      -0.347  -5.218  -3.104  0.00  0.00    +0.086 A 
ATOM     14  C   UNL     1       0.240  -4.924  -1.874  0.00  0.00    +0.140 A 
ATOM     15  N   UNL     1       0.131  -3.718  -1.254  0.00  0.00    -0.238 NA
ATOM     16  C   UNL     1      -1.244  -1.477   0.167  0.00  0.00    +0.137 C 
ENDBRANCH   1  13
BRANCH   2  17
ATOM     17  C   UNL     1      -0.658  -8.791  -4.097  0.00  0.00    +0.040 A 
ATOM     18  C   UNL     1      -2.053  -8.977  -3.882  0.00  0.00    -0.031 A 
ATOM     19  C   UNL     1      -2.792  -8.065  -2.908  0.00  0.00    +0.045 C 
ATOM     20  C   UNL     1      -2.760 -10.004  -4.570  0.00  0.00    -0.014 A 
ATOM     21  C   UNL     1      -1.956 -10.895  -5.340  0.00  0.00    +0.009 A 
ATOM     22  C   UNL     1      -0.577 -10.770  -5.444  0.00  0.00    +0.001 A 
ATOM     23  C   UNL     1       0.085  -9.702  -4.859  0.00  0.00    +0.013 A 
BRANCH  20  24
ATOM     24  C   UNL     1      -4.238 -10.111  -4.660  0.00  0.00    -0.017 A 
ATOM     25  C   UNL     1      -5.090  -8.988  -4.751  0.00  0.00    +0.012 A 
ATOM     26  C   UNL     1      -6.491  -9.109  -4.864  0.00  0.00    +0.046 A 
ATOM     27  C   UNL     1      -7.077 -10.366  -4.918  0.00  0.00    +0.130 A 
ATOM     28  C   UNL     1      -6.253 -11.489  -4.900  0.00  0.00    +0.046 A 
ATOM     29  C   UNL     1      -4.855 -11.357  -4.735  0.00  0.00    +0.012 A 
BRANCH  27  30
ATOM     30  O   UNL     1      -8.405 -10.632  -5.048  0.00  0.00    -0.406 OA
BRANCH  30  31
ATOM     31  C   UNL     1      -9.338  -9.746  -4.450  0.00  0.00    +0.575 C 
ATOM     32  F   UNL     1     -10.299 -10.486  -3.848  0.00  0.00    -0.133 F 
ATOM     33  F   UNL     1      -9.926  -8.992  -5.403  0.00  0.00    -0.133 F 
ATOM     34  F   UNL     1      -8.801  -8.934  -3.515  0.00  0.00    -0.133 F 
ENDBRANCH  30  31
ENDBRANCH  27  30
ENDBRANCH  20  24
ENDBRANCH   2  17
BRANCH   2  35
ATOM     35  O   UNL     1       1.346  -7.592  -3.490  0.00  0.00    -0.492 OA
ATOM     36  H   UNL     1       1.713  -6.700  -3.394  0.00  0.00    +0.294 HD
ENDBRANCH   2  35
TORSDOF 6
