REMARK  Name = 
REMARK  11 active torsions:
REMARK  status: ('A' for Active; 'I' for Inactive)
REMARK    1  A    between atoms: C_6  and  N_8
REMARK    2  A    between atoms: N_8  and  C_9
REMARK    3  A    between atoms: N_8  and  C_10
REMARK    4  A    between atoms: C_11  and  O_12
REMARK    5  A    between atoms: C_13  and  C_14
REMARK    6  A    between atoms: C_14  and  O_15
REMARK    7  A    between atoms: C_19  and  O_20
REMARK    8  A    between atoms: C_21  and  O_22
REMARK    9  A    between atoms: C_27  and  O_28
REMARK   10  A    between atoms: C_34  and  C_35
REMARK   11  A    between atoms: C_34  and  O_36
REMARK                            x       y       z     vdW  Elec       q    Type
REMARK                         _______ _______ _______ _____ _____    ______ ____
ROOT
ATOM      1  C   UNL     1      -0.000  -0.000  -0.000  0.00  0.00    +0.063 C 
ATOM      2  C   UNL     1      -0.000  -0.000  -0.000  0.00  0.00    +0.097 C 
ATOM      3  C   UNL     1      -0.000  -0.000  -0.000  0.00  0.00    +0.047 C 
ATOM      4  C   UNL     1      -0.000  -0.000  -0.000  0.00  0.00    +0.017 A 
ATOM      5  C   UNL     1      -0.000  -0.000  -0.000  0.00  0.00    +0.071 A 
ATOM      6  C   UNL     1      -0.000  -0.000   0.000  0.00  0.00    +0.128 A 
ATOM      7  C   UNL     1      -0.000  -0.000  -0.000  0.00  0.00    +0.047 A 
ATOM      8  C   UNL     1      -0.000  -0.000  -0.000  0.00  0.00    +0.024 A 
ATOM      9  C   UNL     1      -0.000  -0.000  -0.000  0.00  0.00    +0.197 C 
ATOM     10  O   UNL     1      -0.000  -0.000  -0.000  0.00  0.00    -0.287 OA
ATOM     11  C   UNL     1      -0.000  -0.000  -0.000  0.00  0.00    +0.048 A 
ATOM     12 CL   UNL     1      -0.000  -0.000   0.000  0.00  0.00    -0.083 Cl
ATOM     13  C   UNL     1      -0.000  -0.000  -0.000  0.00  0.00    +0.047 C 
ATOM     14  C   UNL     1      -0.000  -0.000  -0.000  0.00  0.00    +0.141 C 
ATOM     15  C   UNL     1      -0.000  -0.000  -0.000  0.00  0.00    +0.190 C 
ATOM     16  C   UNL     1      -0.000  -0.000  -0.000  0.00  0.00    +0.061 C 
ATOM     17  C   UNL     1      -0.000  -0.000  -0.000  0.00  0.00    +0.129 C 
ATOM     18  C   UNL     1      -0.000  -0.000  -0.000  0.00  0.00    +0.127 C 
ATOM     19  C   UNL     1      -0.000  -0.000  -0.000  0.00  0.00    +0.120 C 
ATOM     20  C   UNL     1      -0.000  -0.000  -0.000  0.00  0.00    +0.211 C 
ATOM     21  O   UNL     1      -0.000  -0.000  -0.000  0.00  0.00    -0.288 OA
ATOM     22  C   UNL     1      -0.000  -0.000  -0.000  0.00  0.00    +0.020 C 
ENDROOT
BRANCH  17  23
ATOM     23  N   UNL     1      -0.000  -0.000  -0.000  0.00  0.00    -0.299 NA
ATOM     24  C   UNL     1      -0.000  -0.000  -0.000  0.00  0.00    +0.105 C 
ATOM     25  C   UNL     1      -0.000  -0.000  -0.000  0.00  0.00    +0.105 C 
ENDBRANCH  17  23
BRANCH  19  26
ATOM     26  C   UNL     1      -0.000  -0.000  -0.000  0.00  0.00    +0.219 C 
ATOM     27  N   UNL     1      -0.000  -0.000   0.000  0.00  0.00    -0.267 NA
ATOM     28  H   UNL     1      -0.000  -0.000  -0.000  0.00  0.00    +0.190 HD
BRANCH  26  29
ATOM     29  O   UNL     1      -0.000  -0.000  -0.000  0.00  0.00    -0.492 OA
ATOM     30  H   UNL     1      -0.000  -0.000  -0.000  0.00  0.00    +0.294 HD
ENDBRANCH  26  29
ENDBRANCH  19  26
BRANCH   2  31
ATOM     31  O   UNL     1      -0.000  -0.000  -0.000  0.00  0.00    -0.384 OA
ATOM     32  H   UNL     1       0.000   0.000   0.000  0.00  0.00    +0.211 HD
ENDBRANCH   2  31
BRANCH   6  33
ATOM     33  O   UNL     1      -0.000  -0.000  -0.000  0.00  0.00    -0.506 OA
ATOM     34  H   UNL     1       0.000   0.000   0.000  0.00  0.00    +0.292 HD
ENDBRANCH   6  33
BRANCH  14  35
ATOM     35  O   UNL     1      -0.000  -0.000  -0.000  0.00  0.00    -0.507 OA
ATOM     36  H   UNL     1       0.000   0.000   0.000  0.00  0.00    +0.292 HD
ENDBRANCH  14  35
BRANCH  15  37
ATOM     37  O   UNL     1      -0.000  -0.000   0.000  0.00  0.00    -0.373 OA
ATOM     38  H   UNL     1       0.000   0.000   0.000  0.00  0.00    +0.211 HD
ENDBRANCH  15  37
BRANCH  18  39
ATOM     39  O   UNL     1      -0.000  -0.000   0.000  0.00  0.00    -0.509 OA
ATOM     40  H   UNL     1       0.000   0.000   0.000  0.00  0.00    +0.292 HD
ENDBRANCH  18  39
TORSDOF 8
