REMARK  Name = 
REMARK  18 active torsions:
REMARK  status: ('A' for Active; 'I' for Inactive)
REMARK    1  A    between atoms: C_1  and  C_2
REMARK    2  A    between atoms: C_2  and  O_3
REMARK    3  A    between atoms: O_3  and  C_4
REMARK    4  A    between atoms: C_4  and  C_6
REMARK    5  A    between atoms: C_7  and  C_8
REMARK    6  A    between atoms: C_10  and  C_11
REMARK    7  A    between atoms: C_12  and  C_29
REMARK    8  A    between atoms: C_13  and  C_14
REMARK    9  A    between atoms: C_19  and  C_20
REMARK   10  A    between atoms: C_21  and  C_22
REMARK   11  A    between atoms: C_22  and  O_24
REMARK   12  A    between atoms: O_24  and  C_25
REMARK   13  A    between atoms: C_25  and  C_26
REMARK   14  A    between atoms: C_25  and  C_27
REMARK   15  A    between atoms: C_25  and  C_28
REMARK   16  A    between atoms: C_29  and  O_31
REMARK   17  A    between atoms: O_31  and  C_32
REMARK   18  A    between atoms: C_32  and  C_33
REMARK                            x       y       z     vdW  Elec       q    Type
REMARK                         _______ _______ _______ _____ _____    ______ ____
ROOT
ATOM      1  C   UNL     1       4.970   3.036   0.781  0.00  0.00    +0.065 C 
ATOM      2  C   UNL     1       6.280   3.145   1.594  0.00  0.00    +0.096 C 
ATOM      3  C   UNL     1       6.705   4.600   1.878  0.00  0.00    +0.065 C 
ATOM      4  C   UNL     1       5.837   5.613   1.634  0.00  0.00    +0.016 C 
ATOM      5  C   UNL     1       6.128   7.080   1.858  0.00  0.00    +0.061 C 
ATOM      6  N   UNL     1       4.573   5.341   1.142  0.00  0.00    -0.321 N 
ATOM      7  H   UNL     1       3.988   6.141   0.912  0.00  0.00    +0.152 HD
ATOM      8  C   UNL     1       4.169   4.120   0.630  0.00  0.00    +0.016 C 
ATOM      9  C   UNL     1       2.829   4.172  -0.067  0.00  0.00    +0.061 C 
ENDROOT
BRANCH   2  10
ATOM     10  C   UNL     1       7.412   2.259   1.047  0.00  0.00    -0.028 A 
ATOM     11  C   UNL     1       8.147   2.528  -0.126  0.00  0.00    -0.021 A 
ATOM     12  C   UNL     1       9.166   1.629  -0.496  0.00  0.00    +0.008 A 
ATOM     13  C   UNL     1       9.465   0.495   0.263  0.00  0.00    +0.001 A 
ATOM     14  C   UNL     1       8.742   0.229   1.416  0.00  0.00    +0.000 A 
ATOM     15  C   UNL     1       7.729   1.099   1.800  0.00  0.00    +0.005 A 
BRANCH  11  16
ATOM     16  C   UNL     1       7.857   3.681  -1.001  0.00  0.00    +0.015 C 
ATOM     17  C   UNL     1       8.815   4.398  -1.611  0.00  0.00    +0.092 C 
BRANCH  17  18
ATOM     18  C   UNL     1       8.565   5.487  -2.576  0.00  0.00    +0.332 C 
ATOM     19  O   UNL     1       9.447   5.885  -3.322  0.00  0.00    -0.246 OA
BRANCH  18  20
ATOM     20  O   UNL     1       7.293   5.938  -2.508  0.00  0.00    -0.456 OA
BRANCH  20  21
ATOM     21  C   UNL     1       6.837   6.984  -3.405  0.00  0.00    +0.106 C 
ATOM     22  C   UNL     1       7.648   8.275  -3.237  0.00  0.00    +0.055 C 
ATOM     23  C   UNL     1       5.387   7.261  -2.979  0.00  0.00    +0.055 C 
ATOM     24  C   UNL     1       6.841   6.498  -4.859  0.00  0.00    +0.055 C 
ENDBRANCH  20  21
ENDBRANCH  18  20
ENDBRANCH  17  18
ENDBRANCH  11  16
ENDBRANCH   2  10
BRANCH   1  25
ATOM     25  C   UNL     1       4.603   1.761   0.116  0.00  0.00    +0.338 C 
ATOM     26  O   UNL     1       4.121   1.698  -1.007  0.00  0.00    -0.245 OA
BRANCH  25  27
ATOM     27  O   UNL     1       4.864   0.695   0.910  0.00  0.00    -0.462 OA
BRANCH  27  29
ATOM     28  C   UNL     1       3.210  -1.046   0.740  0.00  0.00    +0.048 C 
ATOM     29  C   UNL     1       4.593  -0.586   0.319  0.00  0.00    +0.229 C 
ENDBRANCH  27  29
ENDBRANCH  25  27
ENDBRANCH   1  25
BRANCH   3  30
ATOM     30  C   UNL     1       8.059   4.924   2.417  0.00  0.00    +0.338 C 
ATOM     31  O   UNL     1       8.595   6.019   2.315  0.00  0.00    -0.245 OA
BRANCH  30  32
ATOM     32  O   UNL     1       8.623   3.865   3.051  0.00  0.00    -0.462 OA
BRANCH  32  33
ATOM     33  C   UNL     1       9.945   4.100   3.567  0.00  0.00    +0.229 C 
ATOM     34  C   UNL     1      10.996   4.119   2.466  0.00  0.00    +0.048 C 
ENDBRANCH  32  33
ENDBRANCH  30  32
ENDBRANCH   3  30
TORSDOF 11
