REMARK  Name = 
REMARK  14 active torsions:
REMARK  status: ('A' for Active; 'I' for Inactive)
REMARK    1  A    between atoms: C_2  and  C_3
REMARK    2  A    between atoms: C_2  and  N_9
REMARK    3  A    between atoms: C_2  and  C_19
REMARK    4  A    between atoms: C_3  and  N_4
REMARK    5  A    between atoms: C_10  and  O_11
REMARK    6  A    between atoms: C_10  and  C_12
REMARK    7  A    between atoms: C_12  and  C_13
REMARK    8  A    between atoms: C_13  and  C_14
REMARK    9  A    between atoms: C_14  and  C_15
REMARK   10  A    between atoms: C_15  and  C_16
REMARK   11  A    between atoms: C_16  and  C_17
REMARK   12  A    between atoms: C_17  and  C_18
REMARK   13  A    between atoms: C_19  and  O_21
REMARK   14  A    between atoms: C_19  and  C_22
REMARK                            x       y       z     vdW  Elec       q    Type
REMARK                         _______ _______ _______ _____ _____    ______ ____
ROOT
ATOM      1  C   UNL     1       2.106  -2.228  -0.504  0.00  0.00    +0.155 C 
ENDROOT
BRANCH   1   2
ATOM      2  N   UNL     1       1.273  -2.100   0.701  0.00  0.00    -0.247 NA
ATOM      3  C   UNL     1       0.006  -2.114   0.738  0.00  0.00    +0.183 C 
BRANCH   3   4
ATOM      4  O   UNL     1      -0.802  -2.188  -0.333  0.00  0.00    -0.496 OA
ATOM      5  H   UNL     1      -0.311  -2.176  -1.163  0.00  0.00    +0.293 HD
ENDBRANCH   3   4
BRANCH   3   6
ATOM      6  C   UNL     1      -0.725  -2.017   2.045  0.00  0.00    +0.095 C 
BRANCH   6   7
ATOM      7  C   UNL     1      -1.574  -3.249   2.331  0.00  0.00    +0.009 C 
BRANCH   7   8
ATOM      8  C   UNL     1      -0.744  -4.530   2.450  0.00  0.00    +0.000 C 
BRANCH   8   9
ATOM      9  C   UNL     1      -1.641  -5.729   2.762  0.00  0.00    +0.000 C 
BRANCH   9  10
ATOM     10  C   UNL     1      -0.835  -7.024   2.858  0.00  0.00    -0.000 C 
BRANCH  10  11
ATOM     11  C   UNL     1      -1.745  -8.215   3.157  0.00  0.00    -0.003 C 
ATOM     12  C   UNL     1      -0.953  -9.508   3.259  0.00  0.00    +0.004 C 
ENDBRANCH  10  11
ENDBRANCH   9  10
ENDBRANCH   8   9
ENDBRANCH   7   8
ENDBRANCH   6   7
ENDBRANCH   3   6
ENDBRANCH   1   2
BRANCH   1  13
ATOM     13  C   UNL     1       2.713  -0.830  -0.842  0.00  0.00    +0.170 C 
BRANCH  13  14
ATOM     14  C   UNL     1       1.828   0.322  -1.353  0.00  0.00    -0.013 A 
ATOM     15  C   UNL     1       2.178   0.910  -2.583  0.00  0.00    +0.010 A 
ATOM     16  C   UNL     1       1.643   2.137  -2.988  0.00  0.00    +0.050 A 
ATOM     17  C   UNL     1       0.719   2.798  -2.190  0.00  0.00    +0.162 A 
ATOM     18  O   UNL     1       0.339   4.040  -2.616  0.00  0.00    -0.485 OA
ATOM     19  C   UNL     1      -0.805   4.539  -1.927  0.00  0.00    +0.270 C 
ATOM     20  C   UNL     1      -0.799   4.185  -0.446  0.00  0.00    +0.270 C 
ATOM     21  O   UNL     1      -0.667   2.780  -0.203  0.00  0.00    -0.485 OA
ATOM     22  C   UNL     1       0.283   2.203  -1.007  0.00  0.00    +0.162 A 
ATOM     23  C   UNL     1       0.833   0.970  -0.589  0.00  0.00    +0.055 A 
ENDBRANCH  13  14
BRANCH  13  24
ATOM     24  O   UNL     1       3.517  -0.346   0.243  0.00  0.00    -0.385 OA
ATOM     25  H   UNL     1       3.311   0.596   0.366  0.00  0.00    +0.210 HD
ENDBRANCH  13  24
ENDBRANCH   1  13
BRANCH   1  26
ATOM     26  C   UNL     1       3.161  -3.355  -0.130  0.00  0.00    +0.114 C 
BRANCH  26  27
ATOM     27  N   UNL     1       4.050  -3.939  -1.157  0.00  0.00    -0.300 NA
ATOM     28  C   UNL     1       4.767  -5.132  -0.637  0.00  0.00    +0.084 C 
ATOM     29  C   UNL     1       6.048  -5.243  -1.472  0.00  0.00    +0.017 C 
ATOM     30  C   UNL     1       5.989  -4.044  -2.396  0.00  0.00    +0.017 C 
ATOM     31  C   UNL     1       5.128  -3.065  -1.616  0.00  0.00    +0.084 C 
ENDBRANCH  26  27
ENDBRANCH   1  26
TORSDOF 13
