REMARK  Name = 
REMARK  2 active torsions:
REMARK  status: ('A' for Active; 'I' for Inactive)
REMARK    1  A    between atoms: C_1  and  C_2
REMARK    2  A    between atoms: C_8  and  C_16
REMARK                            x       y       z     vdW  Elec       q    Type
REMARK                         _______ _______ _______ _____ _____    ______ ____
ROOT
ATOM      1  C   UNL     1       1.068   0.085   0.090  0.00  0.00    +0.088 C 
ATOM      2  C   UNL     1       2.550   0.070   0.128  0.00  0.00    +0.135 A 
ATOM      3  N   UNL     1       3.360  -1.058   0.136  0.00  0.00    -0.275 N 
ATOM      4  C   UNL     1       4.637  -0.546  -0.005  0.00  0.00    +0.160 A 
ATOM      5  C   UNL     1       5.837  -1.411   0.047  0.00  0.00    +0.218 C 
ATOM      6  N   UNL     1       5.855  -2.385  -1.035  0.00  0.00    -0.275 NA
ATOM      7  C   UNL     1       5.007  -3.351  -1.103  0.00  0.00    +0.077 C 
ATOM      8  C   UNL     1       3.854  -3.477  -0.185  0.00  0.00    +0.033 A 
ATOM      9  C   UNL     1       3.292  -4.725   0.285  0.00  0.00    +0.035 A 
ATOM     10  C   UNL     1       2.117  -4.541   0.966  0.00  0.00    +0.058 A 
ATOM     11 BR   UNL     1       1.066  -5.945   1.624  0.00  0.00    -0.042 Br
ATOM     12  S   UNL     1       1.693  -2.915   1.121  0.00  0.00    -0.063 S 
ATOM     13  N   UNL     1       4.604   0.766  -0.047  0.00  0.00    -0.132 NA
ATOM     14  C   UNL     1       3.078  -2.421   0.272  0.00  0.00    +0.097 A 
ATOM     15  N   UNL     1       3.297   1.152   0.035  0.00  0.00    -0.134 NA
ENDROOT
BRANCH   7  16
ATOM     16  C   UNL     1       5.147  -4.384  -2.190  0.00  0.00    +0.019 A 
ATOM     17  C   UNL     1       6.393  -4.836  -2.656  0.00  0.00    +0.050 A 
ATOM     18 CL   UNL     1       7.916  -4.258  -2.078  0.00  0.00    -0.083 Cl
ATOM     19  C   UNL     1       6.451  -5.856  -3.619  0.00  0.00    +0.020 A 
ATOM     20  C   UNL     1       5.285  -6.437  -4.116  0.00  0.00    +0.001 A 
ATOM     21  C   UNL     1       4.047  -5.972  -3.689  0.00  0.00    +0.001 A 
ATOM     22  C   UNL     1       3.978  -4.936  -2.756  0.00  0.00    +0.011 A 
ENDBRANCH   7  16
TORSDOF 1
