REMARK  Name = 
REMARK  3 active torsions:
REMARK  status: ('A' for Active; 'I' for Inactive)
REMARK    1  A    between atoms: C_1  and  N_2
REMARK    2  A    between atoms: C_4  and  C_5
REMARK    3  A    between atoms: C_5  and  C_7
REMARK                            x       y       z     vdW  Elec       q    Type
REMARK                         _______ _______ _______ _____ _____    ______ ____
ROOT
ATOM      1  C   UNL     1       5.614  -1.669   0.114  0.00  0.00    +0.169 C 
ATOM      2  O   UNL     1       5.396  -2.876   0.213  0.00  0.00    -0.292 OA
ENDROOT
BRANCH   1  11
ATOM      3  C   UNL     1       3.160   2.660  -0.061  0.00  0.00    +0.149 C 
ATOM      4  N   UNL     1       3.478   1.283   0.246  0.00  0.00    -0.349 N 
ATOM      5  C   UNL     1       2.766   0.475   1.102  0.00  0.00    +0.050 A 
ATOM      6  C   UNL     1       1.668   0.756   1.931  0.00  0.00    +0.026 A 
ATOM      7  C   UNL     1       1.131  -0.291   2.684  0.00  0.00    +0.002 A 
ATOM      8  C   UNL     1       1.642  -1.581   2.583  0.00  0.00    +0.001 A 
ATOM      9  C   UNL     1       2.751  -1.844   1.771  0.00  0.00    +0.011 A 
ATOM     10  C   UNL     1       3.349  -0.794   1.043  0.00  0.00    +0.010 A 
ATOM     11  C   UNL     1       4.547  -0.677   0.270  0.00  0.00    +0.043 A 
ATOM     12  C   UNL     1       4.553   0.604  -0.258  0.00  0.00    +0.098 A 
ENDBRANCH   1  11
BRANCH   1  13
ATOM     13  C   UNL     1       7.027  -1.137  -0.140  0.00  0.00    +0.066 C 
ATOM     14  C   UNL     1       7.514  -0.310   1.078  0.00  0.00    +0.068 C 
ATOM     15  C   UNL     1       8.950   0.030   0.915  0.00  0.00    +0.063 A 
ATOM     16  N   UNL     1       9.630   0.958   1.648  0.00  0.00    -0.241 NA
ATOM     17  C   UNL     1      10.863   0.908   1.190  0.00  0.00    +0.196 A 
ATOM     18  N   UNL     1      10.999  -0.003   0.174  0.00  0.00    -0.348 N 
ATOM     19  H   UNL     1      11.848  -0.204  -0.336  0.00  0.00    +0.166 HD
ATOM     20  C   UNL     1       9.778  -0.585   0.006  0.00  0.00    +0.039 A 
ATOM     21  C   UNL     1       9.388  -1.651  -0.948  0.00  0.00    +0.056 C 
ATOM     22  C   UNL     1       8.050  -2.262  -0.475  0.00  0.00    +0.018 C 
ENDBRANCH   1  13
TORSDOF 2
