REMARK  Name = 
REMARK  7 active torsions:
REMARK  status: ('A' for Active; 'I' for Inactive)
REMARK    1  A    between atoms: C_1  and  N_2
REMARK    2  A    between atoms: N_2  and  C_6
REMARK    3  A    between atoms: C_3  and  C_4
REMARK    4  A    between atoms: C_9  and  C_10
REMARK    5  A    between atoms: C_10  and  O_11
REMARK    6  A    between atoms: C_15  and  N_16
REMARK    7  A    between atoms: C_17  and  C_18
REMARK                            x       y       z     vdW  Elec       q    Type
REMARK                         _______ _______ _______ _____ _____    ______ ____
ROOT
ATOM      1  C   UNL     1       3.122  -0.994   0.397  0.00  0.00    +0.065 A 
ATOM      2  C   UNL     1       2.403  -2.151  -0.024  0.00  0.00    +0.058 A 
ATOM      3  I   UNL     1       0.506  -1.966  -1.021  0.00  0.00    -0.040 I 
ATOM      4  C   UNL     1       3.022  -3.437  -0.045  0.00  0.00    +0.063 A 
ATOM      5  C   UNL     1       4.423  -3.521   0.149  0.00  0.00    +0.051 A 
ATOM      6  I   UNL     1       5.373  -5.417  -0.254  0.00  0.00    -0.041 I 
ATOM      7  C   UNL     1       5.165  -2.391   0.549  0.00  0.00    +0.089 A 
ATOM      8  C   UNL     1       4.480  -1.176   0.775  0.00  0.00    +0.051 A 
ATOM      9  I   UNL     1       5.425   0.303   2.054  0.00  0.00    -0.041 I 
ENDROOT
BRANCH   1  11
ATOM     10  C   UNL     1       3.317   1.286  -0.594  0.00  0.00    +0.138 C 
ATOM     11  N   UNL     1       2.593   0.346   0.271  0.00  0.00    -0.273 N 
ATOM     12  C   UNL     1       1.483   0.877   0.935  0.00  0.00    +0.216 C 
ATOM     13  O   UNL     1       1.117   2.039   0.745  0.00  0.00    -0.276 OA
ATOM     14  C   UNL     1       0.736   0.048   1.941  0.00  0.00    +0.109 C 
ENDBRANCH   1  11
BRANCH   4  15
ATOM     15  N   UNL     1       2.332  -4.598  -0.495  0.00  0.00    -0.284 N 
ATOM     16  H   UNL     1       2.875  -5.198  -1.113  0.00  0.00    +0.155 HD
ATOM     17  C   UNL     1       1.578  -5.467   0.265  0.00  0.00    +0.214 C 
ATOM     18  O   UNL     1       1.434  -6.616  -0.152  0.00  0.00    -0.276 OA
ATOM     19  C   UNL     1       0.932  -5.039   1.554  0.00  0.00    +0.109 C 
ENDBRANCH   4  15
BRANCH   7  20
ATOM     20  C   UNL     1       6.644  -2.462   0.695  0.00  0.00    +0.339 C 
ATOM     21  O   UNL     1       7.231  -3.349   1.292  0.00  0.00    -0.245 OA
BRANCH  20  22
ATOM     22  O   UNL     1       7.307  -1.483   0.036  0.00  0.00    -0.477 OA
ATOM     23  H   UNL     1       6.789  -0.699  -0.226  0.00  0.00    +0.295 HD
ENDBRANCH  20  22
ENDBRANCH   7  20
TORSDOF 4
