REMARK  Name = 
REMARK  9 active torsions:
REMARK  status: ('A' for Active; 'I' for Inactive)
REMARK    1  A    between atoms: C_1  and  O_2
REMARK    2  A    between atoms: O_2  and  C_3
REMARK    3  A    between atoms: C_4  and  C_28
REMARK    4  A    between atoms: C_7  and  O_8
REMARK    5  A    between atoms: O_8  and  C_9
REMARK    6  A    between atoms: C_13  and  N_14
REMARK    7  A    between atoms: C_15  and  O_16
REMARK    8  A    between atoms: N_17  and  C_18
REMARK    9  A    between atoms: C_28  and  O_29
REMARK                            x       y       z     vdW  Elec       q    Type
REMARK                         _______ _______ _______ _____ _____    ______ ____
ROOT
ATOM      1  C   UNL     1       1.567  -0.555  -3.169  0.00  0.00    +0.134 A 
ATOM      2  C   UNL     1       1.811  -1.863  -2.728  0.00  0.00    +0.074 A 
ATOM      3  C   UNL     1       2.974  -2.544  -3.039  0.00  0.00    +0.078 A 
ATOM      4  C   UNL     1       3.948  -1.905  -3.826  0.00  0.00    +0.044 A 
ATOM      5  C   UNL     1       5.117  -2.643  -4.123  0.00  0.00    +0.139 A 
ATOM      6  C   UNL     1       5.293  -3.913  -3.574  0.00  0.00    +0.066 A 
ATOM      7  C   UNL     1       4.264  -4.446  -2.829  0.00  0.00    +0.115 A 
ATOM      8  C   UNL     1       3.715  -0.575  -4.264  0.00  0.00    +0.030 A 
ATOM      9  N   UNL     1       3.117  -3.790  -2.566  0.00  0.00    -0.255 NA
ATOM     10  C   UNL     1       2.539   0.123  -3.932  0.00  0.00    +0.078 A 
ENDROOT
BRANCH  10  11
ATOM     11  C   UNL     1       2.309   1.535  -4.391  0.00  0.00    +0.216 C 
ATOM     12  N   UNL     1       1.263   2.245  -4.157  0.00  0.00    -0.267 NA
ATOM     13  H   UNL     1       0.597   1.710  -3.586  0.00  0.00    +0.190 HD
BRANCH  11  14
ATOM     14  O   UNL     1       3.262   2.142  -5.115  0.00  0.00    -0.492 OA
ATOM     15  H   UNL     1       4.082   1.659  -5.251  0.00  0.00    +0.294 HD
ENDBRANCH  11  14
ENDBRANCH  10  11
BRANCH   1  17
ATOM     16  C   UNL     1      -0.762  -0.669  -2.687  0.00  0.00    +0.277 C 
ATOM     17  O   UNL     1       0.422   0.118  -2.816  0.00  0.00    -0.494 OA
ENDBRANCH   1  17
BRANCH   5  18
ATOM     18  O   UNL     1       6.068  -2.022  -4.924  0.00  0.00    -0.455 OA
BRANCH  18  19
ATOM     19  C   UNL     1       6.925  -2.787  -5.680  0.00  0.00    +0.130 A 
ATOM     20  C   UNL     1       8.249  -2.356  -5.765  0.00  0.00    +0.048 A 
ATOM     21  C   UNL     1       9.201  -3.148  -6.407  0.00  0.00    +0.028 A 
ATOM     22  C   UNL     1       8.857  -4.391  -6.964  0.00  0.00    +0.053 A 
ATOM     23  C   UNL     1       7.494  -4.736  -6.989  0.00  0.00    +0.066 A 
ATOM     24 CL   UNL     1       6.971  -6.222  -7.706  0.00  0.00    -0.082 Cl
ATOM     25  C   UNL     1       6.530  -3.929  -6.375  0.00  0.00    +0.068 A 
BRANCH  22  26
ATOM     26  N   UNL     1       9.845  -5.321  -7.344  0.00  0.00    -0.268 N 
ATOM     27  H   UNL     1       9.605  -5.921  -8.126  0.00  0.00    +0.157 HD
ATOM     28  C   UNL     1      11.110  -5.488  -6.866  0.00  0.00    +0.280 C 
ATOM     29  N   UNL     1      12.053  -6.106  -7.505  0.00  0.00    -0.233 NA
BRANCH  29  30
ATOM     30  C   UNL     1      13.320  -6.239  -6.842  0.00  0.00    +0.110 C 
ATOM     31  C   UNL     1      14.535  -6.024  -7.705  0.00  0.00    +0.029 C 
ATOM     32  C   UNL     1      14.186  -7.404  -7.242  0.00  0.00    +0.029 C 
ENDBRANCH  29  30
BRANCH  28  33
ATOM     33  O   UNL     1      11.321  -5.025  -5.619  0.00  0.00    -0.482 OA
ATOM     34  H   UNL     1      10.480  -4.808  -5.192  0.00  0.00    +0.295 HD
ENDBRANCH  28  33
ENDBRANCH  22  26
ENDBRANCH  18  19
ENDBRANCH   5  18
TORSDOF 8
