REMARK  Name = 
REMARK  39 active torsions:
REMARK  status: ('A' for Active; 'I' for Inactive)
REMARK    1  A    between atoms: C_1  and  S_2
REMARK    2  A    between atoms: S_2  and  C_3
REMARK    3  A    between atoms: C_3  and  C_4
REMARK    4  A    between atoms: C_4  and  C_5
REMARK    5  A    between atoms: C_5  and  N_7
REMARK    6  A    between atoms: C_5  and  C_34
REMARK    7  A    between atoms: C_8  and  C_10
REMARK    8  A    between atoms: C_10  and  C_12
REMARK    9  A    between atoms: C_10  and  N_24
REMARK   10  A    between atoms: C_12  and  C_13
REMARK   11  A    between atoms: C_16  and  O_17
REMARK   12  A    between atoms: O_17  and  S_18
REMARK   13  A    between atoms: S_18  and  O_19
REMARK   14  A    between atoms: C_25  and  C_27
REMARK   15  A    between atoms: C_27  and  N_29
REMARK   16  A    between atoms: C_27  and  C_30
REMARK   17  A    between atoms: C_30  and  C_31
REMARK   18  A    between atoms: C_31  and  O_32
REMARK   19  A    between atoms: N_36  and  C_37
REMARK   20  A    between atoms: C_37  and  C_38
REMARK   21  A    between atoms: N_40  and  C_41
REMARK   22  A    between atoms: C_41  and  C_43
REMARK   23  A    between atoms: C_41  and  C_53
REMARK   24  A    between atoms: C_43  and  C_44
REMARK   25  A    between atoms: N_55  and  C_56
REMARK   26  A    between atoms: C_56  and  C_58
REMARK   27  A    between atoms: C_56  and  C_62
REMARK   28  A    between atoms: C_58  and  C_59
REMARK   29  A    between atoms: C_59  and  S_60
REMARK   30  A    between atoms: S_60  and  C_61
REMARK   31  A    between atoms: N_64  and  C_65
REMARK   32  A    between atoms: C_65  and  C_67
REMARK   33  A    between atoms: C_65  and  C_71
REMARK   34  A    between atoms: C_67  and  C_68
REMARK   35  A    between atoms: C_68  and  O_69
REMARK   36  A    between atoms: N_73  and  C_74
REMARK   37  A    between atoms: C_74  and  C_76
REMARK   38  A    between atoms: C_74  and  C_83
REMARK   39  A    between atoms: C_76  and  C_77
REMARK                            x       y       z     vdW  Elec       q    Type
REMARK                         _______ _______ _______ _____ _____    ______ ____
ROOT
ATOM      1  C   UNL     1       5.311 -13.884   3.826  0.00  0.00    +0.163 C 
ENDROOT
BRANCH   1   3
ATOM      2  C   UNL     1       4.747 -12.004   2.264  0.00  0.00    +0.231 C 
ATOM      3  N   UNL     1       4.604 -13.310   2.671  0.00  0.00    -0.302 N 
ATOM      4  H   UNL     1       4.008 -13.942   2.138  0.00  0.00    +0.150 HD
ATOM      5  O   UNL     1       5.586 -11.239   2.734  0.00  0.00    -0.274 OA
BRANCH   2   6
ATOM      6  C   UNL     1       3.800 -11.571   1.140  0.00  0.00    +0.200 C 
BRANCH   6   8
ATOM      7  C   UNL     1       4.372 -12.809  -0.893  0.00  0.00    +0.234 C 
ATOM      8  N   UNL     1       4.465 -11.663  -0.138  0.00  0.00    -0.305 N 
ATOM      9  H   UNL     1       5.302 -11.099  -0.252  0.00  0.00    +0.149 HD
ATOM     10  O   UNL     1       3.633 -13.750  -0.606  0.00  0.00    -0.274 OA
BRANCH   7  11
ATOM     11  C   UNL     1       5.328 -12.843  -2.091  0.00  0.00    +0.160 C 
BRANCH  11  12
ATOM     12  N   UNL     1       6.246 -13.947  -1.834  0.00  0.00    -0.302 N 
ATOM     13  H   UNL     1       5.931 -14.868  -2.109  0.00  0.00    +0.150 HD
ATOM     14  C   UNL     1       7.311 -13.849  -0.972  0.00  0.00    +0.234 C 
ATOM     15  O   UNL     1       7.469 -12.862  -0.252  0.00  0.00    -0.274 OA
BRANCH  14  16
ATOM     16  C   UNL     1       8.280 -15.065  -0.902  0.00  0.00    +0.163 C 
BRANCH  16  17
ATOM     17  N   UNL     1       8.187 -15.658   0.425  0.00  0.00    -0.302 N 
ATOM     18  H   UNL     1       7.833 -15.084   1.190  0.00  0.00    +0.150 HD
ATOM     19  C   UNL     1       8.996 -16.703   0.802  0.00  0.00    +0.231 C 
ATOM     20  O   UNL     1       9.715 -17.338   0.040  0.00  0.00    -0.274 OA
BRANCH  19  21
ATOM     21  C   UNL     1       8.926 -17.082   2.275  0.00  0.00    +0.148 C 
BRANCH  21  22
ATOM     22  N   UNL     1       8.338 -15.976   3.080  0.00  0.00    -0.320 NA
ATOM     23  H   UNL     1       8.178 -16.291   4.039  0.00  0.00    +0.119 HD
ATOM     24  H   UNL     1       9.015 -15.212   3.143  0.00  0.00    +0.119 HD
ENDBRANCH  21  22
BRANCH  21  25
ATOM     25  C   UNL     1       8.124 -18.357   2.443  0.00  0.00    +0.148 C 
BRANCH  25  26
ATOM     26  C   UNL     1       8.508 -19.569   1.638  0.00  0.00    +0.307 C 
ATOM     27  O   UNL     1       7.731 -20.131   0.877  0.00  0.00    -0.251 OA
BRANCH  26  28
ATOM     28  O   UNL     1       9.711 -20.091   1.943  0.00  0.00    -0.481 OA
ATOM     29  H   UNL     1      10.216 -19.632   2.639  0.00  0.00    +0.295 HD
ENDBRANCH  26  28
ENDBRANCH  25  26
ENDBRANCH  21  25
ENDBRANCH  19  21
ENDBRANCH  16  17
BRANCH  16  30
ATOM     30  C   UNL     1       8.121 -16.109  -2.030  0.00  0.00    +0.067 C 
BRANCH  30  31
ATOM     31  C   UNL     1       8.064 -15.548  -3.429  0.00  0.00    -0.045 A 
ATOM     32  C   UNL     1       7.198 -16.127  -4.363  0.00  0.00    +0.007 A 
ATOM     33  C   UNL     1       7.059 -15.560  -5.628  0.00  0.00    +0.049 A 
ATOM     34  C   UNL     1       7.795 -14.425  -5.973  0.00  0.00    +0.159 A 
ATOM     35  C   UNL     1       8.663 -13.852  -5.047  0.00  0.00    +0.049 A 
ATOM     36  C   UNL     1       8.825 -14.432  -3.794  0.00  0.00    +0.007 A 
BRANCH  34  37
ATOM     37  O   UNL     1       7.596 -13.950  -7.243  0.00  0.00    -0.325 OA
BRANCH  37  38
ATOM     38  S   UNL     1       8.655 -12.935  -7.947  0.00  0.00    +0.251 S 
ATOM     39  O   UNL     1       9.993 -13.480  -7.864  0.00  0.00    -0.108 OA
ATOM     40  O   UNL     1       8.350 -11.588  -7.516  0.00  0.00    -0.108 OA
BRANCH  38  41
ATOM     41  O   UNL     1       8.207 -12.994  -9.492  0.00  0.00    -0.222 OA
ATOM     42  H   UNL     1       7.421 -12.422  -9.592  0.00  0.00    +0.248 HD
ENDBRANCH  38  41
ENDBRANCH  37  38
ENDBRANCH  34  37
ENDBRANCH  30  31
ENDBRANCH  16  30
ENDBRANCH  14  16
ENDBRANCH  11  12
BRANCH  11  43
ATOM     43  C   UNL     1       4.574 -13.087  -3.407  0.00  0.00    +0.042 C 
BRANCH  43  44
ATOM     44  C   UNL     1       3.450 -12.096  -3.715  0.00  0.00    +0.071 C 
BRANCH  44  46
ATOM     45  C   UNL     1       2.461  -9.567  -4.145  0.00  0.00    +0.084 C 
ATOM     46  S   UNL     1       4.051 -10.387  -3.869  0.00  0.00    -0.164 S 
ENDBRANCH  44  46
ENDBRANCH  43  44
ENDBRANCH  11  43
ENDBRANCH   7  11
ENDBRANCH   6   8
ENDBRANCH   2   6
ENDBRANCH   1   3
BRANCH   1  47
ATOM     47  C   UNL     1       4.901 -15.377   3.989  0.00  0.00    +0.234 C 
ATOM     48  N   UNL     1       5.546 -16.070   4.998  0.00  0.00    -0.302 N 
ATOM     49  H   UNL     1       6.236 -15.590   5.565  0.00  0.00    +0.150 HD
ATOM     50  O   UNL     1       4.060 -15.900   3.257  0.00  0.00    -0.274 OA
BRANCH  48  51
ATOM     51  C   UNL     1       5.178 -17.430   5.450  0.00  0.00    +0.160 C 
BRANCH  51  52
ATOM     52  C   UNL     1       6.150 -17.774   6.619  0.00  0.00    +0.234 C 
ATOM     53  N   UNL     1       5.728 -18.759   7.487  0.00  0.00    -0.302 N 
ATOM     54  H   UNL     1       4.959 -19.347   7.178  0.00  0.00    +0.150 HD
ATOM     55  O   UNL     1       7.253 -17.233   6.714  0.00  0.00    -0.274 OA
BRANCH  53  56
ATOM     56  C   UNL     1       6.587 -19.287   8.571  0.00  0.00    +0.169 C 
BRANCH  56  57
ATOM     57  C   UNL     1       7.328 -20.550   8.061  0.00  0.00    +0.234 C 
ATOM     58  N   UNL     1       8.556 -20.847   8.606  0.00  0.00    -0.302 N 
ATOM     59  H   UNL     1       8.945 -20.296   9.369  0.00  0.00    +0.150 HD
ATOM     60  O   UNL     1       6.792 -21.304   7.247  0.00  0.00    -0.274 OA
BRANCH  58  61
ATOM     61  C   UNL     1       9.308 -22.065   8.237  0.00  0.00    +0.163 C 
BRANCH  61  62
ATOM     62  C   UNL     1      10.545 -22.253   9.138  0.00  0.00    +0.231 C 
ATOM     63  O   UNL     1      10.879 -21.433   9.991  0.00  0.00    -0.274 OA
ATOM     64  N   UNL     1      11.254 -23.416   8.976  0.00  0.00    -0.328 N 
ATOM     65  H   UNL     1      12.074 -23.556   9.553  0.00  0.00    +0.145 HD
ATOM     66  H   UNL     1      10.951 -24.185   8.393  0.00  0.00    +0.145 HD
ENDBRANCH  61  62
BRANCH  61  67
ATOM     67  C   UNL     1       9.698 -22.161   6.747  0.00  0.00    +0.067 C 
BRANCH  67  68
ATOM     68  C   UNL     1      10.603 -21.081   6.198  0.00  0.00    -0.045 A 
ATOM     69  C   UNL     1      10.054 -19.917   5.648  0.00  0.00    +0.004 A 
ATOM     70  C   UNL     1      10.876 -18.962   5.049  0.00  0.00    +0.000 A 
ATOM     71  C   UNL     1      12.249 -19.172   4.958  0.00  0.00    +0.000 A 
ATOM     72  C   UNL     1      12.811 -20.307   5.536  0.00  0.00    +0.000 A 
ATOM     73  C   UNL     1      11.995 -21.249   6.167  0.00  0.00    +0.004 A 
ENDBRANCH  67  68
ENDBRANCH  61  67
ENDBRANCH  58  61
ENDBRANCH  56  57
BRANCH  56  74
ATOM     74  C   UNL     1       5.729 -19.717   9.760  0.00  0.00    +0.152 C 
BRANCH  74  75
ATOM     75  C   UNL     1       4.958 -18.556  10.317  0.00  0.00    +0.307 C 
ATOM     76  O   UNL     1       5.483 -17.610  10.885  0.00  0.00    -0.251 OA
BRANCH  75  77
ATOM     77  O   UNL     1       3.622 -18.627  10.130  0.00  0.00    -0.481 OA
ATOM     78  H   UNL     1       3.296 -19.422   9.666  0.00  0.00    +0.295 HD
ENDBRANCH  75  77
ENDBRANCH  74  75
ENDBRANCH  56  74
ENDBRANCH  53  56
ENDBRANCH  51  52
BRANCH  51  79
ATOM     79  C   UNL     1       5.387 -18.440   4.324  0.00  0.00    +0.042 C 
BRANCH  79  80
ATOM     80  C   UNL     1       5.057 -19.906   4.552  0.00  0.00    +0.071 C 
BRANCH  80  81
ATOM     81  S   UNL     1       3.321 -20.186   4.980  0.00  0.00    -0.164 S 
ATOM     82  C   UNL     1       2.581 -19.635   3.415  0.00  0.00    +0.084 C 
ENDBRANCH  80  81
ENDBRANCH  79  80
ENDBRANCH  51  79
ENDBRANCH  48  51
ENDBRANCH   1  47
BRANCH   1  83
ATOM     83  C   UNL     1       5.040 -13.120   5.143  0.00  0.00    +0.069 C 
BRANCH  83  84
ATOM     84  C   UNL     1       3.611 -13.225   5.603  0.00  0.00    -0.020 A 
ATOM     85  C   UNL     1       3.120 -13.909   6.764  0.00  0.00    +0.003 A 
ATOM     86  C   UNL     1       1.736 -13.840   6.734  0.00  0.00    +0.047 A 
ATOM     87  C   UNL     1       0.925 -14.444   7.699  0.00  0.00    +0.026 A 
ATOM     88  C   UNL     1       1.557 -15.117   8.748  0.00  0.00    +0.002 A 
ATOM     89  C   UNL     1       2.946 -15.187   8.820  0.00  0.00    +0.001 A 
ATOM     90  N   UNL     1       1.377 -13.104   5.633  0.00  0.00    -0.360 N 
ATOM     91  H   UNL     1       0.428 -12.897   5.353  0.00  0.00    +0.165 HD
ATOM     92  C   UNL     1       3.744 -14.594   7.836  0.00  0.00    +0.010 A 
ATOM     93  C   UNL     1       2.501 -12.714   4.954  0.00  0.00    +0.087 A 
ENDBRANCH  83  84
ENDBRANCH   1  83
TORSDOF 37
