REMARK  Name = 
REMARK  12 active torsions:
REMARK  status: ('A' for Active; 'I' for Inactive)
REMARK    1  A    between atoms: C_1  and  O_2
REMARK    2  A    between atoms: O_2  and  C_3
REMARK    3  A    between atoms: C_3  and  C_5
REMARK    4  A    between atoms: C_12  and  N_13
REMARK    5  A    between atoms: C_12  and  C_32
REMARK    6  A    between atoms: N_13  and  C_14
REMARK    7  A    between atoms: C_17  and  N_20
REMARK    8  A    between atoms: N_20  and  C_21
REMARK    9  A    between atoms: C_22  and  C_24
REMARK   10  A    between atoms: C_24  and  N_25
REMARK   11  A    between atoms: N_28  and  C_29
REMARK   12  A    between atoms: C_38  and  O_39
REMARK                            x       y       z     vdW  Elec       q    Type
REMARK                         _______ _______ _______ _____ _____    ______ ____
ROOT
ATOM      1  C   UNL     1      14.267   1.483  -6.864  0.00  0.00    +0.061 A 
ATOM      2  C   UNL     1      12.921   1.879  -6.738  0.00  0.00    +0.016 A 
ATOM      3  C   UNL     1      12.267   1.824  -5.502  0.00  0.00    +0.011 A 
ATOM      4  C   UNL     1      12.966   1.348  -4.404  0.00  0.00    +0.015 A 
ATOM      5  C   UNL     1      12.619   1.043  -3.008  0.00  0.00    +0.067 C 
ATOM      6  C   UNL     1      13.827   0.323  -2.537  0.00  0.00    +0.223 C 
ATOM      7  N   UNL     1      14.812   0.288  -3.388  0.00  0.00    -0.212 NA
ATOM      8  C   UNL     1      11.518   1.326  -2.273  0.00  0.00    +0.052 C 
ATOM      9  C   UNL     1      14.298   0.912  -4.543  0.00  0.00    +0.076 A 
ATOM     10  C   UNL     1      14.967   0.997  -5.753  0.00  0.00    +0.043 A 
ENDROOT
BRANCH   8  11
ATOM     11  C   UNL     1      10.391   2.061  -2.892  0.00  0.00    -0.003 A 
ATOM     12  C   UNL     1      10.399   3.463  -2.923  0.00  0.00    +0.010 A 
ATOM     13  C   UNL     1       9.357   4.163  -3.537  0.00  0.00    +0.001 A 
ATOM     14  C   UNL     1       8.298   3.468  -4.119  0.00  0.00    +0.000 A 
ATOM     15  C   UNL     1       8.278   2.074  -4.089  0.00  0.00    +0.001 A 
ATOM     16  C   UNL     1       9.318   1.371  -3.474  0.00  0.00    +0.010 A 
ENDBRANCH   8  11
BRANCH   1  17
ATOM     17  C   UNL     1      14.884   1.533  -8.211  0.00  0.00    +0.339 C 
ATOM     18  O   UNL     1      14.242   1.511  -9.249  0.00  0.00    -0.245 OA
BRANCH  17  20
ATOM     19  C   UNL     1      16.912   1.718  -9.348  0.00  0.00    +0.280 C 
ATOM     20  O   UNL     1      16.229   1.645  -8.097  0.00  0.00    -0.464 OA
ENDBRANCH  17  20
ENDBRANCH   1  17
BRANCH   6  21
ATOM     21  O   UNL     1      13.876  -0.290  -1.358  0.00  0.00    -0.492 OA
ATOM     22  H   UNL     1      13.025  -0.218  -0.895  0.00  0.00    +0.294 HD
ENDBRANCH   6  21
BRANCH   8  23
ATOM     23  N   UNL     1      11.271   0.903  -0.965  0.00  0.00    -0.313 N 
ATOM     24  H   UNL     1      10.259   0.832  -0.814  0.00  0.00    +0.152 HD
BRANCH  23  25
ATOM     25  C   UNL     1      11.784   1.501   0.221  0.00  0.00    +0.031 A 
ATOM     26  C   UNL     1      11.508   0.863   1.433  0.00  0.00    +0.025 A 
ATOM     27  C   UNL     1      11.972   1.377   2.655  0.00  0.00    +0.025 A 
ATOM     28  C   UNL     1      12.741   2.551   2.733  0.00  0.00    +0.036 A 
ATOM     29  C   UNL     1      13.028   3.164   1.501  0.00  0.00    +0.025 A 
ATOM     30  C   UNL     1      12.570   2.646   0.267  0.00  0.00    +0.025 A 
BRANCH  28  31
ATOM     31  N   UNL     1      13.195   3.081   4.014  0.00  0.00    -0.273 N 
ATOM     32  C   UNL     1      13.672   4.409   4.173  0.00  0.00    +0.234 C 
ATOM     33  O   UNL     1      13.728   5.246   3.265  0.00  0.00    -0.274 OA
ATOM     34  C   UNL     1      13.177   2.203   5.186  0.00  0.00    +0.138 C 
BRANCH  32  35
ATOM     35  C   UNL     1      14.064   4.897   5.603  0.00  0.00    +0.181 C 
BRANCH  35  36
ATOM     36  N   UNL     1      15.183   4.136   6.193  0.00  0.00    -0.292 NA
ATOM     37  C   UNL     1      15.376   4.421   7.632  0.00  0.00    +0.100 C 
ATOM     38  C   UNL     1      16.328   5.585   8.020  0.00  0.00    +0.099 C 
ATOM     39  N   UNL     1      17.573   5.684   7.237  0.00  0.00    -0.303 NA
ATOM     40  C   UNL     1      18.551   4.672   7.641  0.00  0.00    +0.105 C 
ATOM     41  C   UNL     1      17.242   5.576   5.805  0.00  0.00    +0.099 C 
ATOM     42  C   UNL     1      16.441   4.307   5.444  0.00  0.00    +0.100 C 
ENDBRANCH  35  36
ENDBRANCH  32  35
ENDBRANCH  28  31
ENDBRANCH  23  25
ENDBRANCH   8  23
TORSDOF 9
