REMARK  Name = 
REMARK  5 active torsions:
REMARK  status: ('A' for Active; 'I' for Inactive)
REMARK    1  A    between atoms: O_1  and  C_2
REMARK    2  A    between atoms: C_2  and  C_3
REMARK    3  A    between atoms: C_6  and  O_8
REMARK    4  A    between atoms: C_12  and  O_14
REMARK    5  A    between atoms: C_15  and  O_17
REMARK                            x       y       z     vdW  Elec       q    Type
REMARK                         _______ _______ _______ _____ _____    ______ ____
ROOT
ATOM      1  C   UNL     1       2.859  -0.612   1.170  0.00  0.00    +0.178 C 
ATOM      2  C   UNL     1       4.396  -0.679   1.021  0.00  0.00    +0.177 C 
ATOM      3  C   UNL     1       4.821  -1.658  -0.092  0.00  0.00    +0.184 C 
ATOM      4  C   UNL     1       4.127  -3.008   0.072  0.00  0.00    +0.252 C 
ATOM      5  F   UNL     1       4.668  -3.635   1.157  0.00  0.00    -0.237 F 
ATOM      6  C   UNL     1       2.617  -2.818   0.241  0.00  0.00    +0.284 C 
ATOM      7  O   UNL     1       2.287  -1.934   1.298  0.00  0.00    -0.340 OA
ENDROOT
BRANCH   2   8
ATOM      8  O   UNL     1       4.956  -1.049   2.288  0.00  0.00    -0.386 OA
ATOM      9  H   UNL     1       5.825  -1.463   2.155  0.00  0.00    +0.210 HD
ENDBRANCH   2   8
BRANCH   3  10
ATOM     10  O   UNL     1       4.540  -1.087  -1.373  0.00  0.00    -0.386 OA
ATOM     11  H   UNL     1       4.826  -1.722  -2.057  0.00  0.00    +0.210 HD
ENDBRANCH   3  10
BRANCH   6  12
ATOM     12  O   UNL     1       1.993  -4.065   0.498  0.00  0.00    -0.365 OA
ATOM     13  H   UNL     1       1.158  -3.810   0.929  0.00  0.00    +0.213 HD
ENDBRANCH   6  12
BRANCH   1  14
ATOM     14  C   UNL     1       2.196   0.208   0.044  0.00  0.00    +0.190 C 
BRANCH  14  15
ATOM     15  O   UNL     1       0.805   0.379   0.305  0.00  0.00    -0.392 OA
ATOM     16  H   UNL     1       0.435   0.890  -0.435  0.00  0.00    +0.210 HD
ENDBRANCH  14  15
ENDBRANCH   1  14
TORSDOF 5
