REMARK  Name = 
REMARK  8 active torsions:
REMARK  status: ('A' for Active; 'I' for Inactive)
REMARK    1  A    between atoms: C_2  and  C_5
REMARK    2  A    between atoms: C_7  and  N_8
REMARK    3  A    between atoms: N_8  and  C_9
REMARK    4  A    between atoms: C_10  and  C_15
REMARK    5  A    between atoms: C_15  and  O_17
REMARK    6  A    between atoms: O_17  and  C_18
REMARK    7  A    between atoms: C_18  and  C_19
REMARK    8  A    between atoms: C_19  and  N_20
REMARK                            x       y       z     vdW  Elec       q    Type
REMARK                         _______ _______ _______ _____ _____    ______ ____
ROOT
ATOM      1  C   UNL     1      -0.114   4.583   0.071  0.00  0.00    +0.137 A 
ATOM      2  N   UNL     1      -0.773   5.714  -0.328  0.00  0.00    -0.239 NA
ATOM      3  C   UNL     1      -1.847   5.621  -1.123  0.00  0.00    +0.113 A 
ATOM      4  C   UNL     1      -2.375   4.422  -1.523  0.00  0.00    +0.021 A 
ATOM      5  C   UNL     1      -1.811   3.267  -0.999  0.00  0.00    +0.020 A 
ATOM      6  C   UNL     1      -0.680   3.321  -0.138  0.00  0.00    +0.099 A 
ENDROOT
BRANCH   1   7
ATOM      7  N   UNL     1       1.214   4.801   0.521  0.00  0.00    -0.299 N 
ATOM      8  H   UNL     1       1.259   4.805   1.534  0.00  0.00    +0.154 HD
BRANCH   7  13
ATOM      9  C   UNL     1       2.546   7.112  -2.123  0.00  0.00    +0.057 A 
ATOM     10  C   UNL     1       3.595   7.739  -1.447  0.00  0.00    +0.012 A 
ATOM     11  C   UNL     1       3.881   7.380  -0.123  0.00  0.00    +0.002 A 
ATOM     12  C   UNL     1       3.103   6.419   0.553  0.00  0.00    +0.023 A 
ATOM     13  C   UNL     1       2.034   5.799  -0.091  0.00  0.00    +0.033 A 
ATOM     14  C   UNL     1       1.829   6.119  -1.448  0.00  0.00    +0.035 A 
BRANCH   9  16
ATOM     15  F   UNL     1       1.131   6.725  -4.027  0.00  0.00    -0.166 F 
ATOM     16  C   UNL     1       2.142   7.490  -3.524  0.00  0.00    +0.417 C 
ATOM     17  F   UNL     1       1.701   8.776  -3.613  0.00  0.00    -0.166 F 
ATOM     18  F   UNL     1       3.164   7.381  -4.416  0.00  0.00    -0.166 F 
ENDBRANCH   9  16
ENDBRANCH   7  13
ENDBRANCH   1   7
BRANCH   6  19
ATOM     19  C   UNL     1      -0.144   2.014   0.357  0.00  0.00    +0.343 C 
ATOM     20  O   UNL     1       0.990   1.773   0.731  0.00  0.00    -0.245 OA
BRANCH  19  21
ATOM     21  O   UNL     1      -1.182   1.136   0.303  0.00  0.00    -0.460 OA
BRANCH  21  22
ATOM     22  C   UNL     1      -0.967  -0.290   0.314  0.00  0.00    +0.248 C 
BRANCH  22  23
ATOM     23  C   UNL     1      -1.296  -0.889  -1.080  0.00  0.00    +0.125 C 
BRANCH  23  24
ATOM     24  N   UNL     1      -0.552  -0.304  -2.196  0.00  0.00    -0.295 NA
ATOM     25  C   UNL     1       0.916  -0.346  -2.074  0.00  0.00    +0.112 C 
ATOM     26  C   UNL     1       1.501   0.561  -3.170  0.00  0.00    +0.175 C 
ATOM     27  O   UNL     1       1.137   0.094  -4.479  0.00  0.00    -0.377 OA
ATOM     28  C   UNL     1      -0.292  -0.001  -4.607  0.00  0.00    +0.175 C 
ATOM     29  C   UNL     1      -0.896  -0.893  -3.508  0.00  0.00    +0.112 C 
ENDBRANCH  23  24
ENDBRANCH  22  23
ENDBRANCH  21  22
ENDBRANCH  19  21
ENDBRANCH   6  19
TORSDOF 8
