REMARK  Name = 
REMARK  5 active torsions:
REMARK  status: ('A' for Active; 'I' for Inactive)
REMARK    1  A    between atoms: C_1  and  O_2
REMARK    2  A    between atoms: O_2  and  C_3
REMARK    3  A    between atoms: C_4  and  O_5
REMARK    4  A    between atoms: C_8  and  C_9
REMARK    5  A    between atoms: C_9  and  C_10
REMARK                            x       y       z     vdW  Elec       q    Type
REMARK                         _______ _______ _______ _____ _____    ______ ____
ROOT
ATOM      1  C   UNL     1       3.135   1.151   0.579  0.00  0.00    +0.162 A 
ATOM      2  C   UNL     1       4.217   0.823   1.396  0.00  0.00    +0.053 A 
ATOM      3  C   UNL     1       4.882   1.818   2.132  0.00  0.00    -0.040 A 
ATOM      4  C   UNL     1       4.429   3.145   2.062  0.00  0.00    +0.008 A 
ATOM      5  C   UNL     1       3.328   3.473   1.271  0.00  0.00    +0.049 A 
ATOM      6  C   UNL     1       2.698   2.478   0.535  0.00  0.00    +0.158 A 
ENDROOT
BRANCH   1   8
ATOM      7  C   UNL     1       3.118  -0.946  -0.509  0.00  0.00    +0.277 C 
ATOM      8  O   UNL     1       2.438   0.269  -0.209  0.00  0.00    -0.491 OA
ENDBRANCH   1   8
BRANCH   6   9
ATOM      9  O   UNL     1       1.648   2.834  -0.269  0.00  0.00    -0.503 OA
ATOM     10  H   UNL     1       1.394   2.011  -0.729  0.00  0.00    +0.292 HD
ENDBRANCH   6   9
BRANCH   3  11
ATOM     11  C   UNL     1       6.111   1.464   2.938  0.00  0.00    +0.061 C 
BRANCH  11  12
ATOM     12  C   UNL     1       7.359   1.488   2.098  0.00  0.00    -0.030 C 
ATOM     13  C   UNL     1       8.186   0.448   1.930  0.00  0.00    +0.004 C 
ENDBRANCH  11  12
ENDBRANCH   3  11
TORSDOF 4
