REMARK  Name = 
REMARK  7 active torsions:
REMARK  status: ('A' for Active; 'I' for Inactive)
REMARK    1  A    between atoms: C_1  and  N_2
REMARK    2  A    between atoms: N_2  and  C_3
REMARK    3  A    between atoms: N_5  and  C_6
REMARK    4  A    between atoms: C_12  and  C_13
REMARK    5  A    between atoms: C_13  and  C_14
REMARK    6  A    between atoms: C_14  and  C_15
REMARK    7  A    between atoms: C_15  and  O_16
REMARK                            x       y       z     vdW  Elec       q    Type
REMARK                         _______ _______ _______ _____ _____    ______ ____
ROOT
ATOM      1  C   UNL     1       5.023   1.718   1.909  0.00  0.00    +0.092 A 
ATOM      2  C   UNL     1       5.848   1.012   2.846  0.00  0.00    +0.044 A 
ATOM      3  I   UNL     1       5.898  -1.135   2.637  0.00  0.00    -0.041 I 
ATOM      4  C   UNL     1       6.535   1.655   3.924  0.00  0.00    -0.019 A 
ATOM      5  C   UNL     1       6.359   3.056   4.027  0.00  0.00    +0.019 A 
ATOM      6  I   UNL     1       7.175   4.284   5.560  0.00  0.00    -0.043 I 
ATOM      7  C   UNL     1       5.540   3.760   3.135  0.00  0.00    +0.031 A 
ATOM      8  C   UNL     1       4.858   3.100   2.113  0.00  0.00    +0.041 A 
ATOM      9  I   UNL     1       3.495   4.323   1.039  0.00  0.00    -0.042 I 
ENDROOT
BRANCH   1  13
ATOM     10  C   UNL     1       3.597   1.673  -2.616  0.00  0.00    +0.129 C 
ATOM     11  N   UNL     1       3.800   0.859  -1.429  0.00  0.00    -0.327 N 
ATOM     12  C   UNL     1       4.438   1.386  -0.329  0.00  0.00    +0.184 C 
ATOM     13  N   UNL     1       4.319   1.002   0.900  0.00  0.00    -0.238 NA
ATOM     14  C   UNL     1       3.115  -0.419  -1.350  0.00  0.00    +0.129 C 
ENDBRANCH   1  13
BRANCH   4  15
ATOM     15  C   UNL     1       7.315   0.900   4.997  0.00  0.00    +0.048 C 
BRANCH  15  16
ATOM     16  C   UNL     1       8.614   0.159   4.660  0.00  0.00    +0.125 C 
BRANCH  16  17
ATOM     17  C   UNL     1       9.693   0.991   4.015  0.00  0.00    +0.305 C 
ATOM     18  O   UNL     1       9.604   2.162   3.693  0.00  0.00    -0.251 OA
BRANCH  17  19
ATOM     19  O   UNL     1      10.832   0.277   3.822  0.00  0.00    -0.481 OA
ATOM     20  H   UNL     1      10.776  -0.651   4.119  0.00  0.00    +0.295 HD
ENDBRANCH  17  19
ENDBRANCH  16  17
ENDBRANCH  15  16
ENDBRANCH   4  15
TORSDOF 5
