REMARK  Name = 
REMARK  5 active torsions:
REMARK  status: ('A' for Active; 'I' for Inactive)
REMARK    1  A    between atoms: C_1  and  C_2
REMARK    2  A    between atoms: C_2  and  C_4
REMARK    3  A    between atoms: C_5  and  C_6
REMARK    4  A    between atoms: C_15  and  N_18
REMARK    5  A    between atoms: N_26  and  C_27
REMARK                            x       y       z     vdW  Elec       q    Type
REMARK                         _______ _______ _______ _____ _____    ______ ____
ROOT
ATOM      1  C   UNL     1       3.394  -0.891   0.724  0.00  0.00    +0.085 A 
ATOM      2  C   UNL     1       3.066  -2.336   0.494  0.00  0.00    +0.264 A 
ATOM      3  O   UNL     1       2.328  -2.632  -0.445  0.00  0.00    -0.267 OA
ATOM      4  N   UNL     1       3.585  -3.288   1.345  0.00  0.00    -0.289 N 
ATOM      5  C   UNL     1       4.518  -2.953   2.361  0.00  0.00    +0.149 A 
ATOM      6  C   UNL     1       4.844  -1.622   2.548  0.00  0.00    +0.040 A 
ATOM      7  C   UNL     1       5.706  -1.407   3.609  0.00  0.00    +0.126 A 
ATOM      8  N   UNL     1       6.188  -2.368   4.424  0.00  0.00    -0.222 NA
ATOM      9  C   UNL     1       5.870  -3.628   4.127  0.00  0.00    +0.222 A 
ATOM     10  N   UNL     1       6.418  -4.617   4.931  0.00  0.00    -0.268 N 
ATOM     11  H   UNL     1       6.394  -4.390   5.910  0.00  0.00    +0.156 HD
ATOM     12  C   UNL     1       6.639  -5.963   4.660  0.00  0.00    +0.125 A 
ATOM     13  C   UNL     1       7.021  -6.374   3.390  0.00  0.00    +0.045 A 
ATOM     14  C   UNL     1       7.376  -7.702   3.173  0.00  0.00    +0.028 A 
ATOM     15  C   UNL     1       7.296  -8.639   4.198  0.00  0.00    +0.048 A 
ATOM     16  C   UNL     1       6.851  -8.146   5.423  0.00  0.00    +0.136 A 
ATOM     17  N   UNL     1       6.562  -6.839   5.686  0.00  0.00    -0.238 NA
ATOM     18  N   UNL     1       5.042  -3.943   3.119  0.00  0.00    -0.196 NA
ATOM     19  C   UNL     1       4.264  -0.544   1.706  0.00  0.00    -0.023 A 
ATOM     20  C   UNL     1       4.687   0.863   2.062  0.00  0.00    +0.045 C 
ENDROOT
BRANCH  15  21
ATOM     21  N   UNL     1       7.622  -9.951   3.924  0.00  0.00    -0.326 N 
ATOM     22  C   UNL     1       9.038 -10.252   3.643  0.00  0.00    +0.120 C 
ATOM     23  C   UNL     1       9.104 -11.471   2.694  0.00  0.00    +0.100 C 
ATOM     24  N   UNL     1       8.365 -12.655   3.185  0.00  0.00    -0.313 NA
ATOM     25  H   UNL     1       8.308 -13.337   2.428  0.00  0.00    +0.122 HD
ATOM     26  C   UNL     1       6.990 -12.277   3.583  0.00  0.00    +0.100 C 
ATOM     27  C   UNL     1       6.924 -11.072   4.558  0.00  0.00    +0.120 C 
ENDBRANCH  15  21
BRANCH   4  28
ATOM     28  C   UNL     1       2.994  -4.631   1.269  0.00  0.00    +0.092 C 
ATOM     29  C   UNL     1       2.056  -4.967   2.434  0.00  0.00    +0.025 C 
ATOM     30  C   UNL     1       2.011  -6.495   2.482  0.00  0.00    +0.002 C 
ATOM     31  C   UNL     1       2.893  -6.986   1.335  0.00  0.00    +0.002 C 
ATOM     32  C   UNL     1       3.891  -5.854   1.108  0.00  0.00    +0.025 C 
ENDBRANCH   4  28
BRANCH   1  34
ATOM     33  C   UNL     1       1.322  -0.155  -0.686  0.00  0.00    +0.092 C 
ATOM     34  C   UNL     1       2.712   0.134  -0.158  0.00  0.00    +0.166 C 
ATOM     35  O   UNL     1       3.264   1.192  -0.457  0.00  0.00    -0.292 OA
ENDBRANCH   1  34
TORSDOF 3
