REMARK  Name = 
REMARK  7 active torsions:
REMARK  status: ('A' for Active; 'I' for Inactive)
REMARK    1  A    between atoms: C_2  and  C_4
REMARK    2  A    between atoms: C_4  and  N_22
REMARK    3  A    between atoms: N_7  and  C_8
REMARK    4  A    between atoms: C_8  and  C_9
REMARK    5  A    between atoms: C_9  and  C_10
REMARK    6  A    between atoms: C_10  and  C_11
REMARK    7  A    between atoms: C_11  and  C_13
REMARK                            x       y       z     vdW  Elec       q    Type
REMARK                         _______ _______ _______ _____ _____    ______ ____
ROOT
ATOM      1  C   UNL     1       3.064  -1.225   0.540  0.00  0.00    +0.101 C 
ATOM      2  C   UNL     1       4.505  -0.777   0.112  0.00  0.00    +0.047 C 
ATOM      3  C   UNL     1       4.768  -0.989  -1.383  0.00  0.00    +0.086 C 
ATOM      4  N   UNL     1       4.515  -2.368  -1.827  0.00  0.00    -0.302 NA
ATOM      5  C   UNL     1       3.120  -2.719  -1.551  0.00  0.00    +0.086 C 
ATOM      6  C   UNL     1       2.780  -2.616  -0.072  0.00  0.00    +0.047 C 
ENDROOT
BRANCH   1   7
ATOM      7  N   UNL     1       2.820  -1.184   2.030  0.00  0.00    -0.289 NA
ATOM      8  C   UNL     1       3.994  -1.131   2.906  0.00  0.00    +0.085 C 
ATOM      9  C   UNL     1       4.704  -2.480   3.013  0.00  0.00    +0.015 C 
ATOM     10  C   UNL     1       3.776  -3.592   3.485  0.00  0.00    +0.002 C 
ATOM     11  C   UNL     1       2.363  -3.534   2.903  0.00  0.00    +0.015 C 
ATOM     12  C   UNL     1       1.842  -2.113   2.610  0.00  0.00    +0.085 C 
ENDBRANCH   1   7
BRANCH   1  16
ATOM     13  N   UNL     1       0.913  -0.471  -0.576  0.00  0.00    -0.328 N 
ATOM     14  H   UNL     1       0.424  -1.288  -0.244  0.00  0.00    +0.145 HD
ATOM     15  H   UNL     1       0.357   0.295  -0.934  0.00  0.00    +0.145 HD
ATOM     16  C   UNL     1       2.139  -0.114  -0.092  0.00  0.00    +0.231 C 
ATOM     17  O   UNL     1       2.455   1.078  -0.179  0.00  0.00    -0.274 OA
ENDBRANCH   1  16
BRANCH   4  18
ATOM     18  C   UNL     1       5.498  -3.320  -1.277  0.00  0.00    +0.085 C 
BRANCH  18  19
ATOM     19  C   UNL     1       5.356  -4.741  -1.828  0.00  0.00    +0.023 C 
BRANCH  19  20
ATOM     20  C   UNL     1       5.400  -4.755  -3.352  0.00  0.00    +0.081 C 
BRANCH  20  21
ATOM     21  C   UNL     1       5.198  -6.144  -3.911  0.00  0.00    +0.163 C 
ATOM     22  O   UNL     1       5.060  -7.138  -3.203  0.00  0.00    -0.292 OA
BRANCH  21  23
ATOM     23  C   UNL     1       5.220  -6.305  -5.390  0.00  0.00    +0.018 A 
ATOM     24  C   UNL     1       4.873  -5.256  -6.261  0.00  0.00    +0.014 A 
ATOM     25  C   UNL     1       4.932  -5.454  -7.640  0.00  0.00    +0.039 A 
ATOM     26  C   UNL     1       5.335  -6.685  -8.140  0.00  0.00    +0.123 A 
ATOM     27  F   UNL     1       5.403  -6.869  -9.466  0.00  0.00    -0.205 F 
ATOM     28  C   UNL     1       5.669  -7.734  -7.288  0.00  0.00    +0.039 A 
ATOM     29  C   UNL     1       5.605  -7.543  -5.911  0.00  0.00    +0.014 A 
ENDBRANCH  21  23
ENDBRANCH  20  21
ENDBRANCH  19  20
ENDBRANCH  18  19
ENDBRANCH   4  18
TORSDOF 7
