REMARK  Name = 
REMARK  6 active torsions:
REMARK  status: ('A' for Active; 'I' for Inactive)
REMARK    1  A    between atoms: C_2  and  C_3
REMARK    2  A    between atoms: C_2  and  C_4
REMARK    3  A    between atoms: C_2  and  C_7
REMARK    4  A    between atoms: C_4  and  O_5
REMARK    5  A    between atoms: C_9  and  C_13
REMARK    6  A    between atoms: C_13  and  C_15
REMARK                            x       y       z     vdW  Elec       q    Type
REMARK                         _______ _______ _______ _____ _____    ______ ____
ROOT
ATOM      1  C   UNL     1       2.615   0.923  -1.156  0.00  0.00    -0.033 A 
ATOM      2  C   UNL     1       2.750   0.503  -2.487  0.00  0.00    +0.004 A 
ATOM      3  C   UNL     1       2.881   1.436  -3.519  0.00  0.00    +0.001 A 
ATOM      4  C   UNL     1       2.837   2.802  -3.240  0.00  0.00    +0.012 A 
ATOM      5  C   UNL     1       2.678   3.244  -1.924  0.00  0.00    +0.023 A 
ATOM      6  C   UNL     1       2.624   2.305  -0.886  0.00  0.00    +0.016 A 
ENDROOT
BRANCH   1   7
ATOM      7  C   UNL     1       2.328  -0.037  -0.006  0.00  0.00    +0.124 C 
ATOM      8  C   UNL     1       2.930  -1.433  -0.168  0.00  0.00    +0.024 C 
BRANCH   7   9
ATOM      9  C   UNL     1       0.843  -0.173   0.337  0.00  0.00    +0.312 C 
ATOM     10  O   UNL     1       0.453  -0.703   1.371  0.00  0.00    -0.250 OA
BRANCH   9  11
ATOM     11  O   UNL     1      -0.039   0.306  -0.567  0.00  0.00    -0.480 OA
ATOM     12  H   UNL     1       0.350   0.684  -1.378  0.00  0.00    +0.295 HD
ENDBRANCH   9  11
ENDBRANCH   7   9
ENDBRANCH   1   7
BRANCH   5  13
ATOM     13  C   UNL     1       2.554   4.706  -1.676  0.00  0.00    +0.193 C 
ATOM     14  O   UNL     1       3.124   5.485  -2.433  0.00  0.00    -0.287 OA
BRANCH  13  15
ATOM     15  C   UNL     1       1.744   5.248  -0.543  0.00  0.00    +0.022 A 
ATOM     16  C   UNL     1       2.095   6.498  -0.020  0.00  0.00    +0.012 A 
ATOM     17  C   UNL     1       1.395   7.028   1.064  0.00  0.00    +0.001 A 
ATOM     18  C   UNL     1       0.337   6.316   1.629  0.00  0.00    +0.000 A 
ATOM     19  C   UNL     1      -0.044   5.091   1.088  0.00  0.00    +0.001 A 
ATOM     20  C   UNL     1       0.643   4.565  -0.008  0.00  0.00    +0.012 A 
ENDBRANCH  13  15
ENDBRANCH   5  13
TORSDOF 5
