REMARK  Name = 
REMARK  10 active torsions:
REMARK  status: ('A' for Active; 'I' for Inactive)
REMARK    1  A    between atoms: C_1  and  O_2
REMARK    2  A    between atoms: O_2  and  C_3
REMARK    3  A    between atoms: C_6  and  C_9
REMARK    4  A    between atoms: C_9  and  C_11
REMARK    5  A    between atoms: C_11  and  C_12
REMARK    6  A    between atoms: C_12  and  C_14
REMARK    7  A    between atoms: C_17  and  C_20
REMARK    8  A    between atoms: C_20  and  C_21
REMARK    9  A    between atoms: C_20  and  C_22
REMARK   10  A    between atoms: C_20  and  C_23
REMARK                            x       y       z     vdW  Elec       q    Type
REMARK                         _______ _______ _______ _____ _____    ______ ____
ROOT
ATOM      1  C   UNL     1       4.614  -6.388  -4.157  0.00  0.00    +0.171 C 
ATOM      2  O   UNL     1       3.674  -5.646  -4.428  0.00  0.00    -0.292 OA
ENDROOT
BRANCH   1   3
ATOM      3  C   UNL     1       4.408  -7.866  -4.166  0.00  0.00    +0.018 A 
ATOM      4  C   UNL     1       3.229  -8.396  -4.695  0.00  0.00    +0.011 A 
ATOM      5  C   UNL     1       3.065  -9.785  -4.798  0.00  0.00    +0.005 A 
ATOM      6  C   UNL     1       4.073 -10.676  -4.382  0.00  0.00    -0.042 A 
ATOM      7  C   UNL     1       5.224 -10.119  -3.806  0.00  0.00    +0.005 A 
ATOM      8  C   UNL     1       5.393  -8.739  -3.699  0.00  0.00    +0.011 A 
BRANCH   6   9
ATOM      9  C   UNL     1       3.920 -12.194  -4.584  0.00  0.00    -0.013 C 
ATOM     10  C   UNL     1       3.697 -12.497  -6.081  0.00  0.00    +0.015 C 
ATOM     11  C   UNL     1       2.721 -12.722  -3.773  0.00  0.00    +0.015 C 
ATOM     12  C   UNL     1       5.170 -12.996  -4.144  0.00  0.00    +0.015 C 
ENDBRANCH   6   9
ENDBRANCH   1   3
BRANCH   1  13
ATOM     13  C   UNL     1       6.009  -5.879  -3.878  0.00  0.00    +0.159 C 
BRANCH  13  14
ATOM     14  C   UNL     1       6.226  -4.400  -4.057  0.00  0.00    +0.171 C 
ATOM     15  O   UNL     1       6.589  -3.705  -3.108  0.00  0.00    -0.292 OA
BRANCH  14  19
ATOM     16  C   UNL     1       6.036  -2.576  -7.948  0.00  0.00    +0.120 A 
ATOM     17  C   UNL     1       5.748  -3.932  -7.812  0.00  0.00    +0.046 A 
ATOM     18  C   UNL     1       5.808  -4.543  -6.557  0.00  0.00    +0.015 A 
ATOM     19  C   UNL     1       6.125  -3.792  -5.420  0.00  0.00    +0.018 A 
ATOM     20  C   UNL     1       6.381  -2.422  -5.555  0.00  0.00    +0.015 A 
ATOM     21  C   UNL     1       6.332  -1.819  -6.813  0.00  0.00    +0.046 A 
BRANCH  16  23
ATOM     22  C   UNL     1       6.387  -2.675 -10.269  0.00  0.00    +0.277 C 
ATOM     23  O   UNL     1       6.023  -1.895  -9.134  0.00  0.00    -0.495 OA
ENDBRANCH  16  23
ENDBRANCH  14  19
ENDBRANCH  13  14
ENDBRANCH   1  13
TORSDOF 6
