REMARK  Name = 
REMARK  9 active torsions:
REMARK  status: ('A' for Active; 'I' for Inactive)
REMARK    1  A    between atoms: C_2  and  C_33
REMARK    2  A    between atoms: C_3  and  C_5
REMARK    3  A    between atoms: C_9  and  C_11
REMARK    4  A    between atoms: C_21  and  N_27
REMARK    5  A    between atoms: C_28  and  O_29
REMARK    6  A    between atoms: C_28  and  O_30
REMARK    7  A    between atoms: O_30  and  C_31
REMARK    8  A    between atoms: C_31  and  C_32
REMARK    9  A    between atoms: C_36  and  C_39
REMARK                            x       y       z     vdW  Elec       q    Type
REMARK                         _______ _______ _______ _____ _____    ______ ____
ROOT
ATOM      1  C   UNL     1       1.686   1.827  -1.533  0.00  0.00    +0.022 C 
ATOM      2  C   UNL     1       1.733   1.559  -3.046  0.00  0.00    -0.000 C 
ATOM      3  C   UNL     1       2.626   2.493  -3.856  0.00  0.00    -0.005 C 
ATOM      4  C   UNL     1       2.424   2.198  -5.357  0.00  0.00    +0.030 C 
ATOM      5  C   UNL     1       2.485   0.705  -5.741  0.00  0.00    +0.112 C 
ATOM      6  C   UNL     1       1.711  -0.205  -4.782  0.00  0.00    +0.027 C 
ATOM      7  C   UNL     1       2.230   3.940  -3.524  0.00  0.00    +0.019 C 
ATOM      8  C   UNL     1       2.484   4.283  -2.063  0.00  0.00    +0.105 C 
ATOM      9  C   UNL     1       1.655   5.415  -1.517  0.00  0.00    +0.311 C 
ATOM     10  O   UNL     1       1.284   6.400  -2.132  0.00  0.00    -0.251 OA
ATOM     11  O   UNL     1       1.489   5.241  -0.172  0.00  0.00    -0.461 OA
ATOM     12  C   UNL     1       1.483   3.841   0.095  0.00  0.00    +0.178 C 
ATOM     13  C   UNL     1       2.057   3.534   1.470  0.00  0.00    +0.052 C 
ATOM     14  C   UNL     1       2.078   0.092  -3.340  0.00  0.00    +0.006 C 
ATOM     15  C   UNL     1       2.262   3.174  -1.045  0.00  0.00    +0.050 C 
ENDROOT
BRANCH   1  17
ATOM     16  C   UNL     1      -0.095   0.475  -0.431  0.00  0.00    +0.024 C 
ATOM     17  C   UNL     1       0.250   1.556  -1.142  0.00  0.00    -0.021 C 
BRANCH  16  18
ATOM     18  C   UNL     1      -1.456   0.092  -0.068  0.00  0.00    +0.064 A 
ATOM     19  C   UNL     1      -1.612  -1.012   0.758  0.00  0.00    +0.028 A 
ATOM     20  C   UNL     1      -2.887  -1.347   1.196  0.00  0.00    +0.012 A 
ATOM     21  C   UNL     1      -3.998  -0.600   0.786  0.00  0.00    +0.000 A 
ATOM     22  C   UNL     1      -3.727   0.449  -0.095  0.00  0.00    +0.120 A 
ATOM     23  N   UNL     1      -2.492   0.820  -0.519  0.00  0.00    -0.255 NA
BRANCH  21  24
ATOM     24  C   UNL     1      -5.351  -0.894   1.301  0.00  0.00    -0.014 A 
ATOM     25  C   UNL     1      -6.303   0.125   1.485  0.00  0.00    +0.009 A 
ATOM     26  C   UNL     1      -7.573  -0.141   2.009  0.00  0.00    +0.003 A 
ATOM     27  C   UNL     1      -7.915  -1.438   2.375  0.00  0.00    +0.038 A 
ATOM     28  C   UNL     1      -6.986  -2.453   2.211  0.00  0.00    +0.124 A 
ATOM     29  F   UNL     1      -7.300  -3.703   2.578  0.00  0.00    -0.205 F 
ATOM     30  C   UNL     1      -5.726  -2.197   1.677  0.00  0.00    +0.047 A 
ENDBRANCH  21  24
ENDBRANCH  16  18
ENDBRANCH   1  17
BRANCH   5  31
ATOM     31  N   UNL     1       1.858   0.556  -7.049  0.00  0.00    -0.213 NA
ATOM     32  C   UNL     1       2.520   0.568  -8.137  0.00  0.00    +0.384 C 
BRANCH  32  33
ATOM     33  O   UNL     1       3.844   0.736  -8.256  0.00  0.00    -0.466 OA
ATOM     34  H   UNL     1       4.247   0.957  -7.411  0.00  0.00    +0.297 HD
ENDBRANCH  32  33
BRANCH  32  35
ATOM     35  O   UNL     1       1.973   0.417  -9.360  0.00  0.00    -0.450 OA
BRANCH  35  36
ATOM     36  C   UNL     1       0.548   0.553  -9.435  0.00  0.00    +0.230 C 
ATOM     37  C   UNL     1       0.109   0.180 -10.838  0.00  0.00    +0.048 C 
ENDBRANCH  35  36
ENDBRANCH  32  35
ENDBRANCH   5  31
TORSDOF 7
