REMARK  Name = 
REMARK  8 active torsions:
REMARK  status: ('A' for Active; 'I' for Inactive)
REMARK    1  A    between atoms: C_1  and  C_2
REMARK    2  A    between atoms: C_2  and  C_3
REMARK    3  A    between atoms: C_3  and  C_4
REMARK    4  A    between atoms: C_4  and  C_5
REMARK    5  A    between atoms: C_5  and  C_6
REMARK    6  A    between atoms: C_6  and  N_7
REMARK    7  A    between atoms: C_8  and  O_9
REMARK    8  A    between atoms: C_14  and  O_15
REMARK                            x       y       z     vdW  Elec       q    Type
REMARK                         _______ _______ _______ _____ _____    ______ ____
ROOT
ATOM      1  N   UNL     1       7.199   1.929   3.736  0.00  0.00    -0.234 NA
ATOM      2  C   UNL     1       8.458   2.011   3.970  0.00  0.00    +0.299 C 
ATOM      3  N   UNL     1       8.945   2.555   5.153  0.00  0.00    -0.219 N 
ATOM      4  C   UNL     1      10.204   2.165   5.677  0.00  0.00    +0.360 A 
ATOM      5  O   UNL     1      10.900   1.295   5.160  0.00  0.00    -0.244 OA
ATOM      6  N   UNL     1      10.635   2.733   6.865  0.00  0.00    -0.155 NA
ATOM      7  C   UNL     1       9.853   3.551   7.464  0.00  0.00    +0.255 A 
ATOM      8  C   UNL     1       8.545   3.985   7.003  0.00  0.00    +0.201 A 
ATOM      9  F   UNL     1       7.858   4.886   7.722  0.00  0.00    -0.198 F 
ATOM     10  C   UNL     1       8.143   3.454   5.856  0.00  0.00    +0.144 A 
ENDROOT
BRANCH   7  11
ATOM     11  O   UNL     1      10.223   4.094   8.638  0.00  0.00    -0.490 OA
ATOM     12  H   UNL     1       9.550   4.687   9.011  0.00  0.00    +0.294 HD
ENDBRANCH   7  11
BRANCH   2  13
ATOM     13  O   UNL     1       9.390   1.628   3.080  0.00  0.00    -0.479 OA
ATOM     14  H   UNL     1       9.009   1.308   2.254  0.00  0.00    +0.295 HD
ENDBRANCH   2  13
BRANCH   1  15
ATOM     15  C   UNL     1       6.699   1.282   2.532  0.00  0.00    +0.147 C 
BRANCH  15  16
ATOM     16  C   UNL     1       5.172   1.226   2.595  0.00  0.00    +0.023 C 
BRANCH  16  17
ATOM     17  C   UNL     1       4.560   2.627   2.617  0.00  0.00    +0.002 C 
BRANCH  17  18
ATOM     18  C   UNL     1       3.033   2.582   2.637  0.00  0.00    -0.000 C 
BRANCH  18  20
ATOM     19  C   UNL     1       0.938   3.982   2.702  0.00  0.00    +0.004 C 
ATOM     20  C   UNL     1       2.458   3.997   2.680  0.00  0.00    -0.003 C 
ENDBRANCH  18  20
ENDBRANCH  17  18
ENDBRANCH  16  17
ENDBRANCH  15  16
ENDBRANCH   1  15
TORSDOF 7
