REMARK  Name = 
REMARK  25 active torsions:
REMARK  status: ('A' for Active; 'I' for Inactive)
REMARK    1  A    between atoms: C_1  and  O_2
REMARK    2  A    between atoms: O_2  and  C_3
REMARK    3  A    between atoms: N_5  and  C_6
REMARK    4  A    between atoms: C_6  and  C_8
REMARK    5  A    between atoms: C_6  and  C_11
REMARK    6  A    between atoms: C_8  and  C_9
REMARK    7  A    between atoms: C_8  and  C_10
REMARK    8  A    between atoms: C_17  and  C_19
REMARK    9  A    between atoms: N_21  and  C_22
REMARK   10  A    between atoms: C_25  and  C_28
REMARK   11  A    between atoms: C_32  and  C_45
REMARK   12  A    between atoms: N_34  and  C_35
REMARK   13  A    between atoms: C_38  and  C_41
REMARK   14  A    between atoms: C_41  and  C_42
REMARK   15  A    between atoms: C_41  and  C_43
REMARK   16  A    between atoms: C_41  and  C_44
REMARK   17  A    between atoms: C_48  and  N_49
REMARK   18  A    between atoms: C_50  and  C_52
REMARK   19  A    between atoms: C_58  and  C_60
REMARK   20  A    between atoms: C_60  and  N_62
REMARK   21  A    between atoms: C_60  and  C_67
REMARK   22  A    between atoms: C_63  and  O_65
REMARK   23  A    between atoms: O_65  and  C_66
REMARK   24  A    between atoms: C_67  and  C_68
REMARK   25  A    between atoms: C_67  and  C_69
REMARK                            x       y       z     vdW  Elec       q    Type
REMARK                         _______ _______ _______ _____ _____    ______ ____
ROOT
ATOM      1  C   UNL     1       0.970 -12.494   3.228  0.00  0.00    +0.104 C 
ATOM      2  N   UNL     1       1.745 -11.305   2.825  0.00  0.00    -0.316 N 
ATOM      3  C   UNL     1       2.549 -10.791   3.955  0.00  0.00    +0.104 C 
ATOM      4  C   UNL     1       2.060 -11.626   5.156  0.00  0.00    +0.029 C 
ATOM      5  C   UNL     1       1.687 -12.949   4.510  0.00  0.00    +0.029 C 
ENDROOT
BRANCH   1   9
ATOM      6  C   UNL     1      -3.234 -11.598   3.827  0.00  0.00    +0.033 A 
ATOM      7  C   UNL     1      -2.723 -12.862   4.145  0.00  0.00    +0.023 A 
ATOM      8  C   UNL     1      -1.368 -13.146   3.958  0.00  0.00    +0.007 A 
ATOM      9  C   UNL     1      -0.496 -12.160   3.479  0.00  0.00    -0.027 A 
ATOM     10  C   UNL     1      -1.026 -10.885   3.219  0.00  0.00    +0.007 A 
ATOM     11  C   UNL     1      -2.378 -10.607   3.382  0.00  0.00    +0.023 A 
BRANCH   6  13
ATOM     12  C   UNL     1      -5.379 -10.337   3.543  0.00  0.00    +0.238 C 
ATOM     13  N   UNL     1      -4.609 -11.407   3.969  0.00  0.00    -0.284 N 
ATOM     14  H   UNL     1      -5.126 -12.197   4.323  0.00  0.00    +0.155 HD
ATOM     15  O   UNL     1      -4.971  -9.318   2.992  0.00  0.00    -0.273 OA
BRANCH  12  18
ATOM     16  C   UNL     1      -7.290 -12.927   3.836  0.00  0.00    +0.237 C 
ATOM     17  N   UNL     1      -7.172 -11.768   4.581  0.00  0.00    -0.288 N 
ATOM     18  C   UNL     1      -6.876 -10.488   3.902  0.00  0.00    +0.162 C 
ATOM     19  C   UNL     1      -7.233  -9.398   4.923  0.00  0.00    +0.033 C 
ATOM     20  C   UNL     1      -7.757 -10.132   6.149  0.00  0.00    +0.021 C 
ATOM     21  C   UNL     1      -7.240 -11.548   6.009  0.00  0.00    +0.109 C 
ATOM     22  O   UNL     1      -7.293 -12.857   2.603  0.00  0.00    -0.274 OA
BRANCH  16  23
ATOM     23  C   UNL     1      -7.481 -14.317   4.518  0.00  0.00    +0.165 C 
BRANCH  23  25
ATOM     24  C   UNL     1      -5.664 -15.114   6.053  0.00  0.00    +0.401 C 
ATOM     25  N   UNL     1      -6.817 -14.447   5.813  0.00  0.00    -0.270 N 
ATOM     26  H   UNL     1      -7.254 -14.092   6.650  0.00  0.00    +0.153 HD
ATOM     27  O   UNL     1      -4.988 -15.710   5.235  0.00  0.00    -0.226 OA
BRANCH  24  29
ATOM     28  C   UNL     1      -4.272 -15.736   7.853  0.00  0.00    +0.282 C 
ATOM     29  O   UNL     1      -5.403 -15.005   7.377  0.00  0.00    -0.454 OA
ENDBRANCH  24  29
ENDBRANCH  23  25
BRANCH  23  30
ATOM     30  C   UNL     1      -8.962 -14.752   4.623  0.00  0.00    +0.012 C 
ATOM     31  C   UNL     1      -9.628 -14.913   3.253  0.00  0.00    +0.009 C 
ATOM     32  C   UNL     1      -9.810 -13.837   5.505  0.00  0.00    +0.009 C 
ENDBRANCH  23  30
ENDBRANCH  16  23
ENDBRANCH  12  18
ENDBRANCH   6  13
ENDBRANCH   1   9
BRANCH   2  33
ATOM     33  C   UNL     1       1.723 -10.770   1.549  0.00  0.00    +0.031 A 
ATOM     34  C   UNL     1       2.066  -9.438   1.282  0.00  0.00    +0.023 A 
ATOM     35  C   UNL     1       2.103  -8.923  -0.029  0.00  0.00    +0.006 A 
ATOM     36  C   UNL     1       1.813  -9.726  -1.142  0.00  0.00    -0.042 A 
ATOM     37  C   UNL     1       1.436 -11.045  -0.874  0.00  0.00    +0.006 A 
ATOM     38  C   UNL     1       1.386 -11.546   0.434  0.00  0.00    +0.023 A 
BRANCH  36  39
ATOM     39  C   UNL     1       1.931  -9.182  -2.576  0.00  0.00    -0.013 C 
ATOM     40  C   UNL     1       3.368  -8.681  -2.838  0.00  0.00    +0.015 C 
ATOM     41  C   UNL     1       0.948  -8.013  -2.787  0.00  0.00    +0.015 C 
ATOM     42  C   UNL     1       1.622 -10.248  -3.655  0.00  0.00    +0.015 C 
ENDBRANCH  36  39
ENDBRANCH   2  33
BRANCH   3  43
ATOM     43  C   UNL     1       4.049 -10.978   3.763  0.00  0.00    -0.027 A 
ATOM     44  C   UNL     1       4.955 -10.559   4.754  0.00  0.00    +0.007 A 
ATOM     45  C   UNL     1       6.338 -10.666   4.559  0.00  0.00    +0.023 A 
ATOM     46  C   UNL     1       6.835 -11.147   3.347  0.00  0.00    +0.033 A 
ATOM     47  C   UNL     1       5.942 -11.636   2.400  0.00  0.00    +0.023 A 
ATOM     48  C   UNL     1       4.576 -11.558   2.607  0.00  0.00    +0.007 A 
BRANCH  46  49
ATOM     49  N   UNL     1       8.222 -11.081   3.092  0.00  0.00    -0.284 N 
ATOM     50  H   UNL     1       8.797 -10.805   3.874  0.00  0.00    +0.155 HD
ATOM     51  C   UNL     1       8.734 -10.979   1.808  0.00  0.00    +0.238 C 
ATOM     52  O   UNL     1       8.037 -11.010   0.792  0.00  0.00    -0.273 OA
BRANCH  51  53
ATOM     53  C   UNL     1      10.263 -10.779   1.656  0.00  0.00    +0.162 C 
ATOM     54  N   UNL     1      10.409  -9.789   0.576  0.00  0.00    -0.288 N 
ATOM     55  C   UNL     1      10.157  -9.993  -0.775  0.00  0.00    +0.237 C 
ATOM     56  O   UNL     1       9.871  -9.043  -1.513  0.00  0.00    -0.274 OA
ATOM     57  C   UNL     1      10.390  -8.441   1.132  0.00  0.00    +0.109 C 
ATOM     58  C   UNL     1      10.497  -8.623   2.647  0.00  0.00    +0.021 C 
ATOM     59  C   UNL     1      10.965 -10.067   2.809  0.00  0.00    +0.033 C 
BRANCH  55  60
ATOM     60  C   UNL     1      10.290 -11.430  -1.359  0.00  0.00    +0.165 C 
BRANCH  60  61
ATOM     61  N   UNL     1       8.997 -11.885  -1.861  0.00  0.00    -0.270 N 
ATOM     62  H   UNL     1       8.420 -11.251  -2.397  0.00  0.00    +0.153 HD
ATOM     63  C   UNL     1       8.419 -13.047  -1.456  0.00  0.00    +0.401 C 
ATOM     64  O   UNL     1       8.926 -13.855  -0.683  0.00  0.00    -0.226 OA
BRANCH  63  65
ATOM     65  O   UNL     1       7.216 -13.199  -2.064  0.00  0.00    -0.454 OA
ATOM     66  C   UNL     1       6.514 -14.388  -1.692  0.00  0.00    +0.282 C 
ENDBRANCH  63  65
ENDBRANCH  60  61
BRANCH  60  67
ATOM     67  C   UNL     1      11.333 -11.403  -2.509  0.00  0.00    +0.012 C 
ATOM     68  C   UNL     1      11.445 -12.753  -3.226  0.00  0.00    +0.009 C 
ATOM     69  C   UNL     1      12.716 -11.003  -1.981  0.00  0.00    +0.009 C 
ENDBRANCH  60  67
ENDBRANCH  55  60
ENDBRANCH  51  53
ENDBRANCH  46  49
ENDBRANCH   3  43
TORSDOF 16
