REMARK  Name = 
REMARK  8 active torsions:
REMARK  status: ('A' for Active; 'I' for Inactive)
REMARK    1  A    between atoms: C_1  and  C_2
REMARK    2  A    between atoms: C_2  and  C_3
REMARK    3  A    between atoms: C_7  and  O_8
REMARK    4  A    between atoms: O_8  and  C_9
REMARK    5  A    between atoms: C_9  and  C_10
REMARK    6  A    between atoms: C_13  and  C_14
REMARK    7  A    between atoms: C_17  and  S_20
REMARK    8  A    between atoms: S_20  and  C_21
REMARK                            x       y       z     vdW  Elec       q    Type
REMARK                         _______ _______ _______ _____ _____    ______ ____
ROOT
ATOM      1  C   UNL     1       1.024  -0.119   0.103  0.00  0.00    +0.061 C 
ATOM      2  C   UNL     1       2.554   0.049   0.073  0.00  0.00    +0.137 C 
ATOM      3  C   UNL     1       3.067   1.202   0.905  0.00  0.00    +0.051 C 
ATOM      4  C   UNL     1       3.491   0.723   2.094  0.00  0.00    +0.212 C 
ATOM      5  C   UNL     1       3.479  -0.756   1.996  0.00  0.00    +0.376 C 
ATOM      6  O   UNL     1       3.812  -1.540   2.865  0.00  0.00    -0.241 OA
ATOM      7  O   UNL     1       3.063  -1.112   0.752  0.00  0.00    -0.448 OA
ATOM      8  C   UNL     1       3.091  -0.001  -1.356  0.00  0.00    +0.061 C 
ENDROOT
BRANCH   3   9
ATOM      9  C   UNL     1       3.041   2.605   0.431  0.00  0.00    -0.014 A 
ATOM     10  C   UNL     1       1.996   3.118  -0.349  0.00  0.00    +0.010 A 
ATOM     11  C   UNL     1       1.884   4.486  -0.611  0.00  0.00    +0.027 A 
ATOM     12  C   UNL     1       2.829   5.363  -0.092  0.00  0.00    +0.088 A 
ATOM     13  C   UNL     1       3.942   4.874   0.584  0.00  0.00    +0.027 A 
ATOM     14  C   UNL     1       4.072   3.494   0.781  0.00  0.00    +0.010 A 
BRANCH  12  15
ATOM     15  S   UNL     1       2.541   7.113  -0.185  0.00  0.00    -0.006 S 
ATOM     16  O   UNL     1       3.179   7.714   0.971  0.00  0.00    -0.170 OA
ATOM     17  O   UNL     1       1.129   7.309  -0.438  0.00  0.00    -0.170 OA
ATOM     18  C   UNL     1       3.431   7.605  -1.632  0.00  0.00    +0.200 C 
ENDBRANCH  12  15
ENDBRANCH   3   9
BRANCH   4  19
ATOM     19  O   UNL     1       3.892   1.292   3.271  0.00  0.00    -0.485 OA
BRANCH  19  20
ATOM     20  C   UNL     1       3.453   2.606   3.596  0.00  0.00    +0.233 C 
BRANCH  20  21
ATOM     21  C   UNL     1       3.331   2.765   5.079  0.00  0.00    +0.027 C 
ATOM     22  C   UNL     1       1.986   2.923   5.740  0.00  0.00    +0.007 C 
ATOM     23  C   UNL     1       2.894   4.113   5.603  0.00  0.00    +0.007 C 
ENDBRANCH  20  21
ENDBRANCH  19  20
ENDBRANCH   4  19
TORSDOF 5
