REMARK  Name = 
REMARK  13 active torsions:
REMARK  status: ('A' for Active; 'I' for Inactive)
REMARK    1  A    between atoms: C_1  and  O_2
REMARK    2  A    between atoms: O_2  and  C_3
REMARK    3  A    between atoms: C_4  and  O_5
REMARK    4  A    between atoms: C_8  and  C_9
REMARK    5  A    between atoms: C_9  and  N_10
REMARK    6  A    between atoms: C_11  and  C_13
REMARK    7  A    between atoms: C_13  and  C_14
REMARK    8  A    between atoms: C_14  and  C_15
REMARK    9  A    between atoms: C_15  and  C_16
REMARK   10  A    between atoms: C_16  and  C_17
REMARK   11  A    between atoms: C_18  and  C_19
REMARK   12  A    between atoms: C_19  and  C_20
REMARK   13  A    between atoms: C_19  and  C_21
REMARK                            x       y       z     vdW  Elec       q    Type
REMARK                         _______ _______ _______ _____ _____    ______ ____
ROOT
ATOM      1  N   UNL     1       2.789  -4.630   2.772  0.00  0.00    -0.311 N 
ATOM      2  H   UNL     1       2.047  -4.261   2.187  0.00  0.00    +0.149 HD
ATOM      3  C   UNL     1       3.266  -5.895   2.536  0.00  0.00    +0.213 C 
ATOM      4  O   UNL     1       4.254  -6.374   3.082  0.00  0.00    -0.276 OA
ENDROOT
BRANCH   1   5
ATOM      5  C   UNL     1       3.470  -3.731   3.660  0.00  0.00    +0.139 C 
BRANCH   5   8
ATOM      6  C   UNL     1       1.815  -0.729   5.287  0.00  0.00    +0.162 A 
ATOM      7  C   UNL     1       2.627  -1.503   4.461  0.00  0.00    +0.054 A 
ATOM      8  C   UNL     1       2.494  -2.900   4.446  0.00  0.00    -0.027 A 
ATOM      9  C   UNL     1       1.502  -3.509   5.230  0.00  0.00    +0.009 A 
ATOM     10  C   UNL     1       0.662  -2.735   6.025  0.00  0.00    +0.049 A 
ATOM     11  C   UNL     1       0.828  -1.359   6.050  0.00  0.00    +0.158 A 
BRANCH   6  13
ATOM     12  C   UNL     1       3.167   1.193   5.079  0.00  0.00    +0.277 C 
ATOM     13  O   UNL     1       1.900   0.634   5.422  0.00  0.00    -0.491 OA
ENDBRANCH   6  13
BRANCH  11  14
ATOM     14  O   UNL     1       0.020  -0.623   6.875  0.00  0.00    -0.503 OA
ATOM     15  H   UNL     1       0.329   0.298   6.774  0.00  0.00    +0.292 HD
ENDBRANCH  11  14
ENDBRANCH   5   8
ENDBRANCH   1   5
BRANCH   3  16
ATOM     16  C   UNL     1       2.496  -6.603   1.454  0.00  0.00    +0.096 C 
BRANCH  16  17
ATOM     17  C   UNL     1       2.649  -8.119   1.495  0.00  0.00    +0.009 C 
BRANCH  17  18
ATOM     18  C   UNL     1       1.775  -8.847   0.467  0.00  0.00    +0.004 C 
BRANCH  18  19
ATOM     19  C   UNL     1       2.176  -8.660  -1.006  0.00  0.00    +0.027 C 
BRANCH  19  20
ATOM     20  C   UNL     1       2.021  -7.255  -1.519  0.00  0.00    -0.031 C 
ATOM     21  C   UNL     1       2.914  -6.576  -2.260  0.00  0.00    -0.028 C 
BRANCH  21  22
ATOM     22  C   UNL     1       4.185  -7.135  -2.855  0.00  0.00    +0.005 C 
ATOM     23  C   UNL     1       5.382  -6.934  -1.928  0.00  0.00    +0.011 C 
ATOM     24  C   UNL     1       4.447  -6.493  -4.219  0.00  0.00    +0.011 C 
ENDBRANCH  21  22
ENDBRANCH  19  20
ENDBRANCH  18  19
ENDBRANCH  17  18
ENDBRANCH  16  17
ENDBRANCH   3  16
TORSDOF 10
