REMARK  Name = 
REMARK  9 active torsions:
REMARK  status: ('A' for Active; 'I' for Inactive)
REMARK    1  A    between atoms: O_2  and  C_3
REMARK    2  A    between atoms: C_3  and  C_5
REMARK    3  A    between atoms: C_5  and  N_6
REMARK    4  A    between atoms: N_9  and  C_10
REMARK    5  A    between atoms: C_10  and  C_11
REMARK    6  A    between atoms: N_16  and  C_17
REMARK    7  A    between atoms: C_17  and  C_18
REMARK    8  A    between atoms: N_23  and  C_24
REMARK    9  A    between atoms: C_24  and  C_25
REMARK                            x       y       z     vdW  Elec       q    Type
REMARK                         _______ _______ _______ _____ _____    ______ ____
ROOT
ATOM      1 GD   UNL     1       0.881  -1.903  -1.235  0.00  0.00    +0.000 Gd
ENDROOT
TORSDOF 0
REMARK  Name = 
REMARK  9 active torsions:
REMARK  status: ('A' for Active; 'I' for Inactive)
REMARK    1  A    between atoms: O_2  and  C_3
REMARK    2  A    between atoms: C_3  and  C_5
REMARK    3  A    between atoms: C_5  and  N_6
REMARK    4  A    between atoms: N_9  and  C_10
REMARK    5  A    between atoms: C_10  and  C_11
REMARK    6  A    between atoms: N_16  and  C_17
REMARK    7  A    between atoms: C_17  and  C_18
REMARK    8  A    between atoms: N_23  and  C_24
REMARK    9  A    between atoms: C_24  and  C_25
REMARK                            x       y       z     vdW  Elec       q    Type
REMARK                         _______ _______ _______ _____ _____    ______ ____
ROOT
ATOM      1  N   UNL     1       4.614   0.415  -1.249  0.00  0.00    +0.000 NA
ATOM      2  C   UNL     1       5.463   1.567  -1.651  0.00  0.00    +0.000 C 
ATOM      3  C   UNL     1       5.953   2.333  -0.416  0.00  0.00    +0.000 C 
ATOM      4  N   UNL     1       7.296   2.926  -0.654  0.00  0.00    +0.000 NA
ATOM      5  C   UNL     1       8.222   2.724   0.483  0.00  0.00    +0.000 C 
ATOM      6  C   UNL     1       8.968   1.359   0.412  0.00  0.00    +0.000 C 
ATOM      7  N   UNL     1       8.143   0.176   0.763  0.00  0.00    +0.000 NA
ATOM      8  C   UNL     1       8.779  -1.074   0.271  0.00  0.00    +0.000 C 
ATOM      9  C   UNL     1       7.879  -2.317   0.384  0.00  0.00    +0.000 C 
ATOM     10  N   UNL     1       6.932  -2.361  -0.756  0.00  0.00    +0.000 NA
ATOM     11  C   UNL     1       5.634  -1.705  -0.446  0.00  0.00    +0.000 C 
ATOM     12  C   UNL     1       5.109  -0.923  -1.663  0.00  0.00    +0.000 C 
ENDROOT
BRANCH   1  13
ATOM     13  C   UNL     1       3.155   0.606  -1.230  0.00  0.00    +0.000 C 
BRANCH  13  14
ATOM     14  C   UNL     1       2.527   0.591  -2.605  0.00  0.00    +0.000 C 
ATOM     15  O   UNL     1       3.212   0.450  -3.605  0.00  0.00    +0.000 OA
BRANCH  14  16
ATOM     16  O   UNL     1       1.190   0.722  -2.738  0.00  0.00    +0.000 OA
ATOM     17  H   UNL     1       0.610   0.825  -1.970  0.00  0.00    +0.000 HD
ENDBRANCH  14  16
ENDBRANCH  13  14
ENDBRANCH   1  13
BRANCH   4  18
ATOM     18  C   UNL     1       7.218   4.351  -1.068  0.00  0.00    +0.000 C 
BRANCH  18  19
ATOM     19  C   UNL     1       8.566   4.850  -1.542  0.00  0.00    +0.000 C 
ATOM     20  O   UNL     1       9.117   5.776  -0.968  0.00  0.00    -0.500 OA
ATOM     21  O   UNL     1       9.186   4.245  -2.573  0.00  0.00    -0.500 OA
ENDBRANCH  18  19
ENDBRANCH   4  18
BRANCH   7  22
ATOM     22  C   UNL     1       7.709   0.167   2.202  0.00  0.00    +0.000 C 
BRANCH  22  23
ATOM     23  C   UNL     1       8.493  -0.617   3.251  0.00  0.00    +0.000 C 
ATOM     24  O   UNL     1       8.058  -0.633   4.392  0.00  0.00    -0.500 OA
ATOM     25  O   UNL     1       9.627  -1.292   3.003  0.00  0.00    -0.500 OA
ENDBRANCH  22  23
ENDBRANCH   7  22
BRANCH  10  26
ATOM     26  C   UNL     1       6.802  -3.739  -1.270  0.00  0.00    +0.000 C 
BRANCH  26  27
ATOM     27  C   UNL     1       6.076  -3.791  -2.579  0.00  0.00    +0.000 C 
ATOM     28  O   UNL     1       5.069  -4.472  -2.696  0.00  0.00    -0.500 OA
ATOM     29  O   UNL     1       6.548  -3.110  -3.643  0.00  0.00    -0.500 OA
ENDBRANCH  26  27
ENDBRANCH  10  26
TORSDOF 9
