REMARK  Name = 
REMARK  6 active torsions:
REMARK  status: ('A' for Active; 'I' for Inactive)
REMARK    1  A    between atoms: O_4  and  C_5
REMARK    2  A    between atoms: C_5  and  C_6
REMARK    3  A    between atoms: C_5  and  C_10
REMARK    4  A    between atoms: C_5  and  C_14
REMARK    5  A    between atoms: C_6  and  C_7
REMARK    6  A    between atoms: C_10  and  C_11
REMARK                            x       y       z     vdW  Elec       q    Type
REMARK                         _______ _______ _______ _____ _____    ______ ____
ROOT
ATOM      1  K   UNL     1       0.554   1.428   2.271  0.00  0.00    +0.000 K 
ENDROOT
TORSDOF 0
REMARK  Name = 
REMARK  6 active torsions:
REMARK  status: ('A' for Active; 'I' for Inactive)
REMARK    1  A    between atoms: O_4  and  C_5
REMARK    2  A    between atoms: C_5  and  C_6
REMARK    3  A    between atoms: C_5  and  C_10
REMARK    4  A    between atoms: C_5  and  C_14
REMARK    5  A    between atoms: C_6  and  C_7
REMARK    6  A    between atoms: C_10  and  C_11
REMARK                            x       y       z     vdW  Elec       q    Type
REMARK                         _______ _______ _______ _____ _____    ______ ____
ROOT
ATOM      1  K   UNL     1       2.390  -3.457   1.305  0.00  0.00    +0.000 K 
ENDROOT
TORSDOF 0
REMARK  Name = 
REMARK  6 active torsions:
REMARK  status: ('A' for Active; 'I' for Inactive)
REMARK    1  A    between atoms: O_4  and  C_5
REMARK    2  A    between atoms: C_5  and  C_6
REMARK    3  A    between atoms: C_5  and  C_10
REMARK    4  A    between atoms: C_5  and  C_14
REMARK    5  A    between atoms: C_6  and  C_7
REMARK    6  A    between atoms: C_10  and  C_11
REMARK                            x       y       z     vdW  Elec       q    Type
REMARK                         _______ _______ _______ _____ _____    ______ ____
ROOT
ATOM      1  K   UNL     1       0.825   0.162  -3.384  0.00  0.00    +0.000 K 
ENDROOT
TORSDOF 0
REMARK  Name = 
REMARK  6 active torsions:
REMARK  status: ('A' for Active; 'I' for Inactive)
REMARK    1  A    between atoms: O_4  and  C_5
REMARK    2  A    between atoms: C_5  and  C_6
REMARK    3  A    between atoms: C_5  and  C_10
REMARK    4  A    between atoms: C_5  and  C_14
REMARK    5  A    between atoms: C_6  and  C_7
REMARK    6  A    between atoms: C_10  and  C_11
REMARK                            x       y       z     vdW  Elec       q    Type
REMARK                         _______ _______ _______ _____ _____    ______ ____
ROOT
ATOM      1  C   UNL     1       2.609   0.171  -0.025  0.00  0.00    +0.000 C 
ENDROOT
BRANCH   1   2
ATOM      2  C   UNL     1       2.925  -0.578   1.314  0.00  0.00    +0.000 C 
ATOM      3  O   UNL     1       3.816  -1.472   1.325  0.00  0.00    -0.500 OA
ATOM      4  O   UNL     1       2.139  -0.309   2.284  0.00  0.00    -0.500 OA
ENDBRANCH   1   2
BRANCH   1   5
ATOM      5  O   UNL     1       1.143   0.342  -0.134  0.00  0.00    +0.000 OA
ATOM      6  H   UNL     1       1.049   1.052  -0.819  0.00  0.00    +0.000 HD
ENDBRANCH   1   5
BRANCH   1   7
ATOM      7  C   UNL     1       3.186   1.607   0.084  0.00  0.00    +0.000 C 
BRANCH   7   8
ATOM      8  C   UNL     1       2.686   2.575  -0.999  0.00  0.00    +0.000 C 
ATOM      9  O   UNL     1       3.252   3.695  -1.029  0.00  0.00    -0.500 OA
ATOM     10  O   UNL     1       1.672   2.167  -1.666  0.00  0.00    -0.500 OA
ENDBRANCH   7   8
ENDBRANCH   1   7
BRANCH   1  11
ATOM     11  C   UNL     1       3.176  -0.540  -1.255  0.00  0.00    +0.000 C 
BRANCH  11  12
ATOM     12  C   UNL     1       2.413  -1.782  -1.699  0.00  0.00    +0.000 C 
ATOM     13  O   UNL     1       2.175  -1.810  -2.947  0.00  0.00    -0.500 OA
ATOM     14  O   UNL     1       1.955  -2.559  -0.820  0.00  0.00    -0.500 OA
ENDBRANCH  11  12
ENDBRANCH   1  11
TORSDOF 6
