REMARK  Name = 
REMARK  7 active torsions:
REMARK  status: ('A' for Active; 'I' for Inactive)
REMARK    1  A    between atoms: C_6  and  O_7
REMARK    2  A    between atoms: O_7  and  C_8
REMARK    3  A    between atoms: C_8  and  C_9
REMARK    4  A    between atoms: C_9  and  C_10
REMARK    5  A    between atoms: C_10  and  C_11
REMARK    6  A    between atoms: C_11  and  N_12
REMARK    7  A    between atoms: N_15  and  C_18
REMARK                            x       y       z     vdW  Elec       q    Type
REMARK                         _______ _______ _______ _____ _____    ______ ____
ROOT
ATOM      1  C   UNL     1      10.391   5.029  -0.488  0.00  0.00    +0.019 C 
ENDROOT
BRANCH   1   2
ATOM      2  C   UNL     1      10.954   4.079   0.575  0.00  0.00    +0.042 C 
BRANCH   2   3
ATOM      3  C   UNL     1      10.842   4.668   1.974  0.00  0.00    +0.229 C 
BRANCH   3   4
ATOM      4  O   UNL     1      11.282   3.713   2.939  0.00  0.00    -0.492 OA
BRANCH   4  12
ATOM      5  O   UNL     1      12.925   2.137   9.588  0.00  0.00    -0.268 OA
ATOM      6  C   UNL     1      12.424   2.923   8.792  0.00  0.00    +0.249 A 
ATOM      7  C   UNL     1      11.855   4.211   9.261  0.00  0.00    +0.071 A 
ATOM      8  C   UNL     1      11.320   5.091   8.402  0.00  0.00    +0.015 A 
ATOM      9  C   UNL     1      11.293   4.788   6.973  0.00  0.00    -0.001 A 
ATOM     10  C   UNL     1      11.806   3.563   6.520  0.00  0.00    +0.053 A 
ATOM     11  C   UNL     1      11.782   3.235   5.164  0.00  0.00    +0.072 A 
ATOM     12  C   UNL     1      11.256   4.139   4.240  0.00  0.00    +0.122 A 
ATOM     13  C   UNL     1      10.757   5.367   4.689  0.00  0.00    +0.046 A 
ATOM     14  C   UNL     1      10.770   5.690   6.049  0.00  0.00    +0.013 A 
ATOM     15  N   UNL     1      12.354   2.669   7.450  0.00  0.00    -0.322 N 
ATOM     16  H   UNL     1      12.743   1.787   7.143  0.00  0.00    +0.169 HD
ENDBRANCH   4  12
ENDBRANCH   3   4
ENDBRANCH   2   3
ENDBRANCH   1   2
BRANCH   1  17
ATOM     17  C   UNL     1      11.091   6.397  -0.579  0.00  0.00    +0.084 C 
BRANCH  17  18
ATOM     18  N   UNL     1      12.543   6.324  -0.790  0.00  0.00    -0.299 NA
ATOM     19  C   UNL     1      13.162   7.674  -0.712  0.00  0.00    +0.103 C 
ATOM     20  C   UNL     1      12.854   8.618  -1.906  0.00  0.00    +0.120 C 
ATOM     21  N   UNL     1      13.188   7.946  -3.172  0.00  0.00    -0.327 N 
ATOM     22  C   UNL     1      12.610   6.608  -3.337  0.00  0.00    +0.120 C 
ATOM     23  C   UNL     1      12.917   5.731  -2.098  0.00  0.00    +0.103 C 
BRANCH  21  24
ATOM     24  C   UNL     1      13.561   8.708  -4.285  0.00  0.00    +0.038 A 
ATOM     25  C   UNL     1      14.667   9.582  -4.134  0.00  0.00    +0.024 A 
ATOM     26  C   UNL     1      15.229  10.281  -5.194  0.00  0.00    +0.003 A 
ATOM     27  C   UNL     1      14.714  10.136  -6.473  0.00  0.00    +0.016 A 
ATOM     28  C   UNL     1      13.594   9.307  -6.658  0.00  0.00    +0.021 A 
ATOM     29  S   UNL     1      12.819   9.003  -8.171  0.00  0.00    -0.097 S 
ATOM     30  C   UNL     1      11.633   8.027  -7.450  0.00  0.00    +0.046 A 
ATOM     31  C   UNL     1      11.818   7.922  -6.092  0.00  0.00    +0.018 A 
ATOM     32  C   UNL     1      12.989   8.613  -5.600  0.00  0.00    +0.010 A 
ENDBRANCH  21  24
ENDBRANCH  17  18
ENDBRANCH   1  17
TORSDOF 7
