REMARK  Name = 
REMARK  6 active torsions:
REMARK  status: ('A' for Active; 'I' for Inactive)
REMARK    1  A    between atoms: C_1  and  N_2
REMARK    2  A    between atoms: C_3  and  C_5
REMARK    3  A    between atoms: C_8  and  C_9
REMARK    4  A    between atoms: C_9  and  O_10
REMARK    5  A    between atoms: C_14  and  N_15
REMARK    6  A    between atoms: C_16  and  C_17
REMARK                            x       y       z     vdW  Elec       q    Type
REMARK                         _______ _______ _______ _____ _____    ______ ____
ROOT
ATOM      1  C   UNL     1       4.447   1.118  -0.379  0.00  0.00    +0.065 A 
ATOM      2  C   UNL     1       5.083   0.698  -1.575  0.00  0.00    +0.049 A 
ATOM      3  I   UNL     1       3.951   0.469  -3.402  0.00  0.00    -0.041 I 
ATOM      4  C   UNL     1       6.494   0.643  -1.657  0.00  0.00    +0.061 A 
ATOM      5  C   UNL     1       7.268   1.139  -0.579  0.00  0.00    +0.051 A 
ATOM      6  I   UNL     1       9.412   1.209  -0.841  0.00  0.00    -0.041 I 
ATOM      7  C   UNL     1       6.661   1.587   0.613  0.00  0.00    +0.088 A 
ATOM      8  C   UNL     1       5.247   1.537   0.722  0.00  0.00    +0.042 A 
ATOM      9  I   UNL     1       4.316   1.973   2.627  0.00  0.00    -0.042 I 
ENDROOT
BRANCH   1  13
ATOM     10  C   UNL     1       0.783   0.167  -0.691  0.00  0.00    +0.128 C 
ATOM     11  N   UNL     1       2.227   0.109  -0.633  0.00  0.00    -0.314 N 
ATOM     12  H   UNL     1       2.680  -0.630  -1.153  0.00  0.00    +0.149 HD
ATOM     13  C   UNL     1       2.956   1.236  -0.304  0.00  0.00    +0.246 C 
ATOM     14  O   UNL     1       2.437   2.298   0.013  0.00  0.00    -0.270 OA
ENDBRANCH   1  13
BRANCH   4  15
ATOM     15  N   UNL     1       7.164   0.337  -2.863  0.00  0.00    -0.284 N 
ATOM     16  H   UNL     1       7.964   0.916  -3.089  0.00  0.00    +0.155 HD
ATOM     17  C   UNL     1       7.363  -0.883  -3.465  0.00  0.00    +0.214 C 
ATOM     18  O   UNL     1       8.206  -0.954  -4.362  0.00  0.00    -0.276 OA
ATOM     19  C   UNL     1       6.637  -2.124  -3.020  0.00  0.00    +0.109 C 
ENDBRANCH   4  15
BRANCH   7  20
ATOM     20  C   UNL     1       7.474   2.235   1.687  0.00  0.00    +0.339 C 
ATOM     21  O   UNL     1       7.248   3.361   2.095  0.00  0.00    -0.245 OA
BRANCH  20  22
ATOM     22  O   UNL     1       8.454   1.455   2.189  0.00  0.00    -0.477 OA
ATOM     23  H   UNL     1       8.736   0.708   1.628  0.00  0.00    +0.295 HD
ENDBRANCH  20  22
ENDBRANCH   7  20
TORSDOF 4
