REMARK  Name = 
REMARK  10 active torsions:
REMARK  status: ('A' for Active; 'I' for Inactive)
REMARK    1  A    between atoms: C_1  and  C_2
REMARK    2  A    between atoms: C_2  and  C_3
REMARK    3  A    between atoms: C_3  and  C_4
REMARK    4  A    between atoms: N_6  and  C_7
REMARK    5  A    between atoms: C_13  and  C_14
REMARK    6  A    between atoms: C_14  and  C_15
REMARK    7  A    between atoms: C_15  and  C_16
REMARK    8  A    between atoms: C_15  and  C_18
REMARK    9  A    between atoms: C_16  and  C_17
REMARK   10  A    between atoms: C_18  and  O_19
REMARK                            x       y       z     vdW  Elec       q    Type
REMARK                         _______ _______ _______ _____ _____    ______ ____
ROOT
ATOM      1  C   UNL     1       6.703  -2.068  -1.154  0.00  0.00    +0.060 A 
ATOM      2  C   UNL     1       7.426  -3.258  -0.897  0.00  0.00    +0.040 A 
ATOM      3  I   UNL     1       6.452  -4.778   0.332  0.00  0.00    -0.042 I 
ATOM      4  C   UNL     1       8.823  -3.345  -1.109  0.00  0.00    -0.019 A 
ATOM      5  C   UNL     1       9.507  -2.125  -1.302  0.00  0.00    +0.019 A 
ATOM      6  I   UNL     1      11.613  -1.935  -1.332  0.00  0.00    -0.043 I 
ATOM      7  C   UNL     1       8.814  -0.911  -1.418  0.00  0.00    +0.031 A 
ATOM      8  C   UNL     1       7.421  -0.889  -1.386  0.00  0.00    +0.037 A 
ATOM      9  I   UNL     1       6.476   0.951  -1.756  0.00  0.00    -0.042 I 
ENDROOT
BRANCH   1  11
ATOM     10  C   UNL     1       4.598  -2.967  -2.005  0.00  0.00    +0.217 C 
ATOM     11  N   UNL     1       5.286  -2.037  -1.239  0.00  0.00    -0.284 N 
ATOM     12  H   UNL     1       4.861  -1.116  -1.195  0.00  0.00    +0.155 HD
ATOM     13  O   UNL     1       5.116  -3.873  -2.657  0.00  0.00    -0.275 OA
BRANCH  10  14
ATOM     14  C   UNL     1       3.108  -2.724  -2.058  0.00  0.00    +0.096 C 
BRANCH  14  16
ATOM     15  C   UNL     1       1.276  -1.508  -3.275  0.00  0.00    +0.004 C 
ATOM     16  C   UNL     1       2.776  -1.689  -3.125  0.00  0.00    +0.006 C 
ENDBRANCH  14  16
ENDBRANCH  10  14
ENDBRANCH   1  11
BRANCH   4  17
ATOM     17  C   UNL     1       9.535  -4.689  -1.163  0.00  0.00    +0.052 C 
BRANCH  17  18
ATOM     18  C   UNL     1       8.990  -5.710  -2.200  0.00  0.00    +0.102 C 
BRANCH  18  19
ATOM     19  C   UNL     1       9.805  -6.991  -2.099  0.00  0.00    +0.308 C 
ATOM     20  O   UNL     1      10.955  -7.058  -1.699  0.00  0.00    -0.251 OA
BRANCH  19  21
ATOM     21  O   UNL     1       9.129  -8.090  -2.516  0.00  0.00    -0.480 OA
ATOM     22  H   UNL     1       8.217  -7.908  -2.811  0.00  0.00    +0.295 HD
ENDBRANCH  19  21
ENDBRANCH  18  19
BRANCH  18  23
ATOM     23  C   UNL     1       8.928  -5.234  -3.664  0.00  0.00    +0.011 C 
ATOM     24  C   UNL     1      10.252  -4.812  -4.280  0.00  0.00    +0.004 C 
ENDBRANCH  18  23
ENDBRANCH  17  18
ENDBRANCH   4  17
TORSDOF 8
