REMARK  Name = 
REMARK  14 active torsions:
REMARK  status: ('A' for Active; 'I' for Inactive)
REMARK    1  A    between atoms: C_1  and  O_2
REMARK    2  A    between atoms: O_2  and  C_3
REMARK    3  A    between atoms: C_4  and  O_5
REMARK    4  A    between atoms: O_5  and  C_6
REMARK    5  A    between atoms: C_8  and  C_9
REMARK    6  A    between atoms: C_9  and  N_10
REMARK    7  A    between atoms: N_10  and  C_11
REMARK    8  A    between atoms: C_11  and  C_12
REMARK    9  A    between atoms: C_12  and  O_13
REMARK   10  A    between atoms: O_13  and  C_14
REMARK   11  A    between atoms: C_14  and  C_15
REMARK   12  A    between atoms: C_15  and  C_16
REMARK   13  A    between atoms: C_22  and  C_23
REMARK   14  A    between atoms: C_22  and  C_24
REMARK                            x       y       z     vdW  Elec       q    Type
REMARK                         _______ _______ _______ _____ _____    ______ ____
ROOT
ATOM      1  N   UNL     1       5.126  -2.713  -5.043  0.00  0.00    +0.251 N 
ATOM      2  C   UNL     1       4.604  -3.058  -3.608  0.00  0.00    +0.162 C 
ATOM      3  C   UNL     1       5.173  -4.369  -3.049  0.00  0.00    +0.210 C 
ATOM      4  O   UNL     1       6.600  -4.331  -3.035  0.00  0.00    -0.369 OA
ATOM      5  C   UNL     1       7.105  -4.236  -4.367  0.00  0.00    +0.210 C 
ATOM      6  C   UNL     1       6.670  -2.922  -5.037  0.00  0.00    +0.162 C 
ENDROOT
BRANCH   1   7
ATOM      7  C   UNL     1       4.788  -1.216  -5.391  0.00  0.00    +0.171 C 
BRANCH   7  12
ATOM      8  C   UNL     1       6.571   1.597  -2.648  0.00  0.00    +0.163 A 
ATOM      9  C   UNL     1       7.149   1.408  -3.905  0.00  0.00    +0.065 A 
ATOM     10  C   UNL     1       6.572   0.535  -4.827  0.00  0.00    +0.030 A 
ATOM     11 BR   UNL     1       7.484   0.323  -6.484  0.00  0.00    -0.050 Br
ATOM     12  C   UNL     1       5.380  -0.141  -4.517  0.00  0.00    +0.015 A 
ATOM     13  C   UNL     1       4.738   0.171  -3.310  0.00  0.00    +0.059 A 
ATOM     14  C   UNL     1       5.347   0.985  -2.351  0.00  0.00    +0.162 A 
BRANCH   8  16
ATOM     15  C   UNL     1       8.559   2.424  -1.675  0.00  0.00    +0.277 C 
ATOM     16  O   UNL     1       7.134   2.387  -1.679  0.00  0.00    -0.491 OA
ENDBRANCH   8  16
BRANCH  14  17
ATOM     17  O   UNL     1       4.808   1.185  -1.105  0.00  0.00    -0.491 OA
ATOM     18  C   UNL     1       4.032   0.111  -0.583  0.00  0.00    +0.277 C 
ENDBRANCH  14  17
ENDBRANCH   7  12
ENDBRANCH   1   7
BRANCH   1  19
ATOM     19  C   UNL     1       4.373  -3.606  -6.075  0.00  0.00    +0.162 C 
BRANCH  19  20
ATOM     20  C   UNL     1       4.630  -3.299  -7.572  0.00  0.00    +0.210 C 
BRANCH  20  21
ATOM     21  O   UNL     1       5.954  -3.547  -8.033  0.00  0.00    -0.375 OA
BRANCH  21  22
ATOM     22  C   UNL     1       6.430  -4.885  -7.909  0.00  0.00    +0.160 C 
BRANCH  22  23
ATOM     23  C   UNL     1       5.567  -5.936  -8.590  0.00  0.00    +0.032 C 
BRANCH  23  24
ATOM     24  C   UNL     1       5.992  -7.379  -8.263  0.00  0.00    -0.005 C 
ATOM     25  C   UNL     1       5.931  -7.691  -6.746  0.00  0.00    -0.002 C 
ATOM     26  C   UNL     1       5.940  -9.226  -6.325  0.00  0.00    -0.029 C 
ATOM     27  C   UNL     1       6.192  -9.489  -4.822  0.00  0.00    +0.011 C 
ATOM     28  C   UNL     1       6.842 -10.192  -7.094  0.00  0.00    +0.011 C 
ATOM     29  C   UNL     1       4.409  -9.135  -6.725  0.00  0.00    -0.005 C 
ATOM     30  C   UNL     1       4.047  -9.105  -8.215  0.00  0.00    +0.004 C 
ATOM     31  C   UNL     1       4.464  -7.671  -6.207  0.00  0.00    +0.008 C 
ATOM     32  C   UNL     1       5.090  -8.354  -9.054  0.00  0.00    +0.004 C 
ENDBRANCH  23  24
ENDBRANCH  22  23
ENDBRANCH  21  22
ENDBRANCH  20  21
ENDBRANCH  19  20
ENDBRANCH   1  19
TORSDOF 10
