REMARK  Name = 
REMARK  17 active torsions:
REMARK  status: ('A' for Active; 'I' for Inactive)
REMARK    1  A    between atoms: C_1  and  O_2
REMARK    2  A    between atoms: O_2  and  C_3
REMARK    3  A    between atoms: C_6  and  C_7
REMARK    4  A    between atoms: C_7  and  N_8
REMARK    5  A    between atoms: N_8  and  C_9
REMARK    6  A    between atoms: C_9  and  C_11
REMARK    7  A    between atoms: C_9  and  C_12
REMARK    8  A    between atoms: C_14  and  C_17
REMARK    9  A    between atoms: C_23  and  C_25
REMARK   10  A    between atoms: C_25  and  N_27
REMARK   11  A    between atoms: C_25  and  C_28
REMARK   12  A    between atoms: C_28  and  C_29
REMARK   13  A    between atoms: C_30  and  C_31
REMARK   14  A    between atoms: C_33  and  C_37
REMARK   15  A    between atoms: C_35  and  C_36
REMARK   16  A    between atoms: C_41  and  C_42
REMARK   17  A    between atoms: C_42  and  O_43
REMARK                            x       y       z     vdW  Elec       q    Type
REMARK                         _______ _______ _______ _____ _____    ______ ____
ROOT
ATOM      1  N   UNL     1       6.132   2.466   4.638  0.00  0.00    -0.286 N 
ATOM      2  C   UNL     1       7.113   3.247   5.277  0.00  0.00    +0.234 C 
ATOM      3  O   UNL     1       8.252   2.781   5.435  0.00  0.00    -0.274 OA
ENDROOT
BRANCH   1   4
ATOM      4  C   UNL     1       6.542   1.135   4.106  0.00  0.00    +0.139 C 
ATOM      5  C   UNL     1       5.436   0.073   4.004  0.00  0.00    +0.036 C 
BRANCH   4   6
ATOM      6  C   UNL     1       7.167   1.356   2.751  0.00  0.00    +0.128 A 
ATOM      7  N   UNL     1       8.493   1.685   2.627  0.00  0.00    -0.346 N 
ATOM      8  H   UNL     1       9.142   1.752   3.402  0.00  0.00    +0.167 HD
ATOM      9  C   UNL     1       8.746   1.914   1.302  0.00  0.00    +0.112 A 
ATOM     10  C   UNL     1       7.592   1.544   0.647  0.00  0.00    +0.089 A 
ATOM     11  N   UNL     1       6.595   1.284   1.564  0.00  0.00    -0.231 NA
BRANCH  10  12
ATOM     12  C   UNL     1       7.447   1.275  -0.778  0.00  0.00    +0.002 A 
ATOM     13  C   UNL     1       8.563   1.178  -1.624  0.00  0.00    +0.010 A 
ATOM     14  C   UNL     1       8.438   0.637  -2.907  0.00  0.00    +0.001 A 
ATOM     15  C   UNL     1       7.195   0.207  -3.366  0.00  0.00    +0.000 A 
ATOM     16  C   UNL     1       6.066   0.374  -2.568  0.00  0.00    +0.001 A 
ATOM     17  C   UNL     1       6.190   0.918  -1.286  0.00  0.00    +0.010 A 
ENDBRANCH  10  12
ENDBRANCH   4   6
ENDBRANCH   1   4
BRANCH   1  18
ATOM     18  C   UNL     1       4.915   3.035   4.080  0.00  0.00    +0.143 C 
BRANCH  18  22
ATOM     19  C   UNL     1       1.174   1.432   5.375  0.00  0.00    +0.134 A 
ATOM     20  C   UNL     1       2.349   0.948   5.960  0.00  0.00    +0.101 A 
ATOM     21  C   UNL     1       3.538   1.673   5.776  0.00  0.00    +0.023 A 
ATOM     22  C   UNL     1       3.621   2.660   4.779  0.00  0.00    -0.029 A 
ATOM     23  C   UNL     1       2.442   3.116   4.187  0.00  0.00    +0.009 A 
ATOM     24  C   UNL     1       1.228   2.515   4.492  0.00  0.00    +0.047 A 
BRANCH  19  26
ATOM     25  C   UNL     1      -1.040   1.770   5.957  0.00  0.00    +0.277 C 
ATOM     26  O   UNL     1      -0.022   0.811   5.644  0.00  0.00    -0.494 OA
ENDBRANCH  19  26
BRANCH  20  27
ATOM     27  C   UNL     1       2.471  -0.398   6.611  0.00  0.00    +0.340 C 
ATOM     28  O   UNL     1       3.515  -0.800   7.101  0.00  0.00    -0.245 OA
BRANCH  27  29
ATOM     29  O   UNL     1       1.384  -1.195   6.511  0.00  0.00    -0.477 OA
ATOM     30  H   UNL     1       0.622  -0.763   6.073  0.00  0.00    +0.295 HD
ENDBRANCH  27  29
ENDBRANCH  20  27
ENDBRANCH  18  22
ENDBRANCH   1  18
BRANCH   2  31
ATOM     31  C   UNL     1       6.843   4.759   5.599  0.00  0.00    +0.142 C 
BRANCH  31  32
ATOM     32  N   UNL     1       5.516   5.059   6.168  0.00  0.00    -0.320 NA
ATOM     33  H   UNL     1       5.543   5.996   6.570  0.00  0.00    +0.119 HD
ATOM     34  H   UNL     1       4.795   5.127   5.461  0.00  0.00    +0.119 HD
ENDBRANCH  31  32
BRANCH  31  35
ATOM     35  C   UNL     1       7.959   5.453   6.437  0.00  0.00    +0.063 C 
BRANCH  35  36
ATOM     36  C   UNL     1       8.429   4.891   7.779  0.00  0.00    -0.040 A 
ATOM     37  C   UNL     1       7.575   4.827   8.919  0.00  0.00    -0.046 A 
ATOM     38  C   UNL     1       6.152   5.315   8.985  0.00  0.00    +0.044 C 
ATOM     39  C   UNL     1       8.049   4.289  10.132  0.00  0.00    +0.016 A 
ATOM     40  C   UNL     1       9.362   3.867  10.289  0.00  0.00    +0.037 A 
ATOM     41  C   UNL     1      10.226   3.986   9.203  0.00  0.00    +0.016 A 
ATOM     42  C   UNL     1       9.786   4.492   7.954  0.00  0.00    -0.046 A 
ATOM     43  C   UNL     1      10.876   4.584   6.909  0.00  0.00    +0.044 C 
BRANCH  40  44
ATOM     44  C   UNL     1       9.763   3.340  11.632  0.00  0.00    +0.242 C 
ATOM     45  O   UNL     1       8.943   3.254  12.555  0.00  0.00    -0.270 OA
ATOM     46  N   UNL     1      11.051   2.982  11.837  0.00  0.00    -0.325 N 
ATOM     47  H   UNL     1      11.283   2.637  12.754  0.00  0.00    +0.145 HD
ATOM     48  H   UNL     1      11.793   3.027  11.149  0.00  0.00    +0.145 HD
ENDBRANCH  40  44
ENDBRANCH  35  36
ENDBRANCH  31  35
ENDBRANCH   2  31
TORSDOF 13
