REMARK  Name = 
REMARK  11 active torsions:
REMARK  status: ('A' for Active; 'I' for Inactive)
REMARK    1  A    between atoms: C_2  and  C_3
REMARK    2  A    between atoms: C_3  and  C_4
REMARK    3  A    between atoms: C_4  and  C_5
REMARK    4  A    between atoms: C_5  and  N_6
REMARK    5  A    between atoms: N_6  and  C_7
REMARK    6  A    between atoms: C_11  and  O_21
REMARK    7  A    between atoms: O_21  and  C_22
REMARK    8  A    between atoms: C_22  and  C_24
REMARK    9  A    between atoms: C_24  and  C_26
REMARK   10  A    between atoms: C_24  and  C_28
REMARK   11  A    between atoms: C_26  and  O_27
REMARK                            x       y       z     vdW  Elec       q    Type
REMARK                         _______ _______ _______ _____ _____    ______ ____
ROOT
ATOM      1 BR   UNL     1       0.000   0.000  -0.000  0.00  0.00    +0.000 Br
ENDROOT
TORSDOF 0
REMARK  Name = 
REMARK  11 active torsions:
REMARK  status: ('A' for Active; 'I' for Inactive)
REMARK    1  A    between atoms: C_2  and  C_3
REMARK    2  A    between atoms: C_3  and  C_4
REMARK    3  A    between atoms: C_4  and  C_5
REMARK    4  A    between atoms: C_5  and  N_6
REMARK    5  A    between atoms: N_6  and  C_7
REMARK    6  A    between atoms: C_11  and  O_21
REMARK    7  A    between atoms: O_21  and  C_22
REMARK    8  A    between atoms: C_22  and  C_24
REMARK    9  A    between atoms: C_24  and  C_26
REMARK   10  A    between atoms: C_24  and  C_28
REMARK   11  A    between atoms: C_26  and  O_27
REMARK                            x       y       z     vdW  Elec       q    Type
REMARK                         _______ _______ _______ _____ _____    ______ ____
ROOT
ATOM      1  N   UNL     1      -0.000  -0.000  -0.000  0.00  0.00    +0.249 N 
ATOM      2  C   UNL     1      -0.000  -0.000  -0.000  0.00  0.00    +0.193 C 
ATOM      3  C   UNL     1      -0.000  -0.000   0.000  0.00  0.00    +0.102 C 
ATOM      4  C   UNL     1      -0.000  -0.000   0.000  0.00  0.00    +0.201 C 
ATOM      5  C   UNL     1      -0.000  -0.000   0.000  0.00  0.00    +0.201 C 
ATOM      6  O   UNL     1      -0.000  -0.000   0.000  0.00  0.00    -0.357 OA
ATOM      7  C   UNL     1      -0.000  -0.000   0.000  0.00  0.00    +0.102 C 
ATOM      8  C   UNL     1      -0.000  -0.000   0.000  0.00  0.00    +0.187 C 
ATOM      9  C   UNL     1      -0.000  -0.000   0.000  0.00  0.00    +0.102 C 
ATOM     10  C   UNL     1      -0.000  -0.000  -0.000  0.00  0.00    +0.102 C 
ENDROOT
BRANCH   1  11
ATOM     11  C   UNL     1      -0.000  -0.000  -0.000  0.00  0.00    +0.133 C 
BRANCH  11  12
ATOM     12  C   UNL     1      -0.000  -0.000  -0.000  0.00  0.00    +0.051 C 
BRANCH  12  14
ATOM     13  C   UNL     1      -0.000  -0.000  -0.000  0.00  0.00    +0.004 C 
ATOM     14  C   UNL     1      -0.000  -0.000  -0.000  0.00  0.00    +0.002 C 
ENDBRANCH  12  14
ENDBRANCH  11  12
ENDBRANCH   1  11
BRANCH   8  15
ATOM     15  O   UNL     1      -0.000  -0.000   0.000  0.00  0.00    -0.460 OA
BRANCH  15  16
ATOM     16  C   UNL     1      -0.000  -0.000   0.000  0.00  0.00    +0.317 C 
ATOM     17  O   UNL     1      -0.000  -0.000   0.000  0.00  0.00    -0.250 OA
BRANCH  16  18
ATOM     18  C   UNL     1      -0.000  -0.000   0.000  0.00  0.00    +0.153 C 
BRANCH  18  19
ATOM     19  C   UNL     1      -0.000  -0.000   0.000  0.00  0.00    -0.032 A 
ATOM     20  C   UNL     1      -0.000  -0.000   0.000  0.00  0.00    +0.004 A 
ATOM     21  C   UNL     1      -0.000  -0.000   0.000  0.00  0.00    +0.000 A 
ATOM     22  C   UNL     1      -0.000  -0.000   0.000  0.00  0.00    +0.000 A 
ATOM     23  C   UNL     1      -0.000  -0.000   0.000  0.00  0.00    +0.000 A 
ATOM     24  C   UNL     1      -0.000  -0.000   0.000  0.00  0.00    +0.004 A 
ENDBRANCH  18  19
BRANCH  18  25
ATOM     25  C   UNL     1      -0.000  -0.000   0.000  0.00  0.00    +0.175 C 
BRANCH  25  26
ATOM     26  O   UNL     1      -0.000  -0.000   0.000  0.00  0.00    -0.394 OA
ATOM     27  H   UNL     1      -0.000  -0.000   0.000  0.00  0.00    +0.209 HD
ENDBRANCH  25  26
ENDBRANCH  18  25
ENDBRANCH  16  18
ENDBRANCH  15  16
ENDBRANCH   8  15
TORSDOF 9
