REMARK  Name = 
REMARK  40 active torsions:
REMARK  status: ('A' for Active; 'I' for Inactive)
REMARK    1  A    between atoms: C_1  and  O_2
REMARK    2  A    between atoms: O_2  and  C_3
REMARK    3  A    between atoms: C_5  and  C_13
REMARK    4  A    between atoms: C_7  and  O_8
REMARK    5  A    between atoms: O_8  and  C_9
REMARK    6  A    between atoms: C_10  and  O_11
REMARK    7  A    between atoms: O_11  and  C_12
REMARK    8  A    between atoms: C_20  and  O_21
REMARK    9  A    between atoms: C_31  and  O_32
REMARK   10  A    between atoms: O_32  and  C_33
REMARK   11  A    between atoms: C_35  and  C_43
REMARK   12  A    between atoms: C_37  and  O_38
REMARK   13  A    between atoms: O_38  and  C_39
REMARK   14  A    between atoms: C_40  and  O_41
REMARK   15  A    between atoms: O_41  and  C_42
REMARK   16  A    between atoms: C_50  and  O_51
REMARK   17  A    between atoms: C_61  and  O_62
REMARK   18  A    between atoms: O_62  and  C_63
REMARK   19  A    between atoms: C_65  and  C_73
REMARK   20  A    between atoms: C_67  and  O_68
REMARK   21  A    between atoms: O_68  and  C_69
REMARK   22  A    between atoms: C_70  and  O_71
REMARK   23  A    between atoms: O_71  and  C_72
REMARK   24  A    between atoms: C_74  and  C_89
REMARK   25  A    between atoms: C_75  and  C_76
REMARK   26  A    between atoms: C_76  and  O_77
REMARK   27  A    between atoms: C_78  and  O_79
REMARK   28  A    between atoms: C_89  and  O_90
REMARK   29  A    between atoms: C_92  and  O_93
REMARK   30  A    between atoms: O_93  and  C_94
REMARK   31  A    between atoms: C_96  and  C_104
REMARK   32  A    between atoms: C_98  and  O_99
REMARK   33  A    between atoms: O_99  and  C_100
REMARK   34  A    between atoms: C_101  and  O_102
REMARK   35  A    between atoms: O_102  and  C_103
REMARK   36  A    between atoms: C_105  and  C_120
REMARK   37  A    between atoms: C_106  and  C_107
REMARK   38  A    between atoms: C_107  and  O_108
REMARK   39  A    between atoms: C_109  and  O_110
REMARK   40  A    between atoms: C_120  and  O_121
REMARK                            x       y       z     vdW  Elec       q    Type
REMARK                         _______ _______ _______ _____ _____    ______ ____
ROOT
ATOM      1  C   UNL     1       5.135   2.158  -4.251  0.00  0.00    +0.064 C 
ATOM      2  C   UNL     1       4.228   3.740  -4.420  0.00  0.00    -0.030 A 
ATOM      3  C   UNL     1       4.779   5.039  -3.757  0.00  0.00    -0.011 A 
ATOM      4  C   UNL     1       3.863   6.144  -4.136  0.00  0.00    +0.056 A 
ATOM      5  C   UNL     1       2.516   5.871  -4.826  0.00  0.00    +0.167 A 
ATOM      6  O   UNL     1       1.370   6.678  -5.008  0.00  0.00    -0.453 OA
ATOM      7  C   UNL     1       0.264   5.705  -5.287  0.00  0.00    +0.466 C 
ATOM      8  O   UNL     1       0.793   4.415  -5.507  0.00  0.00    -0.453 OA
ATOM      9  C   UNL     1       2.096   4.614  -5.170  0.00  0.00    +0.167 A 
ATOM     10  C   UNL     1       6.332   5.040  -2.655  0.00  0.00    +0.152 C 
ATOM     11  C   UNL     1       7.368   3.337  -1.951  0.00  0.00    +0.074 C 
ATOM     12  C   UNL     1       8.657   3.213  -1.059  0.00  0.00    +0.239 C 
ATOM     13  O   UNL     1       9.529   2.498  -1.984  0.00  0.00    -0.464 OA
ATOM     14  C   UNL     1       9.030   1.790  -3.116  0.00  0.00    +0.312 C 
ATOM     15  O   UNL     1       9.817   1.115  -3.777  0.00  0.00    -0.250 OA
ATOM     16  C   UNL     1       2.941   3.578  -5.051  0.00  0.00    +0.054 A 
ATOM     17  C   UNL     1       7.369   2.151  -3.778  0.00  0.00    +0.118 C 
ENDROOT
BRANCH   1  22
ATOM     18  C   UNL     1       1.104  -0.997  -3.684  0.00  0.00    +0.165 A 
ATOM     19  C   UNL     1       1.400  -2.460  -3.922  0.00  0.00    +0.204 A 
ATOM     20  C   UNL     1       2.473  -2.329  -4.894  0.00  0.00    +0.165 A 
ATOM     21  C   UNL     1       3.329  -0.848  -5.173  0.00  0.00    +0.054 A 
ATOM     22  C   UNL     1       3.503   0.770  -4.585  0.00  0.00    -0.032 A 
ATOM     23  C   UNL     1       2.068   0.484  -4.006  0.00  0.00    +0.054 A 
BRANCH  18  25
ATOM     24  C   UNL     1      -0.661  -1.306  -1.884  0.00  0.00    +0.277 C 
ATOM     25  O   UNL     1       0.118  -0.557  -2.790  0.00  0.00    -0.491 OA
ENDBRANCH  18  25
BRANCH  19  26
ATOM     26  O   UNL     1       0.734  -3.628  -3.206  0.00  0.00    -0.488 OA
ATOM     27  C   UNL     1       0.836  -4.984  -2.169  0.00  0.00    +0.277 C 
ENDBRANCH  19  26
BRANCH  20  28
ATOM     28  O   UNL     1       3.071  -3.515  -5.407  0.00  0.00    -0.491 OA
ATOM     29  C   UNL     1       4.222  -3.505  -6.287  0.00  0.00    +0.277 C 
ENDBRANCH  20  28
ENDBRANCH   1  22
BRANCH  10  30
ATOM     30  O   UNL     1       6.865   6.349  -2.965  0.00  0.00    -0.387 OA
ATOM     31  H   UNL     1       7.120   6.325  -3.898  0.00  0.00    +0.210 HD
ENDBRANCH  10  30
TORSDOF 5
REMARK  Name = 
REMARK  40 active torsions:
REMARK  status: ('A' for Active; 'I' for Inactive)
REMARK    1  A    between atoms: C_1  and  O_2
REMARK    2  A    between atoms: O_2  and  C_3
REMARK    3  A    between atoms: C_5  and  C_13
REMARK    4  A    between atoms: C_7  and  O_8
REMARK    5  A    between atoms: O_8  and  C_9
REMARK    6  A    between atoms: C_10  and  O_11
REMARK    7  A    between atoms: O_11  and  C_12
REMARK    8  A    between atoms: C_20  and  O_21
REMARK    9  A    between atoms: C_31  and  O_32
REMARK   10  A    between atoms: O_32  and  C_33
REMARK   11  A    between atoms: C_35  and  C_43
REMARK   12  A    between atoms: C_37  and  O_38
REMARK   13  A    between atoms: O_38  and  C_39
REMARK   14  A    between atoms: C_40  and  O_41
REMARK   15  A    between atoms: O_41  and  C_42
REMARK   16  A    between atoms: C_50  and  O_51
REMARK   17  A    between atoms: C_61  and  O_62
REMARK   18  A    between atoms: O_62  and  C_63
REMARK   19  A    between atoms: C_65  and  C_73
REMARK   20  A    between atoms: C_67  and  O_68
REMARK   21  A    between atoms: O_68  and  C_69
REMARK   22  A    between atoms: C_70  and  O_71
REMARK   23  A    between atoms: O_71  and  C_72
REMARK   24  A    between atoms: C_74  and  C_89
REMARK   25  A    between atoms: C_75  and  C_76
REMARK   26  A    between atoms: C_76  and  O_77
REMARK   27  A    between atoms: C_78  and  O_79
REMARK   28  A    between atoms: C_89  and  O_90
REMARK   29  A    between atoms: C_92  and  O_93
REMARK   30  A    between atoms: O_93  and  C_94
REMARK   31  A    between atoms: C_96  and  C_104
REMARK   32  A    between atoms: C_98  and  O_99
REMARK   33  A    between atoms: O_99  and  C_100
REMARK   34  A    between atoms: C_101  and  O_102
REMARK   35  A    between atoms: O_102  and  C_103
REMARK   36  A    between atoms: C_105  and  C_120
REMARK   37  A    between atoms: C_106  and  C_107
REMARK   38  A    between atoms: C_107  and  O_108
REMARK   39  A    between atoms: C_109  and  O_110
REMARK   40  A    between atoms: C_120  and  O_121
REMARK                            x       y       z     vdW  Elec       q    Type
REMARK                         _______ _______ _______ _____ _____    ______ ____
ROOT
ATOM      1  C   UNL     1       3.199   4.735  -1.649  0.00  0.00    +0.064 C 
ATOM      2  C   UNL     1       2.091   5.897  -1.675  0.00  0.00    -0.030 A 
ATOM      3  C   UNL     1       2.300   7.007  -0.891  0.00  0.00    -0.011 A 
ATOM      4  C   UNL     1       1.102   8.057  -0.937  0.00  0.00    +0.056 A 
ATOM      5  C   UNL     1      -0.075   7.977  -1.659  0.00  0.00    +0.167 A 
ATOM      6  O   UNL     1      -1.243   8.666  -1.479  0.00  0.00    -0.453 OA
ATOM      7  C   UNL     1      -2.004   8.201  -2.614  0.00  0.00    +0.466 C 
ATOM      8  O   UNL     1      -1.339   7.059  -3.220  0.00  0.00    -0.453 OA
ATOM      9  C   UNL     1      -0.172   6.956  -2.495  0.00  0.00    +0.167 A 
ATOM     10  C   UNL     1       3.594   6.819   0.388  0.00  0.00    +0.152 C 
ATOM     11  C   UNL     1       4.251   5.564   0.476  0.00  0.00    +0.074 C 
ATOM     12  C   UNL     1       5.157   5.233   1.678  0.00  0.00    +0.239 C 
ATOM     13  O   UNL     1       5.954   4.222   1.186  0.00  0.00    -0.464 OA
ATOM     14  C   UNL     1       6.094   4.774  -0.023  0.00  0.00    +0.312 C 
ATOM     15  O   UNL     1       7.222   5.200  -0.236  0.00  0.00    -0.250 OA
ATOM     16  C   UNL     1       0.855   5.941  -2.454  0.00  0.00    +0.054 A 
ATOM     17  C   UNL     1       4.614   5.241  -0.861  0.00  0.00    +0.118 C 
ENDROOT
BRANCH   1  22
ATOM     18  C   UNL     1       3.159   1.082  -0.863  0.00  0.00    +0.165 A 
ATOM     19  C   UNL     1       4.340   0.378  -1.427  0.00  0.00    +0.204 A 
ATOM     20  C   UNL     1       4.720   1.019  -2.601  0.00  0.00    +0.165 A 
ATOM     21  C   UNL     1       3.944   2.412  -2.585  0.00  0.00    +0.054 A 
ATOM     22  C   UNL     1       3.184   3.270  -1.850  0.00  0.00    -0.032 A 
ATOM     23  C   UNL     1       2.709   2.408  -1.051  0.00  0.00    +0.054 A 
BRANCH  18  25
ATOM     24  C   UNL     1       0.944   0.963  -0.473  0.00  0.00    +0.277 C 
ATOM     25  O   UNL     1       2.217   0.553  -0.058  0.00  0.00    -0.491 OA
ENDBRANCH  18  25
BRANCH  19  26
ATOM     26  O   UNL     1       4.725  -0.884  -0.830  0.00  0.00    -0.488 OA
ATOM     27  C   UNL     1       5.032  -2.201  -0.081  0.00  0.00    +0.277 C 
ENDBRANCH  19  26
BRANCH  20  28
ATOM     28  O   UNL     1       6.247   0.874  -4.081  0.00  0.00    -0.491 OA
ATOM     29  C   UNL     1       7.392  -0.379  -4.736  0.00  0.00    +0.277 C 
ENDBRANCH  20  28
ENDBRANCH   1  22
BRANCH  10  30
ATOM     30  O   UNL     1       4.606   7.701   0.842  0.00  0.00    -0.387 OA
ATOM     31  H   UNL     1       5.238   8.036   0.202  0.00  0.00    +0.210 HD
ENDBRANCH  10  30
TORSDOF 5
REMARK  Name = 
REMARK  40 active torsions:
REMARK  status: ('A' for Active; 'I' for Inactive)
REMARK    1  A    between atoms: C_1  and  O_2
REMARK    2  A    between atoms: O_2  and  C_3
REMARK    3  A    between atoms: C_5  and  C_13
REMARK    4  A    between atoms: C_7  and  O_8
REMARK    5  A    between atoms: O_8  and  C_9
REMARK    6  A    between atoms: C_10  and  O_11
REMARK    7  A    between atoms: O_11  and  C_12
REMARK    8  A    between atoms: C_20  and  O_21
REMARK    9  A    between atoms: C_31  and  O_32
REMARK   10  A    between atoms: O_32  and  C_33
REMARK   11  A    between atoms: C_35  and  C_43
REMARK   12  A    between atoms: C_37  and  O_38
REMARK   13  A    between atoms: O_38  and  C_39
REMARK   14  A    between atoms: C_40  and  O_41
REMARK   15  A    between atoms: O_41  and  C_42
REMARK   16  A    between atoms: C_50  and  O_51
REMARK   17  A    between atoms: C_61  and  O_62
REMARK   18  A    between atoms: O_62  and  C_63
REMARK   19  A    between atoms: C_65  and  C_73
REMARK   20  A    between atoms: C_67  and  O_68
REMARK   21  A    between atoms: O_68  and  C_69
REMARK   22  A    between atoms: C_70  and  O_71
REMARK   23  A    between atoms: O_71  and  C_72
REMARK   24  A    between atoms: C_74  and  C_89
REMARK   25  A    between atoms: C_75  and  C_76
REMARK   26  A    between atoms: C_76  and  O_77
REMARK   27  A    between atoms: C_78  and  O_79
REMARK   28  A    between atoms: C_89  and  O_90
REMARK   29  A    between atoms: C_92  and  O_93
REMARK   30  A    between atoms: O_93  and  C_94
REMARK   31  A    between atoms: C_96  and  C_104
REMARK   32  A    between atoms: C_98  and  O_99
REMARK   33  A    between atoms: O_99  and  C_100
REMARK   34  A    between atoms: C_101  and  O_102
REMARK   35  A    between atoms: O_102  and  C_103
REMARK   36  A    between atoms: C_105  and  C_120
REMARK   37  A    between atoms: C_106  and  C_107
REMARK   38  A    between atoms: C_107  and  O_108
REMARK   39  A    between atoms: C_109  and  O_110
REMARK   40  A    between atoms: C_120  and  O_121
REMARK                            x       y       z     vdW  Elec       q    Type
REMARK                         _______ _______ _______ _____ _____    ______ ____
ROOT
ATOM      1  C   UNL     1       5.301  -0.297  -3.928  0.00  0.00    +0.064 C 
ATOM      2  C   UNL     1       5.256   0.628  -5.921  0.00  0.00    -0.030 A 
ATOM      3  C   UNL     1       5.751   2.348  -6.519  0.00  0.00    -0.011 A 
ATOM      4  C   UNL     1       5.011   3.571  -7.301  0.00  0.00    +0.056 A 
ATOM      5  C   UNL     1       3.773   3.382  -7.820  0.00  0.00    +0.167 A 
ATOM      6  O   UNL     1       2.821   4.314  -8.145  0.00  0.00    -0.453 OA
ATOM      7  C   UNL     1       1.654   3.480  -8.283  0.00  0.00    +0.466 C 
ATOM      8  O   UNL     1       2.005   2.063  -8.202  0.00  0.00    -0.453 OA
ATOM      9  C   UNL     1       3.339   2.081  -7.732  0.00  0.00    +0.167 A 
ATOM     10  C   UNL     1       6.475   3.566  -5.218  0.00  0.00    +0.151 C 
ATOM     11  C   UNL     1       6.283   3.121  -3.239  0.00  0.00    +0.062 C 
ATOM     12  C   UNL     1       3.994   0.815  -6.956  0.00  0.00    +0.054 A 
ATOM     13  C   UNL     1       6.584   1.007  -2.505  0.00  0.00    +0.117 C 
ENDROOT
BRANCH   1  18
ATOM     14  C   UNL     1       2.460  -1.789  -0.764  0.00  0.00    +0.165 A 
ATOM     15  C   UNL     1       2.215  -3.021  -0.909  0.00  0.00    +0.204 A 
ATOM     16  C   UNL     1       3.265  -3.582  -1.939  0.00  0.00    +0.165 A 
ATOM     17  C   UNL     1       4.283  -2.842  -2.865  0.00  0.00    +0.054 A 
ATOM     18  C   UNL     1       4.115  -1.504  -3.008  0.00  0.00    -0.032 A 
ATOM     19  C   UNL     1       2.949  -1.222  -2.038  0.00  0.00    +0.054 A 
BRANCH  14  21
ATOM     20  C   UNL     1       2.749  -2.286   1.786  0.00  0.00    +0.277 C 
ATOM     21  O   UNL     1       2.739  -1.418   0.584  0.00  0.00    -0.491 OA
ENDBRANCH  14  21
BRANCH  15  22
ATOM     22  O   UNL     1       1.100  -3.318  -0.066  0.00  0.00    -0.488 OA
ATOM     23  C   UNL     1       0.267  -2.269   0.847  0.00  0.00    +0.277 C 
ENDBRANCH  15  22
BRANCH  16  24
ATOM     24  O   UNL     1       3.401  -4.925  -1.961  0.00  0.00    -0.491 OA
ATOM     25  C   UNL     1       3.990  -5.649  -3.018  0.00  0.00    +0.277 C 
ENDBRANCH  16  24
ENDBRANCH   1  18
BRANCH  10  26
ATOM     26  O   UNL     1       7.208   4.706  -5.761  0.00  0.00    -0.387 OA
ATOM     27  H   UNL     1       8.163   4.580  -5.621  0.00  0.00    +0.210 HD
ENDBRANCH  10  26
BRANCH  13  28
ATOM     28  C   UNL     1       7.995   0.673  -1.085  0.00  0.00    +0.309 C 
ATOM     29  O   UNL     1       9.190   0.445  -1.315  0.00  0.00    -0.251 OA
BRANCH  28  30
ATOM     30  O   UNL     1       7.875   0.031   0.226  0.00  0.00    -0.480 OA
ATOM     31  H   UNL     1       6.954  -0.232   0.520  0.00  0.00    +0.295 HD
ENDBRANCH  28  30
ENDBRANCH  13  28
BRANCH  11  32
ATOM     32  C   UNL     1       8.067   4.171  -3.557  0.00  0.00    +0.163 C 
BRANCH  32  33
ATOM     33  O   UNL     1       9.008   4.032  -4.635  0.00  0.00    -0.395 OA
ATOM     34  H   UNL     1       9.574   3.244  -4.503  0.00  0.00    +0.209 HD
ENDBRANCH  32  33
ENDBRANCH  11  32
TORSDOF 9
REMARK  Name = 
REMARK  40 active torsions:
REMARK  status: ('A' for Active; 'I' for Inactive)
REMARK    1  A    between atoms: C_1  and  O_2
REMARK    2  A    between atoms: O_2  and  C_3
REMARK    3  A    between atoms: C_5  and  C_13
REMARK    4  A    between atoms: C_7  and  O_8
REMARK    5  A    between atoms: O_8  and  C_9
REMARK    6  A    between atoms: C_10  and  O_11
REMARK    7  A    between atoms: O_11  and  C_12
REMARK    8  A    between atoms: C_20  and  O_21
REMARK    9  A    between atoms: C_31  and  O_32
REMARK   10  A    between atoms: O_32  and  C_33
REMARK   11  A    between atoms: C_35  and  C_43
REMARK   12  A    between atoms: C_37  and  O_38
REMARK   13  A    between atoms: O_38  and  C_39
REMARK   14  A    between atoms: C_40  and  O_41
REMARK   15  A    between atoms: O_41  and  C_42
REMARK   16  A    between atoms: C_50  and  O_51
REMARK   17  A    between atoms: C_61  and  O_62
REMARK   18  A    between atoms: O_62  and  C_63
REMARK   19  A    between atoms: C_65  and  C_73
REMARK   20  A    between atoms: C_67  and  O_68
REMARK   21  A    between atoms: O_68  and  C_69
REMARK   22  A    between atoms: C_70  and  O_71
REMARK   23  A    between atoms: O_71  and  C_72
REMARK   24  A    between atoms: C_74  and  C_89
REMARK   25  A    between atoms: C_75  and  C_76
REMARK   26  A    between atoms: C_76  and  O_77
REMARK   27  A    between atoms: C_78  and  O_79
REMARK   28  A    between atoms: C_89  and  O_90
REMARK   29  A    between atoms: C_92  and  O_93
REMARK   30  A    between atoms: O_93  and  C_94
REMARK   31  A    between atoms: C_96  and  C_104
REMARK   32  A    between atoms: C_98  and  O_99
REMARK   33  A    between atoms: O_99  and  C_100
REMARK   34  A    between atoms: C_101  and  O_102
REMARK   35  A    between atoms: O_102  and  C_103
REMARK   36  A    between atoms: C_105  and  C_120
REMARK   37  A    between atoms: C_106  and  C_107
REMARK   38  A    between atoms: C_107  and  O_108
REMARK   39  A    between atoms: C_109  and  O_110
REMARK   40  A    between atoms: C_120  and  O_121
REMARK                            x       y       z     vdW  Elec       q    Type
REMARK                         _______ _______ _______ _____ _____    ______ ____
ROOT
ATOM      1  C   UNL     1       1.557   4.968   1.158  0.00  0.00    +0.064 C 
ATOM      2  C   UNL     1       0.052   4.656   0.357  0.00  0.00    -0.030 A 
ATOM      3  C   UNL     1      -1.128   5.442   0.587  0.00  0.00    -0.011 A 
ATOM      4  C   UNL     1      -2.346   5.030  -0.074  0.00  0.00    +0.056 A 
ATOM      5  C   UNL     1      -2.382   3.931  -0.917  0.00  0.00    +0.167 A 
ATOM      6  O   UNL     1      -3.457   3.182  -1.300  0.00  0.00    -0.453 OA
ATOM      7  C   UNL     1      -2.763   1.947  -1.611  0.00  0.00    +0.466 C 
ATOM      8  O   UNL     1      -1.431   2.234  -2.079  0.00  0.00    -0.453 OA
ATOM      9  C   UNL     1      -1.235   3.365  -1.336  0.00  0.00    +0.167 A 
ATOM     10  C   UNL     1      -1.250   6.694   1.523  0.00  0.00    +0.151 C 
ATOM     11  C   UNL     1       0.009   7.185   2.340  0.00  0.00    +0.062 C 
ATOM     12  C   UNL     1      -0.047   3.797  -0.800  0.00  0.00    +0.054 A 
ATOM     13  C   UNL     1       1.326   6.848   1.572  0.00  0.00    +0.117 C 
ENDROOT
BRANCH   1  18
ATOM     14  C   UNL     1       2.714   1.396   2.404  0.00  0.00    +0.165 A 
ATOM     15  C   UNL     1       4.149   0.729   1.764  0.00  0.00    +0.204 A 
ATOM     16  C   UNL     1       4.987   1.357   0.877  0.00  0.00    +0.165 A 
ATOM     17  C   UNL     1       4.222   2.739   0.818  0.00  0.00    +0.054 A 
ATOM     18  C   UNL     1       2.843   3.560   1.563  0.00  0.00    -0.032 A 
ATOM     19  C   UNL     1       2.273   2.741   2.415  0.00  0.00    +0.054 A 
BRANCH  14  21
ATOM     20  C   UNL     1      -0.054   1.448   2.106  0.00  0.00    +0.277 C 
ATOM     21  O   UNL     1       1.340   0.680   2.315  0.00  0.00    -0.491 OA
ENDBRANCH  14  21
BRANCH  15  22
ATOM     22  O   UNL     1       4.785  -0.434   2.094  0.00  0.00    -0.488 OA
ATOM     23  C   UNL     1       5.298  -0.269   3.390  0.00  0.00    +0.277 C 
ENDBRANCH  15  22
BRANCH  16  24
ATOM     24  O   UNL     1       6.047   0.584  -0.215  0.00  0.00    -0.491 OA
ATOM     25  C   UNL     1       6.631  -0.963  -1.247  0.00  0.00    +0.277 C 
ENDBRANCH  16  24
ENDBRANCH   1  18
BRANCH  10  26
ATOM     26  O   UNL     1      -1.986   7.762   0.913  0.00  0.00    -0.387 OA
ATOM     27  H   UNL     1      -1.466   8.235   0.243  0.00  0.00    +0.210 HD
ENDBRANCH  10  26
BRANCH  13  28
ATOM     28  C   UNL     1       2.322   8.472   1.440  0.00  0.00    +0.309 C 
ATOM     29  O   UNL     1       2.545   9.164   2.426  0.00  0.00    -0.251 OA
BRANCH  28  30
ATOM     30  O   UNL     1       2.897   9.074   0.277  0.00  0.00    -0.480 OA
ATOM     31  H   UNL     1       3.310   8.676  -0.544  0.00  0.00    +0.295 HD
ENDBRANCH  28  30
ENDBRANCH  13  28
BRANCH  11  32
ATOM     32  C   UNL     1      -0.040   8.616   3.026  0.00  0.00    +0.163 C 
BRANCH  32  33
ATOM     33  O   UNL     1      -1.338   9.043   3.412  0.00  0.00    -0.395 OA
ATOM     34  H   UNL     1      -1.534   9.880   2.945  0.00  0.00    +0.209 HD
ENDBRANCH  32  33
ENDBRANCH  11  32
TORSDOF 9
