REMARK  Name = 
REMARK  13 active torsions:
REMARK  status: ('A' for Active; 'I' for Inactive)
REMARK    1  A    between atoms: C_2  and  C_3
REMARK    2  A    between atoms: C_3  and  N_4
REMARK    3  A    between atoms: N_4  and  C_5
REMARK    4  A    between atoms: N_4  and  C_7
REMARK    5  A    between atoms: C_5  and  C_6
REMARK    6  A    between atoms: C_10  and  C_13
REMARK    7  A    between atoms: C_13  and  C_25
REMARK    8  A    between atoms: N_20  and  C_21
REMARK    9  A    between atoms: N_20  and  C_23
REMARK   10  A    between atoms: C_21  and  C_22
REMARK   11  A    between atoms: C_23  and  C_24
REMARK   12  A    between atoms: C_27  and  S_35
REMARK   13  A    between atoms: C_30  and  S_31
REMARK                            x       y       z     vdW  Elec       q    Type
REMARK                         _______ _______ _______ _____ _____    ______ ____
ROOT
ATOM      1 NA   UNL     1      -0.285   1.699  -1.074  0.00  0.00    +0.000 Na
ENDROOT
TORSDOF 0
REMARK  Name = 
REMARK  13 active torsions:
REMARK  status: ('A' for Active; 'I' for Inactive)
REMARK    1  A    between atoms: C_2  and  C_3
REMARK    2  A    between atoms: C_3  and  N_4
REMARK    3  A    between atoms: N_4  and  C_5
REMARK    4  A    between atoms: N_4  and  C_7
REMARK    5  A    between atoms: C_5  and  C_6
REMARK    6  A    between atoms: C_10  and  C_13
REMARK    7  A    between atoms: C_13  and  C_25
REMARK    8  A    between atoms: N_20  and  C_21
REMARK    9  A    between atoms: N_20  and  C_23
REMARK   10  A    between atoms: C_21  and  C_22
REMARK   11  A    between atoms: C_23  and  C_24
REMARK   12  A    between atoms: C_27  and  S_35
REMARK   13  A    between atoms: C_30  and  S_31
REMARK                            x       y       z     vdW  Elec       q    Type
REMARK                         _______ _______ _______ _____ _____    ______ ____
ROOT
ATOM      1  C   UNL     1       8.502  -0.736  -2.894  0.00  0.00    +0.000 C 
ATOM      2  C   UNL     1       9.172   0.363  -3.351  0.00  0.00    +0.000 C 
ATOM      3  C   UNL     1      10.530   0.313  -3.879  0.00  0.00    +0.000 C 
ATOM      4  C   UNL     1      11.296   1.419  -3.898  0.00  0.00    +0.000 C 
ATOM      5  C   UNL     1      10.762   2.725  -3.367  0.00  0.00    +0.000 C 
ATOM      6  N   UNL     1      11.515   3.717  -2.974  0.00  0.00    +1.000 N 
ATOM      7  C   UNL     1       9.265   2.816  -3.371  0.00  0.00    +0.000 C 
ATOM      8  C   UNL     1       8.538   1.690  -3.395  0.00  0.00    +0.000 C 
ENDROOT
BRANCH   1  12
ATOM      9  C   UNL     1       4.433   0.088  -1.512  0.00  0.00    +0.000 A 
ATOM     10  C   UNL     1       5.574   0.330  -0.716  0.00  0.00    +0.000 A 
ATOM     11  C   UNL     1       6.875   0.008  -1.137  0.00  0.00    +0.000 A 
ATOM     12  C   UNL     1       7.101  -0.513  -2.407  0.00  0.00    +0.000 A 
ATOM     13  C   UNL     1       6.003  -0.683  -3.253  0.00  0.00    +0.000 A 
ATOM     14  C   UNL     1       4.704  -0.355  -2.822  0.00  0.00    +0.000 A 
BRANCH   9  15
ATOM     15  N   UNL     1       3.087   0.268  -1.009  0.00  0.00    +0.000 N 
BRANCH  15  17
ATOM     16  C   UNL     1       1.681   0.436   1.103  0.00  0.00    +0.000 C 
ATOM     17  C   UNL     1       3.047   0.195   0.478  0.00  0.00    +0.000 C 
ENDBRANCH  15  17
BRANCH  15  18
ATOM     18  C   UNL     1       2.064  -0.495  -1.760  0.00  0.00    +0.000 C 
ATOM     19  C   UNL     1       2.210  -2.008  -1.718  0.00  0.00    +0.000 C 
ENDBRANCH  15  18
ENDBRANCH   9  15
ENDBRANCH   1  12
BRANCH   1  20
ATOM     20  C   UNL     1       9.045  -2.141  -2.889  0.00  0.00    +0.000 A 
ATOM     21  C   UNL     1       9.755  -2.801  -1.864  0.00  0.00    +0.000 A 
ATOM     22  C   UNL     1       9.874  -4.218  -1.859  0.00  0.00    +0.000 A 
ATOM     23  C   UNL     1       9.326  -4.989  -2.878  0.00  0.00    +0.000 A 
ATOM     24  C   UNL     1       8.721  -4.335  -3.945  0.00  0.00    +0.000 A 
ATOM     25  C   UNL     1       8.596  -2.937  -3.960  0.00  0.00    +0.000 A 
BRANCH  21  26
ATOM     26  S   UNL     1      10.637  -1.967  -0.510  0.00  0.00    +0.000 S 
ATOM     27  O   UNL     1      10.025  -2.556   0.682  0.00  0.00    +0.000 OA
ATOM     28  O   UNL     1      10.369  -0.536  -0.693  0.00  0.00    +0.000 OA
ATOM     29  O   UNL     1      12.022  -2.350  -0.760  0.00  0.00    -1.000 OA
ENDBRANCH  21  26
BRANCH  24  30
ATOM     30  S   UNL     1       7.945  -5.291  -5.274  0.00  0.00    +0.000 S 
ATOM     31  O   UNL     1       6.878  -4.399  -5.732  0.00  0.00    +0.000 OA
ATOM     32  O   UNL     1       7.481  -6.496  -4.594  0.00  0.00    +0.000 OA
ATOM     33  O   UNL     1       9.054  -5.466  -6.205  0.00  0.00    -1.000 OA
ENDBRANCH  24  30
ENDBRANCH   1  20
BRANCH   6  34
ATOM     34  C   UNL     1      13.016   3.707  -3.114  0.00  0.00    +0.000 C 
ATOM     35  C   UNL     1      13.663   3.068  -1.902  0.00  0.00    +0.000 C 
ENDBRANCH   6  34
BRANCH   6  36
ATOM     36  C   UNL     1      10.978   4.936  -2.247  0.00  0.00    +0.000 C 
ATOM     37  C   UNL     1      10.747   6.097  -3.200  0.00  0.00    +0.000 C 
ENDBRANCH   6  36
TORSDOF 9
