REMARK  Name = 
REMARK  7 active torsions:
REMARK  status: ('A' for Active; 'I' for Inactive)
REMARK    1  A    between atoms: S_4  and  O_7
REMARK    2  A    between atoms: O_7  and  C_8
REMARK    3  A    between atoms: C_11  and  C_14
REMARK    4  A    between atoms: C_14  and  C_15
REMARK    5  A    between atoms: C_14  and  C_26
REMARK    6  A    between atoms: C_18  and  O_19
REMARK    7  A    between atoms: O_19  and  S_20
REMARK                            x       y       z     vdW  Elec       q    Type
REMARK                         _______ _______ _______ _____ _____    ______ ____
ROOT
ATOM      1 NA   UNL     1       0.140  -1.400  -1.911  0.00  0.00    +0.000 Na
ENDROOT
TORSDOF 0
REMARK  Name = 
REMARK  7 active torsions:
REMARK  status: ('A' for Active; 'I' for Inactive)
REMARK    1  A    between atoms: S_4  and  O_7
REMARK    2  A    between atoms: O_7  and  C_8
REMARK    3  A    between atoms: C_11  and  C_14
REMARK    4  A    between atoms: C_14  and  C_15
REMARK    5  A    between atoms: C_14  and  C_26
REMARK    6  A    between atoms: C_18  and  O_19
REMARK    7  A    between atoms: O_19  and  S_20
REMARK                            x       y       z     vdW  Elec       q    Type
REMARK                         _______ _______ _______ _____ _____    ______ ____
ROOT
ATOM      1 NA   UNL     1       1.621   1.102   2.309  0.00  0.00    +0.000 Na
ENDROOT
TORSDOF 0
REMARK  Name = 
REMARK  7 active torsions:
REMARK  status: ('A' for Active; 'I' for Inactive)
REMARK    1  A    between atoms: S_4  and  O_7
REMARK    2  A    between atoms: O_7  and  C_8
REMARK    3  A    between atoms: C_11  and  C_14
REMARK    4  A    between atoms: C_14  and  C_15
REMARK    5  A    between atoms: C_14  and  C_26
REMARK    6  A    between atoms: C_18  and  O_19
REMARK    7  A    between atoms: O_19  and  S_20
REMARK                            x       y       z     vdW  Elec       q    Type
REMARK                         _______ _______ _______ _____ _____    ______ ____
ROOT
ATOM      1  C   UNL     1       8.887  -1.145   1.892  0.00  0.00    +0.000 C 
ENDROOT
BRANCH   1   5
ATOM      2  C   UNL     1       4.578  -0.941   1.358  0.00  0.00    +0.000 A 
ATOM      3  C   UNL     1       5.109  -1.415   2.564  0.00  0.00    +0.000 A 
ATOM      4  C   UNL     1       6.491  -1.426   2.781  0.00  0.00    +0.000 A 
ATOM      5  C   UNL     1       7.366  -0.971   1.787  0.00  0.00    +0.000 A 
ATOM      6  C   UNL     1       6.813  -0.391   0.634  0.00  0.00    +0.000 A 
ATOM      7  C   UNL     1       5.429  -0.353   0.433  0.00  0.00    +0.000 A 
BRANCH   2   8
ATOM      8  O   UNL     1       3.241  -1.184   1.199  0.00  0.00    +0.000 OA
BRANCH   8  10
ATOM      9  O   UNL     1       1.698   0.435   0.312  0.00  0.00    -0.330 OA
ATOM     10  S   UNL     1       2.334  -0.822  -0.101  0.00  0.00    +0.000 S 
ATOM     11  O   UNL     1       3.107  -0.740  -1.315  0.00  0.00    -0.330 OA
ATOM     12  O   UNL     1       1.305  -1.864  -0.184  0.00  0.00    -0.330 OA
ENDBRANCH   8  10
ENDBRANCH   2   8
ENDBRANCH   1   5
BRANCH   1  13
ATOM     13  C   UNL     1       9.381  -2.605   1.801  0.00  0.00    +0.000 A 
ATOM     14  N   UNL     1       8.474  -3.610   1.653  0.00  0.00    +0.000 NA
ATOM     15  C   UNL     1       8.943  -4.870   1.518  0.00  0.00    +0.000 A 
ATOM     16  C   UNL     1      10.286  -5.200   1.526  0.00  0.00    +0.000 A 
ATOM     17  C   UNL     1      11.209  -4.174   1.676  0.00  0.00    +0.000 A 
ATOM     18  C   UNL     1      10.756  -2.864   1.806  0.00  0.00    +0.000 A 
ENDBRANCH   1  13
BRANCH   1  19
ATOM     19  C   UNL     1       9.489  -0.336   3.042  0.00  0.00    +0.000 A 
ATOM     20  C   UNL     1       9.882   0.995   2.803  0.00  0.00    +0.000 A 
ATOM     21  C   UNL     1      10.475   1.756   3.813  0.00  0.00    +0.000 A 
ATOM     22  C   UNL     1      10.680   1.207   5.075  0.00  0.00    +0.000 A 
ATOM     23  C   UNL     1      10.270  -0.102   5.328  0.00  0.00    +0.000 A 
ATOM     24  C   UNL     1       9.675  -0.870   4.320  0.00  0.00    +0.000 A 
BRANCH  22  25
ATOM     25  O   UNL     1      11.211   1.880   6.145  0.00  0.00    +0.000 OA
BRANCH  25  26
ATOM     26  S   UNL     1      12.343   3.055   5.984  0.00  0.00    +0.000 S 
ATOM     27  O   UNL     1      12.745   3.319   7.366  0.00  0.00    -0.330 OA
ATOM     28  O   UNL     1      11.650   4.160   5.341  0.00  0.00    -0.330 OA
ATOM     29  O   UNL     1      13.396   2.441   5.171  0.00  0.00    -0.330 OA
ENDBRANCH  25  26
ENDBRANCH  22  25
ENDBRANCH   1  19
TORSDOF 7
