REMARK  Name = 
REMARK  1 active torsions:
REMARK  status: ('A' for Active; 'I' for Inactive)
REMARK    1  A    between atoms: N_4  and  C_5
REMARK                            x       y       z     vdW  Elec       q    Type
REMARK                         _______ _______ _______ _____ _____    ______ ____
ROOT
ATOM      1  F   UNL     1       3.305  -1.026   2.316  0.00  0.00    -0.198 F 
ATOM      2  C   UNL     1       3.470  -0.431   1.121  0.00  0.00    +0.204 A 
ATOM      3  C   UNL     1       2.788  -1.029  -0.043  0.00  0.00    +0.289 A 
ATOM      4  O   UNL     1       2.075  -2.022   0.043  0.00  0.00    -0.265 OA
ATOM      5  N   UNL     1       2.998  -0.379  -1.230  0.00  0.00    -0.273 N 
ATOM      6  H   UNL     1       2.534  -0.751  -2.044  0.00  0.00    +0.174 HD
ATOM      7  C   UNL     1       3.727   0.771  -1.409  0.00  0.00    +0.331 A 
ATOM      8  O   UNL     1       3.777   1.305  -2.514  0.00  0.00    -0.246 OA
ATOM      9  N   UNL     1       4.371   1.261  -0.277  0.00  0.00    -0.271 N 
ATOM     10  C   UNL     1       4.215   0.662   0.961  0.00  0.00    +0.137 A 
ENDROOT
BRANCH   9  11
ATOM     11  C   UNL     1       5.177   2.460  -0.443  0.00  0.00    +0.223 C 
ATOM     12  O   UNL     1       6.211   2.542   0.554  0.00  0.00    -0.356 OA
ATOM     13  C   UNL     1       6.413   3.928   0.871  0.00  0.00    +0.162 C 
ATOM     14  C   UNL     1       5.490   4.738  -0.018  0.00  0.00    +0.032 C 
ATOM     15  C   UNL     1       4.388   3.754  -0.320  0.00  0.00    +0.057 C 
ENDBRANCH   9  11
TORSDOF 1
