REMARK  Name = 
REMARK  10 active torsions:
REMARK  status: ('A' for Active; 'I' for Inactive)
REMARK    1  A    between atoms: C_1  and  N_2
REMARK    2  A    between atoms: C_9  and  N_10
REMARK    3  A    between atoms: N_10  and  C_11
REMARK    4  A    between atoms: C_11  and  C_12
REMARK    5  A    between atoms: C_12  and  C_13
REMARK    6  A    between atoms: C_13  and  C_14
REMARK    7  A    between atoms: C_14  and  C_15
REMARK    8  A    between atoms: C_15  and  C_16
REMARK    9  A    between atoms: C_16  and  C_17
REMARK   10  A    between atoms: C_17  and  O_18
REMARK                            x       y       z     vdW  Elec       q    Type
REMARK                         _______ _______ _______ _____ _____    ______ ____
ROOT
ATOM      1  C   UNL     1       0.850  -0.156  -0.026  0.00  0.00    +0.157 C 
ATOM      2  N   UNL     1       2.301  -0.047  -0.163  0.00  0.00    -0.206 N 
ATOM      3  S   UNL     1       3.073   1.310   0.455  0.00  0.00    +0.075 S 
ATOM      4  O   UNL     1       3.939   0.912   1.545  0.00  0.00    -0.150 OA
ATOM      5  O   UNL     1       2.063   2.334   0.641  0.00  0.00    -0.150 OA
ATOM      6  C   UNL     1       4.143   1.917  -0.847  0.00  0.00    +0.115 A 
ATOM      7  C   UNL     1       4.622   3.222  -0.605  0.00  0.00    +0.049 A 
ATOM      8  C   UNL     1       5.453   3.848  -1.522  0.00  0.00    +0.043 A 
ATOM      9  C   UNL     1       5.840   3.179  -2.672  0.00  0.00    +0.020 A 
ATOM     10  C   UNL     1       5.359   1.890  -2.925  0.00  0.00    +0.009 A 
ATOM     11 CL   UNL     1       5.981   5.460  -1.245  0.00  0.00    -0.083 Cl
ATOM     12  C   UNL     1       4.478   1.226  -2.039  0.00  0.00    +0.001 A 
ATOM     13  C   UNL     1       3.812  -0.092  -2.474  0.00  0.00    +0.118 C 
ATOM     14  C   UNL     1       3.946  -1.226  -1.468  0.00  0.00    -0.003 A 
ATOM     15  C   UNL     1       4.812  -2.321  -1.620  0.00  0.00    +0.007 A 
ATOM     16  C   UNL     1       4.807  -3.371  -0.698  0.00  0.00    +0.000 A 
ATOM     17  C   UNL     1       3.975  -3.318   0.418  0.00  0.00    +0.002 A 
ATOM     18  C   UNL     1       3.135  -2.223   0.606  0.00  0.00    +0.025 A 
ATOM     19  C   UNL     1       3.108  -1.201  -0.346  0.00  0.00    +0.056 A 
ENDROOT
BRANCH  13  20
ATOM     20  N   UNL     1       4.160  -0.490  -3.861  0.00  0.00    -0.306 NA
ATOM     21  H   UNL     1       5.130  -0.794  -3.880  0.00  0.00    +0.123 HD
BRANCH  20  22
ATOM     22  C   UNL     1       3.309  -1.534  -4.443  0.00  0.00    +0.082 C 
BRANCH  22  23
ATOM     23  C   UNL     1       1.842  -1.127  -4.575  0.00  0.00    +0.015 C 
BRANCH  23  24
ATOM     24  C   UNL     1       1.002  -2.255  -5.167  0.00  0.00    +0.001 C 
BRANCH  24  25
ATOM     25  C   UNL     1      -0.461  -1.827  -5.264  0.00  0.00    +0.001 C 
BRANCH  25  26
ATOM     26  C   UNL     1      -1.324  -2.948  -5.831  0.00  0.00    +0.011 C 
BRANCH  26  27
ATOM     27  C   UNL     1      -2.785  -2.521  -5.943  0.00  0.00    +0.120 C 
BRANCH  27  28
ATOM     28  C   UNL     1      -3.645  -3.632  -6.508  0.00  0.00    +0.305 C 
ATOM     29  O   UNL     1      -3.241  -4.736  -6.832  0.00  0.00    -0.251 OA
BRANCH  28  30
ATOM     30  O   UNL     1      -4.941  -3.270  -6.620  0.00  0.00    -0.481 OA
ATOM     31  H   UNL     1      -5.125  -2.359  -6.325  0.00  0.00    +0.295 HD
ENDBRANCH  28  30
ENDBRANCH  27  28
ENDBRANCH  26  27
ENDBRANCH  25  26
ENDBRANCH  24  25
ENDBRANCH  23  24
ENDBRANCH  22  23
ENDBRANCH  20  22
ENDBRANCH  13  20
TORSDOF 9
