REMARK  Name = 
REMARK  6 active torsions:
REMARK  status: ('A' for Active; 'I' for Inactive)
REMARK    1  A    between atoms: C_2  and  N_3
REMARK    2  A    between atoms: N_3  and  C_4
REMARK    3  A    between atoms: N_3  and  C_5
REMARK    4  A    between atoms: N_3  and  C_9
REMARK    5  A    between atoms: C_9  and  C_10
REMARK    6  A    between atoms: C_10  and  O_11
REMARK                            x       y       z     vdW  Elec       q    Type
REMARK                         _______ _______ _______ _____ _____    ______ ____
ROOT
ATOM      1 CL   UNL     1       0.858  -2.313   2.616  0.00  0.00    +0.000 Cl
ENDROOT
TORSDOF 0
REMARK  Name = 
REMARK  6 active torsions:
REMARK  status: ('A' for Active; 'I' for Inactive)
REMARK    1  A    between atoms: C_2  and  N_3
REMARK    2  A    between atoms: N_3  and  C_4
REMARK    3  A    between atoms: N_3  and  C_5
REMARK    4  A    between atoms: N_3  and  C_9
REMARK    5  A    between atoms: C_9  and  C_10
REMARK    6  A    between atoms: C_10  and  O_11
REMARK                            x       y       z     vdW  Elec       q    Type
REMARK                         _______ _______ _______ _____ _____    ______ ____
ROOT
ATOM      1  C   UNL     1       1.029   0.311  -0.223  0.00  0.00    +0.192 C 
ATOM      2  N   UNL     1       2.558   0.228  -0.233  0.00  0.00    +0.238 N 
ATOM      3  C   UNL     1       3.087   1.024  -1.396  0.00  0.00    +0.192 C 
ATOM      4  C   UNL     1       2.951  -1.242  -0.399  0.00  0.00    +0.192 C 
ENDROOT
BRANCH   2   5
ATOM      5  C   UNL     1       3.045   0.774   1.130  0.00  0.00    +0.160 C 
BRANCH   5   6
ATOM      6  C   UNL     1       4.572   0.801   1.308  0.00  0.00    +0.206 C 
BRANCH   6   7
ATOM      7  O   UNL     1       5.162  -0.492   1.257  0.00  0.00    -0.390 OA
ATOM      8  H   UNL     1       4.809  -1.011   2.008  0.00  0.00    +0.210 HD
ENDBRANCH   6   7
ENDBRANCH   5   6
ENDBRANCH   2   5
TORSDOF 3
