REMARK  Name = 
REMARK  15 active torsions:
REMARK  status: ('A' for Active; 'I' for Inactive)
REMARK    1  A    between atoms: C_1  and  O_2
REMARK    2  A    between atoms: O_2  and  C_3
REMARK    3  A    between atoms: C_3  and  C_5
REMARK    4  A    between atoms: C_6  and  C_7
REMARK    5  A    between atoms: C_9  and  C_10
REMARK    6  A    between atoms: C_11  and  C_22
REMARK    7  A    between atoms: C_12  and  C_13
REMARK    8  A    between atoms: C_17  and  N_19
REMARK    9  A    between atoms: C_22  and  O_24
REMARK   10  A    between atoms: O_24  and  C_25
REMARK   11  A    between atoms: C_25  and  C_26
REMARK   12  A    between atoms: C_26  and  C_27
REMARK   13  A    between atoms: C_27  and  N_28
REMARK   14  A    between atoms: C_31  and  C_34
REMARK   15  A    between atoms: C_31  and  C_40
REMARK                            x       y       z     vdW  Elec       q    Type
REMARK                         _______ _______ _______ _____ _____    ______ ____
ROOT
ATOM      1  C   UNL     1       7.686  -0.835  -1.564  0.00  0.00    +0.338 C 
ATOM      2  O   UNL     1       8.901  -0.826  -1.446  0.00  0.00    -0.245 OA
ENDROOT
BRANCH   1   5
ATOM      3  C   UNL     1       4.618  -1.478   0.807  0.00  0.00    +0.065 C 
ATOM      4  C   UNL     1       5.369  -0.844  -0.375  0.00  0.00    +0.096 C 
ATOM      5  C   UNL     1       6.746  -1.484  -0.617  0.00  0.00    +0.065 C 
ATOM      6  C   UNL     1       7.131  -2.594   0.050  0.00  0.00    +0.016 C 
ATOM      7  C   UNL     1       8.477  -3.260  -0.107  0.00  0.00    +0.061 C 
ATOM      8  N   UNL     1       6.265  -3.181   0.950  0.00  0.00    -0.321 N 
ATOM      9  H   UNL     1       6.625  -3.961   1.495  0.00  0.00    +0.152 HD
ATOM     10  C   UNL     1       5.082  -2.609   1.392  0.00  0.00    +0.016 C 
ATOM     11  C   UNL     1       4.437  -3.357   2.535  0.00  0.00    +0.061 C 
BRANCH   4  12
ATOM     12  C   UNL     1       5.504   0.674  -0.239  0.00  0.00    -0.029 A 
ATOM     13  C   UNL     1       6.358   1.226   0.726  0.00  0.00    +0.088 A 
ATOM     14  C   UNL     1       6.570   2.612   0.758  0.00  0.00    +0.273 A 
ATOM     15  C   UNL     1       5.902   3.460  -0.136  0.00  0.00    +0.084 A 
ATOM     16  C   UNL     1       5.025   2.914  -1.074  0.00  0.00    +0.007 A 
ATOM     17  C   UNL     1       4.834   1.533  -1.129  0.00  0.00    +0.005 A 
BRANCH  14  18
ATOM     18  N   UNL     1       7.530   3.172   1.717  0.00  0.00    +0.080 N 
ATOM     19  O   UNL     1       8.088   2.391   2.500  0.00  0.00    +0.041 OA
ATOM     20  O   UNL     1       7.729   4.397   1.685  0.00  0.00    -0.576 OA
ENDBRANCH  14  18
ENDBRANCH   4  12
BRANCH   3  21
ATOM     21  C   UNL     1       3.425  -0.780   1.351  0.00  0.00    +0.337 C 
ATOM     22  O   UNL     1       3.146  -0.729   2.541  0.00  0.00    -0.245 OA
BRANCH  21  24
ATOM     23  C   UNL     1       1.672   0.679   0.838  0.00  0.00    +0.280 C 
ATOM     24  O   UNL     1       2.720  -0.171   0.364  0.00  0.00    -0.465 OA
ENDBRANCH  21  24
ENDBRANCH   3  21
ENDBRANCH   1   5
BRANCH   1  25
ATOM     25  O   UNL     1       6.982  -0.311  -2.593  0.00  0.00    -0.461 OA
BRANCH  25  26
ATOM     26  C   UNL     1       7.763   0.080  -3.727  0.00  0.00    +0.234 C 
BRANCH  26  27
ATOM     27  C   UNL     1       6.929  -0.302  -4.940  0.00  0.00    +0.056 C 
BRANCH  27  28
ATOM     28  C   UNL     1       7.737  -0.292  -6.232  0.00  0.00    +0.087 C 
BRANCH  28  29
ATOM     29  N   UNL     1       8.919  -1.167  -6.173  0.00  0.00    -0.302 NA
ATOM     30  C   UNL     1       9.790  -1.014  -7.341  0.00  0.00    +0.085 C 
ATOM     31  C   UNL     1       9.192  -1.624  -8.609  0.00  0.00    +0.031 C 
ATOM     32  C   UNL     1       8.821  -3.146  -8.475  0.00  0.00    +0.023 C 
ATOM     33  C   UNL     1       7.934  -3.228  -7.184  0.00  0.00    +0.031 C 
ATOM     34  C   UNL     1       8.613  -2.586  -5.970  0.00  0.00    +0.085 C 
BRANCH  32  35
ATOM     35  C   UNL     1      10.092  -4.042  -8.365  0.00  0.00    -0.037 A 
ATOM     36  C   UNL     1      11.267  -3.741  -9.077  0.00  0.00    +0.004 A 
ATOM     37  C   UNL     1      12.430  -4.508  -8.929  0.00  0.00    +0.000 A 
ATOM     38  C   UNL     1      12.441  -5.614  -8.087  0.00  0.00    +0.000 A 
ATOM     39  C   UNL     1      11.284  -5.965  -7.406  0.00  0.00    +0.000 A 
ATOM     40  C   UNL     1      10.126  -5.195  -7.552  0.00  0.00    +0.004 A 
ENDBRANCH  32  35
BRANCH  32  41
ATOM     41  C   UNL     1       7.939  -3.609  -9.673  0.00  0.00    -0.037 A 
ATOM     42  C   UNL     1       7.306  -4.868  -9.647  0.00  0.00    +0.004 A 
ATOM     43  C   UNL     1       6.418  -5.259 -10.654  0.00  0.00    +0.000 A 
ATOM     44  C   UNL     1       6.148  -4.408 -11.719  0.00  0.00    +0.000 A 
ATOM     45  C   UNL     1       6.789  -3.178 -11.792  0.00  0.00    +0.000 A 
ATOM     46  C   UNL     1       7.683  -2.790 -10.790  0.00  0.00    +0.004 A 
ENDBRANCH  32  41
ENDBRANCH  28  29
ENDBRANCH  27  28
ENDBRANCH  26  27
ENDBRANCH  25  26
ENDBRANCH   1  25
TORSDOF 12
