REMARK  Name = 
REMARK  14 active torsions:
REMARK  status: ('A' for Active; 'I' for Inactive)
REMARK    1  A    between atoms: C_1  and  C_2
REMARK    2  A    between atoms: C_2  and  C_3
REMARK    3  A    between atoms: C_2  and  N_4
REMARK    4  A    between atoms: N_4  and  C_5
REMARK    5  A    between atoms: C_5  and  C_6
REMARK    6  A    between atoms: C_6  and  O_8
REMARK    7  A    between atoms: C_6  and  C_9
REMARK    8  A    between atoms: C_9  and  O_10
REMARK    9  A    between atoms: O_10  and  C_11
REMARK   10  A    between atoms: C_14  and  C_15
REMARK   11  A    between atoms: C_15  and  C_16
REMARK   12  A    between atoms: C_16  and  O_17
REMARK   13  A    between atoms: O_17  and  C_18
REMARK   14  A    between atoms: C_18  and  C_19
REMARK                            x       y       z     vdW  Elec       q    Type
REMARK                         _______ _______ _______ _____ _____    ______ ____
ROOT
ATOM      1  C   UNL     1       8.364  -1.713  -3.941  0.00  0.00    +0.121 A 
ATOM      2  C   UNL     1       8.913  -2.990  -4.061  0.00  0.00    +0.046 A 
ATOM      3  C   UNL     1      10.251  -3.155  -4.437  0.00  0.00    +0.007 A 
ATOM      4  C   UNL     1      11.060  -2.041  -4.694  0.00  0.00    -0.045 A 
ATOM      5  C   UNL     1      10.505  -0.764  -4.555  0.00  0.00    +0.007 A 
ATOM      6  C   UNL     1       9.177  -0.601  -4.167  0.00  0.00    +0.046 A 
ENDROOT
BRANCH   1   7
ATOM      7  O   UNL     1       7.034  -1.660  -3.610  0.00  0.00    -0.489 OA
BRANCH   7   8
ATOM      8  C   UNL     1       6.435  -0.364  -3.766  0.00  0.00    +0.261 C 
BRANCH   8   9
ATOM      9  C   UNL     1       4.920  -0.481  -3.589  0.00  0.00    +0.166 C 
BRANCH   9  10
ATOM     10  O   UNL     1       4.628  -0.980  -2.276  0.00  0.00    -0.387 OA
ATOM     11  H   UNL     1       5.190  -1.771  -2.167  0.00  0.00    +0.210 HD
ENDBRANCH   9  10
BRANCH   9  12
ATOM     12  C   UNL     1       4.247   0.894  -3.765  0.00  0.00    +0.115 C 
BRANCH  12  13
ATOM     13  N   UNL     1       4.455   1.548  -5.067  0.00  0.00    -0.311 NA
ATOM     14  H   UNL     1       3.999   2.462  -5.049  0.00  0.00    +0.122 HD
BRANCH  13  16
ATOM     15  C   UNL     1       2.458   0.550  -6.181  0.00  0.00    +0.023 C 
ATOM     16  C   UNL     1       3.968   0.782  -6.222  0.00  0.00    +0.048 C 
ATOM     17  C   UNL     1       4.345   1.540  -7.498  0.00  0.00    +0.023 C 
ENDBRANCH  13  16
ENDBRANCH  12  13
ENDBRANCH   9  12
ENDBRANCH   8   9
ENDBRANCH   7   8
ENDBRANCH   1   7
BRANCH   4  18
ATOM     18  C   UNL     1      12.491  -2.200  -5.145  0.00  0.00    +0.063 C 
BRANCH  18  19
ATOM     19  C   UNL     1      13.482  -1.496  -4.218  0.00  0.00    +0.164 C 
BRANCH  19  20
ATOM     20  O   UNL     1      14.807  -1.642  -4.728  0.00  0.00    -0.379 OA
BRANCH  20  21
ATOM     21  C   UNL     1      15.734  -0.906  -3.929  0.00  0.00    +0.163 C 
BRANCH  21  22
ATOM     22  C   UNL     1      17.102  -1.055  -4.509  0.00  0.00    +0.015 C 
ATOM     23  C   UNL     1      18.127  -1.951  -3.860  0.00  0.00    +0.006 C 
ATOM     24  C   UNL     1      18.283  -0.460  -3.787  0.00  0.00    +0.006 C 
ENDBRANCH  21  22
ENDBRANCH  20  21
ENDBRANCH  19  20
ENDBRANCH  18  19
ENDBRANCH   4  18
TORSDOF 12
