REMARK  Name = 
REMARK  1 active torsions:
REMARK  status: ('A' for Active; 'I' for Inactive)
REMARK    1  A    between atoms: O_1  and  B_2
REMARK                            x       y       z     vdW  Elec       q    Type
REMARK                         _______ _______ _______ _____ _____    ______ ____
ROOT
ATOM      1  B   UNL     1       2.837   0.055  -0.061  0.00  0.00    +0.000 B 
ATOM      2  C   UNL     1       3.749   1.264  -0.064  0.00  0.00    +0.000 A 
ATOM      3  C   UNL     1       5.006   0.745  -0.055  0.00  0.00    +0.000 A 
ATOM      4  C   UNL     1       6.124   1.584  -0.054  0.00  0.00    +0.000 A 
ATOM      5  C   UNL     1       5.922   2.975  -0.063  0.00  0.00    +0.000 A 
ATOM      6  C   UNL     1       4.614   3.501  -0.072  0.00  0.00    +0.000 A 
ATOM      7  F   UNL     1       6.987   3.813  -0.062  0.00  0.00    +0.000 F 
ATOM      8  C   UNL     1       4.982  -0.756  -0.046  0.00  0.00    +0.000 C 
ATOM      9  C   UNL     1       3.506   2.637  -0.073  0.00  0.00    +0.000 A 
ATOM     10  O   UNL     1       3.624  -1.191  -0.050  0.00  0.00    +0.000 OA
ENDROOT
BRANCH   1  11
ATOM     11  O   UNL     1       1.376   0.105  -0.065  0.00  0.00    +0.000 OA
ATOM     12  H   UNL     1       1.081  -0.841  -0.073  0.00  0.00    +0.000 HD
ENDBRANCH   1  11
TORSDOF 1
