REMARK  Name = 
REMARK  4 active torsions:
REMARK  status: ('A' for Active; 'I' for Inactive)
REMARK    1  A    between atoms: C_5  and  O_6
REMARK    2  A    between atoms: C_5  and  C_7
REMARK    3  A    between atoms: C_7  and  C_8
REMARK    4  A    between atoms: C_10  and  C_11
REMARK                            x       y       z     vdW  Elec       q    Type
REMARK                         _______ _______ _______ _____ _____    ______ ____
ROOT
ATOM      1  C   UNL     1      -0.000  -0.000  -0.000  0.00  0.00    +0.005 C 
ATOM      2  C   UNL     1      -0.000  -0.000   0.000  0.00  0.00    +0.019 C 
ATOM      3  C   UNL     1      -0.000  -0.000  -0.000  0.00  0.00    -0.063 C 
ATOM      4  C   UNL     1      -0.000  -0.000  -0.000  0.00  0.00    -0.044 C 
ATOM      5  C   UNL     1      -0.000  -0.000   0.000  0.00  0.00    -0.041 C 
ATOM      6  C   UNL     1      -0.000  -0.000  -0.000  0.00  0.00    +0.036 C 
ATOM      7  C   UNL     1      -0.000  -0.000  -0.000  0.00  0.00    +0.050 C 
ATOM      8  C   UNL     1      -0.000  -0.000  -0.000  0.00  0.00    +0.157 C 
ATOM      9  O   UNL     1      -0.000  -0.000  -0.000  0.00  0.00    -0.293 OA
ATOM     10  C   UNL     1      -0.000  -0.000   0.000  0.00  0.00    +0.083 C 
ATOM     11  C   UNL     1      -0.000  -0.000  -0.000  0.00  0.00    +0.043 C 
ATOM     12  C   UNL     1      -0.000  -0.000   0.000  0.00  0.00    +0.032 C 
ATOM     13  C   UNL     1      -0.000  -0.000   0.000  0.00  0.00    +0.014 C 
ATOM     14  C   UNL     1       0.000  -0.000   0.000  0.00  0.00    +0.013 C 
ATOM     15  C   UNL     1      -0.000  -0.000  -0.000  0.00  0.00    +0.001 C 
ATOM     16  C   UNL     1      -0.000  -0.000   0.000  0.00  0.00    +0.014 C 
ATOM     17  C   UNL     1      -0.000  -0.000   0.000  0.00  0.00    +0.084 C 
ATOM     18  C   UNL     1      -0.000  -0.000   0.000  0.00  0.00    +0.036 C 
ATOM     19  C   UNL     1      -0.000  -0.000   0.000  0.00  0.00    +0.007 C 
ENDROOT
BRANCH  17  20
ATOM     20  O   UNL     1      -0.000  -0.000  -0.000  0.00  0.00    -0.387 OA
ATOM     21  H   UNL     1       0.000   0.000   0.000  0.00  0.00    +0.210 HD
ENDBRANCH  17  20
BRANCH  17  22
ATOM     22  C   UNL     1      -0.000  -0.000  -0.000  0.00  0.00    +0.153 C 
BRANCH  22  23
ATOM     23  C   UNL     1      -0.000  -0.000   0.000  0.00  0.00    +0.065 C 
ATOM     24  N   UNL     1      -0.000  -0.000   0.000  0.00  0.00    -0.196 NA
ENDBRANCH  22  23
ENDBRANCH  17  22
TORSDOF 3
