REMARK  Name = 
REMARK  5 active torsions:
REMARK  status: ('A' for Active; 'I' for Inactive)
REMARK    1  A    between atoms: C_3  and  C_4
REMARK    2  A    between atoms: C_4  and  O_5
REMARK    3  A    between atoms: O_5  and  C_6
REMARK    4  A    between atoms: C_11  and  C_12
REMARK    5  A    between atoms: C_12  and  C_13
REMARK                            x       y       z     vdW  Elec       q    Type
REMARK                         _______ _______ _______ _____ _____    ______ ____
ROOT
ATOM      1  C   UNL     1       2.649   4.790  -0.285  0.00  0.00    +0.122 A 
ATOM      2  C   UNL     1       3.556   5.836  -0.128  0.00  0.00    +0.054 A 
ATOM      3  C   UNL     1       3.152   7.159  -0.299  0.00  0.00    -0.014 A 
ATOM      4  C   UNL     1       1.816   7.447  -0.643  0.00  0.00    -0.017 A 
ATOM      5  C   UNL     1       1.422   8.790  -0.732  0.00  0.00    +0.012 A 
ATOM      6  C   UNL     1       2.337   9.829  -0.497  0.00  0.00    -0.045 A 
ATOM      7  C   UNL     1       3.671   9.517  -0.226  0.00  0.00    +0.004 A 
ATOM      8  C   UNL     1       0.926   6.382  -0.867  0.00  0.00    +0.012 A 
ATOM      9  C   UNL     1       4.072   8.193  -0.114  0.00  0.00    +0.009 A 
ATOM     10  C   UNL     1       1.346   5.060  -0.698  0.00  0.00    +0.046 A 
ENDROOT
BRANCH   1  11
ATOM     11  O   UNL     1       2.955   3.476  -0.051  0.00  0.00    -0.487 OA
BRANCH  11  12
ATOM     12  C   UNL     1       4.025   3.292   0.885  0.00  0.00    +0.267 C 
BRANCH  12  19
ATOM     13  F   UNL     1       6.344   2.073   1.880  0.00  0.00    -0.205 F 
ATOM     14  C   UNL     1       5.203   1.368   1.955  0.00  0.00    +0.130 A 
ATOM     15  C   UNL     1       5.232   0.111   2.547  0.00  0.00    +0.039 A 
ATOM     16  C   UNL     1       4.052  -0.625   2.658  0.00  0.00    +0.003 A 
ATOM     17  C   UNL     1       2.855  -0.100   2.175  0.00  0.00    +0.001 A 
ATOM     18  C   UNL     1       2.833   1.160   1.577  0.00  0.00    +0.010 A 
ATOM     19  C   UNL     1       4.015   1.901   1.448  0.00  0.00    +0.025 A 
ENDBRANCH  12  19
ENDBRANCH  11  12
ENDBRANCH   1  11
BRANCH   6  20
ATOM     20  C   UNL     1       1.896  11.270  -0.492  0.00  0.00    +0.059 C 
BRANCH  20  21
ATOM     21  C   UNL     1       1.543  11.845   0.882  0.00  0.00    +0.146 C 
ATOM     22  C   UNL     1       2.661  11.831   1.910  0.00  0.00    +0.234 C 
ATOM     23  O   UNL     1       3.843  12.052   1.684  0.00  0.00    -0.274 OA
ATOM     24  N   UNL     1       2.169  11.635   3.168  0.00  0.00    -0.246 N 
ATOM     25  H   UNL     1       2.768  11.689   3.976  0.00  0.00    +0.158 HD
ATOM     26  C   UNL     1       0.870  11.280   3.306  0.00  0.00    +0.279 C 
ATOM     27  O   UNL     1       0.288  11.119   4.365  0.00  0.00    -0.263 OA
ATOM     28  S   UNL     1       0.125  11.079   1.739  0.00  0.00    -0.054 S 
ENDBRANCH  20  21
ENDBRANCH   6  20
TORSDOF 5
