REMARK  Name = 
REMARK  15 active torsions:
REMARK  status: ('A' for Active; 'I' for Inactive)
REMARK    1  A    between atoms: C_1  and  N_2
REMARK    2  A    between atoms: C_3  and  C_5
REMARK    3  A    between atoms: C_8  and  C_9
REMARK    4  A    between atoms: N_11  and  C_12
REMARK    5  A    between atoms: C_12  and  C_13
REMARK    6  A    between atoms: N_15  and  C_16
REMARK    7  A    between atoms: C_19  and  C_20
REMARK    8  A    between atoms: C_20  and  O_21
REMARK    9  A    between atoms: C_25  and  C_26
REMARK   10  A    between atoms: N_28  and  C_29
REMARK   11  A    between atoms: C_29  and  C_30
REMARK   12  A    between atoms: C_30  and  O_31
REMARK   13  A    between atoms: C_36  and  N_37
REMARK   14  A    between atoms: N_37  and  C_38
REMARK   15  A    between atoms: C_39  and  C_40
REMARK                            x       y       z     vdW  Elec       q    Type
REMARK                         _______ _______ _______ _____ _____    ______ ____
ROOT
ATOM      1  C   UNL     1      10.439   1.839  -5.256  0.00  0.00    +0.234 C 
ATOM      2  N   UNL     1       9.666   2.933  -5.641  0.00  0.00    -0.282 N 
ATOM      3  H   UNL     1       8.720   2.861  -5.261  0.00  0.00    +0.155 HD
ATOM      4  O   UNL     1      11.626   1.909  -4.941  0.00  0.00    -0.274 OA
ENDROOT
BRANCH   2   5
ATOM      5  C   UNL     1      10.269   4.220  -5.602  0.00  0.00    +0.062 A 
ATOM      6  C   UNL     1      11.050   4.668  -6.696  0.00  0.00    +0.049 A 
ATOM      7  I   UNL     1      10.988   3.472  -8.498  0.00  0.00    -0.041 I 
ATOM      8  C   UNL     1      11.719   5.910  -6.634  0.00  0.00    +0.065 A 
ATOM      9  C   UNL     1      11.603   6.685  -5.444  0.00  0.00    +0.042 A 
ATOM     10  I   UNL     1      12.894   8.407  -5.156  0.00  0.00    -0.042 I 
ATOM     11  C   UNL     1      10.757   6.277  -4.376  0.00  0.00    +0.088 A 
ATOM     12  C   UNL     1      10.080   5.047  -4.474  0.00  0.00    +0.051 A 
ATOM     13  I   UNL     1       8.783   4.355  -2.928  0.00  0.00    -0.041 I 
BRANCH   8  14
ATOM     14  C   UNL     1      12.433   6.479  -7.822  0.00  0.00    +0.246 C 
ATOM     15  N   UNL     1      13.323   5.662  -8.486  0.00  0.00    -0.309 N 
ATOM     16  H   UNL     1      13.320   4.667  -8.293  0.00  0.00    +0.149 HD
ATOM     17  O   UNL     1      12.201   7.627  -8.182  0.00  0.00    -0.270 OA
BRANCH  15  18
ATOM     18  C   UNL     1      14.003   6.096  -9.704  0.00  0.00    +0.132 C 
BRANCH  18  19
ATOM     19  C   UNL     1      15.467   6.414  -9.417  0.00  0.00    +0.174 C 
BRANCH  19  20
ATOM     20  O   UNL     1      16.131   5.239  -8.951  0.00  0.00    -0.393 OA
ATOM     21  H   UNL     1      15.677   4.986  -8.129  0.00  0.00    +0.209 HD
ENDBRANCH  19  20
ENDBRANCH  18  19
ENDBRANCH  15  18
ENDBRANCH   8  14
BRANCH  11  22
ATOM     22  C   UNL     1      10.520   7.186  -3.217  0.00  0.00    +0.339 C 
ATOM     23  O   UNL     1      10.177   8.347  -3.348  0.00  0.00    -0.245 OA
BRANCH  22  24
ATOM     24  O   UNL     1      10.739   6.631  -2.006  0.00  0.00    -0.477 OA
ATOM     25  H   UNL     1      10.774   5.656  -1.986  0.00  0.00    +0.295 HD
ENDBRANCH  22  24
ENDBRANCH  11  22
ENDBRANCH   2   5
BRANCH   1  26
ATOM     26  C   UNL     1       9.629   0.555  -5.136  0.00  0.00    +0.200 C 
BRANCH  26  28
ATOM     27  C   UNL     1       7.535   0.718  -3.803  0.00  0.00    +0.247 C 
ATOM     28  N   UNL     1       8.905   0.547  -3.863  0.00  0.00    -0.303 N 
ATOM     29  H   UNL     1       9.401   0.154  -3.072  0.00  0.00    +0.150 HD
ATOM     30  O   UNL     1       6.932   1.056  -4.812  0.00  0.00    -0.270 OA
BRANCH  27  37
ATOM     31  C   UNL     1       6.167  -1.016  -0.638  0.00  0.00    +0.065 A 
ATOM     32  C   UNL     1       5.091  -0.148  -0.304  0.00  0.00    +0.049 A 
ATOM     33  I   UNL     1       3.506  -0.983   0.954  0.00  0.00    -0.041 I 
ATOM     34  C   UNL     1       4.959   1.136  -0.906  0.00  0.00    +0.064 A 
ATOM     35  C   UNL     1       5.732   1.360  -2.089  0.00  0.00    +0.049 A 
ATOM     36  I   UNL     1       4.968   2.938  -3.414  0.00  0.00    -0.041 I 
ATOM     37  C   UNL     1       6.799   0.481  -2.497  0.00  0.00    +0.065 A 
ATOM     38  C   UNL     1       7.052  -0.665  -1.697  0.00  0.00    +0.040 A 
ATOM     39  I   UNL     1       8.775  -1.966  -2.055  0.00  0.00    -0.042 I 
BRANCH  31  43
ATOM     40  C   UNL     1       6.349  -3.576   2.176  0.00  0.00    +0.128 C 
ATOM     41  N   UNL     1       6.376  -2.338   1.424  0.00  0.00    -0.314 N 
ATOM     42  H   UNL     1       6.165  -1.489   1.932  0.00  0.00    +0.149 HD
ATOM     43  C   UNL     1       6.314  -2.342   0.043  0.00  0.00    +0.246 C 
ATOM     44  O   UNL     1       6.340  -3.367  -0.627  0.00  0.00    -0.270 OA
ENDBRANCH  31  43
BRANCH  34  45
ATOM     45  N   UNL     1       4.079   2.165  -0.375  0.00  0.00    -0.273 N 
ATOM     46  C   UNL     1       4.437   3.451   0.058  0.00  0.00    +0.216 C 
ATOM     47  O   UNL     1       3.590   4.223   0.543  0.00  0.00    -0.276 OA
ATOM     48  C   UNL     1       5.856   3.951   0.008  0.00  0.00    +0.109 C 
ATOM     49  C   UNL     1       2.648   1.907  -0.279  0.00  0.00    +0.138 C 
ENDBRANCH  34  45
ENDBRANCH  27  37
ENDBRANCH  26  28
ENDBRANCH   1  26
TORSDOF 12
