REMARK  Name = 
REMARK  19 active torsions:
REMARK  status: ('A' for Active; 'I' for Inactive)
REMARK    1  A    between atoms: N_2  and  C_4
REMARK    2  A    between atoms: N_2  and  C_16
REMARK    3  A    between atoms: C_4  and  C_5
REMARK    4  A    between atoms: C_5  and  N_6
REMARK    5  A    between atoms: N_6  and  C_9
REMARK    6  A    between atoms: C_9  and  C_10
REMARK    7  A    between atoms: C_16  and  C_17
REMARK    8  A    between atoms: C_26  and  C_27
REMARK    9  A    between atoms: C_26  and  C_28
REMARK   10  A    between atoms: CA_29  and  C_46
REMARK   11  A    between atoms: CA_34  and  N_36
REMARK   12  A    between atoms: C_37  and  C_39
REMARK   13  A    between atoms: C_39  and  C_40
REMARK   14  A    between atoms: C_52  and  C_53
REMARK   15  A    between atoms: C_52  and  C_54
REMARK   16  A    between atoms: CA_55  and  C_72
REMARK   17  A    between atoms: CA_60  and  N_62
REMARK   18  A    between atoms: C_63  and  C_65
REMARK   19  A    between atoms: C_65  and  C_66
REMARK                            x       y       z     vdW  Elec       q    Type
REMARK                         _______ _______ _______ _____ _____    ______ ____
ROOT
ATOM      1  C   UNL     1       0.682   0.423  -0.870  0.00  0.00    +0.181 C 
ENDROOT
BRANCH   1   3
ATOM      2  H   UNL     1       0.455   1.023   1.081  0.00  0.00    +0.202 HD
ATOM      3  N   UNL     1       1.231   0.539   0.593  0.00  0.00    +0.234 N 
ATOM      4  H   UNL     1       1.181  -0.413   0.976  0.00  0.00    +0.202 HD
BRANCH   3   5
ATOM      5  C   UNL     1       2.451   1.166   1.436  0.00  0.00    +0.166 C 
BRANCH   5   6
ATOM      6  C   UNL     1       2.720   2.589   2.077  0.00  0.00    -0.003 A 
ATOM      7  C   UNL     1       3.261   3.666   1.351  0.00  0.00    +0.009 A 
ATOM      8  C   UNL     1       3.895   4.780   2.004  0.00  0.00    +0.000 A 
ATOM      9  C   UNL     1       4.006   4.885   3.378  0.00  0.00    +0.000 A 
ATOM     10  C   UNL     1       3.454   3.869   4.135  0.00  0.00    +0.000 A 
ATOM     11  C   UNL     1       2.835   2.748   3.502  0.00  0.00    +0.009 A 
ENDBRANCH   5   6
ENDBRANCH   3   5
ENDBRANCH   1   3
BRANCH   1  12
ATOM     12  C   UNL     1       1.054  -0.391  -2.291  0.00  0.00    +0.181 C 
BRANCH  12  13
ATOM     13  N   UNL     1       1.456  -1.819  -2.681  0.00  0.00    +0.234 N 
ATOM     14  H   UNL     1       2.364  -2.077  -2.270  0.00  0.00    +0.202 HD
ATOM     15  H   UNL     1       1.694  -1.720  -3.681  0.00  0.00    +0.202 HD
BRANCH  13  16
ATOM     16  C   UNL     1       0.657  -3.134  -2.785  0.00  0.00    +0.166 C 
BRANCH  16  17
ATOM     17  C   UNL     1      -0.608  -3.269  -3.629  0.00  0.00    -0.003 A 
ATOM     18  C   UNL     1      -1.646  -4.091  -3.115  0.00  0.00    +0.009 A 
ATOM     19  C   UNL     1      -2.863  -4.274  -3.790  0.00  0.00    +0.000 A 
ATOM     20  C   UNL     1      -3.056  -3.692  -5.040  0.00  0.00    +0.000 A 
ATOM     21  C   UNL     1      -2.007  -3.004  -5.636  0.00  0.00    +0.000 A 
ATOM     22  C   UNL     1      -0.775  -2.817  -4.949  0.00  0.00    +0.009 A 
ENDBRANCH  16  17
ENDBRANCH  13  16
ENDBRANCH  12  13
ENDBRANCH   1  12
TORSDOF 7
REMARK  Name = 
REMARK  19 active torsions:
REMARK  status: ('A' for Active; 'I' for Inactive)
REMARK    1  A    between atoms: N_2  and  C_4
REMARK    2  A    between atoms: N_2  and  C_16
REMARK    3  A    between atoms: C_4  and  C_5
REMARK    4  A    between atoms: C_5  and  N_6
REMARK    5  A    between atoms: N_6  and  C_9
REMARK    6  A    between atoms: C_9  and  C_10
REMARK    7  A    between atoms: C_16  and  C_17
REMARK    8  A    between atoms: C_26  and  C_27
REMARK    9  A    between atoms: C_26  and  C_28
REMARK   10  A    between atoms: CA_29  and  C_46
REMARK   11  A    between atoms: CA_34  and  N_36
REMARK   12  A    between atoms: C_37  and  C_39
REMARK   13  A    between atoms: C_39  and  C_40
REMARK   14  A    between atoms: C_52  and  C_53
REMARK   15  A    between atoms: C_52  and  C_54
REMARK   16  A    between atoms: CA_55  and  C_72
REMARK   17  A    between atoms: CA_60  and  N_62
REMARK   18  A    between atoms: C_63  and  C_65
REMARK   19  A    between atoms: C_65  and  C_66
REMARK                            x       y       z     vdW  Elec       q    Type
REMARK                         _______ _______ _______ _____ _____    ______ ____
ROOT
ATOM      1  C   UNL     1       9.003   3.274   3.666  0.00  0.00    +0.164 C 
ATOM      2  CA  UNL     1       9.433   3.600   2.203  0.00  0.00    +0.190 C 
ATOM      3  C   UNL     1       9.731   2.080   2.148  0.00  0.00    +0.240 C 
ATOM      4  O   UNL     1       9.878   1.250   1.280  0.00  0.00    -0.273 OA
ATOM      5  N   UNL     1       9.742   2.028   3.508  0.00  0.00    -0.276 N 
ATOM      6  CA  UNL     1       9.406   0.902   4.404  0.00  0.00    +0.138 C 
ATOM      7  C   UNL     1       7.864   0.985   4.619  0.00  0.00    +0.037 C 
ATOM      8  C   UNL     1       7.148  -0.025   3.704  0.00  0.00    +0.025 C 
ATOM      9  C   UNL     1       7.317   0.722   6.032  0.00  0.00    +0.025 C 
ATOM     10  S   UNL     1       7.296   2.695   4.024  0.00  0.00    -0.127 S 
ENDROOT
BRANCH   2  11
ATOM     11  N   UNL     1       8.479   4.240   1.242  0.00  0.00    -0.301 N 
ATOM     12  H   UNL     1       8.001   3.616   0.603  0.00  0.00    +0.150 HD
ATOM     13  C   UNL     1       8.422   5.537   0.777  0.00  0.00    +0.218 C 
ATOM     14  O   UNL     1       7.682   5.735  -0.199  0.00  0.00    -0.275 OA
BRANCH  13  15
ATOM     15  C   UNL     1       9.116   6.750   1.431  0.00  0.00    +0.130 C 
BRANCH  15  16
ATOM     16  C   UNL     1      10.477   6.494   2.016  0.00  0.00    -0.039 A 
ATOM     17  C   UNL     1      10.599   6.280   3.397  0.00  0.00    +0.004 A 
ATOM     18  C   UNL     1      11.703   5.585   3.889  0.00  0.00    +0.000 A 
ATOM     19  C   UNL     1      12.712   5.172   3.018  0.00  0.00    +0.000 A 
ATOM     20  C   UNL     1      12.671   5.537   1.672  0.00  0.00    +0.000 A 
ATOM     21  C   UNL     1      11.564   6.221   1.170  0.00  0.00    +0.004 A 
ENDBRANCH  15  16
ENDBRANCH  13  15
ENDBRANCH   2  11
BRANCH   6  22
ATOM     22  C   UNL     1      10.405   0.837   5.612  0.00  0.00    +0.064 C 
ATOM     23  OXT UNL     1       9.914   0.879   6.772  0.00  0.00    -0.548 OA
ATOM     24  O   UNL     1      11.625   0.754   5.283  0.00  0.00    -0.548 OA
ENDBRANCH   6  22
TORSDOF 4
REMARK  Name = 
REMARK  19 active torsions:
REMARK  status: ('A' for Active; 'I' for Inactive)
REMARK    1  A    between atoms: N_2  and  C_4
REMARK    2  A    between atoms: N_2  and  C_16
REMARK    3  A    between atoms: C_4  and  C_5
REMARK    4  A    between atoms: C_5  and  N_6
REMARK    5  A    between atoms: N_6  and  C_9
REMARK    6  A    between atoms: C_9  and  C_10
REMARK    7  A    between atoms: C_16  and  C_17
REMARK    8  A    between atoms: C_26  and  C_27
REMARK    9  A    between atoms: C_26  and  C_28
REMARK   10  A    between atoms: CA_29  and  C_46
REMARK   11  A    between atoms: CA_34  and  N_36
REMARK   12  A    between atoms: C_37  and  C_39
REMARK   13  A    between atoms: C_39  and  C_40
REMARK   14  A    between atoms: C_52  and  C_53
REMARK   15  A    between atoms: C_52  and  C_54
REMARK   16  A    between atoms: CA_55  and  C_72
REMARK   17  A    between atoms: CA_60  and  N_62
REMARK   18  A    between atoms: C_63  and  C_65
REMARK   19  A    between atoms: C_65  and  C_66
REMARK                            x       y       z     vdW  Elec       q    Type
REMARK                         _______ _______ _______ _____ _____    ______ ____
ROOT
ATOM      1  C   UNL     1       2.743  -9.248  -0.044  0.00  0.00    +0.164 C 
ATOM      2  CA  UNL     1       2.990  -8.381  -1.318  0.00  0.00    +0.190 C 
ATOM      3  C   UNL     1       2.162  -7.305  -0.507  0.00  0.00    +0.240 C 
ATOM      4  O   UNL     1       1.694  -6.206  -0.736  0.00  0.00    -0.273 OA
ATOM      5  N   UNL     1       2.412  -7.991   0.599  0.00  0.00    -0.276 N 
ATOM      6  CA  UNL     1       2.431  -7.905   2.051  0.00  0.00    +0.138 C 
ATOM      7  C   UNL     1       3.699  -8.708   2.442  0.00  0.00    +0.037 C 
ATOM      8  C   UNL     1       4.970  -7.833   2.427  0.00  0.00    +0.025 C 
ATOM      9  C   UNL     1       3.604  -9.365   3.829  0.00  0.00    +0.025 C 
ATOM     10  S   UNL     1       4.048  -9.924   1.025  0.00  0.00    -0.127 S 
ENDROOT
BRANCH   2  11
ATOM     11  N   UNL     1       4.395  -8.064  -1.803  0.00  0.00    -0.301 N 
ATOM     12  H   UNL     1       4.841  -8.788  -2.360  0.00  0.00    +0.150 HD
ATOM     13  C   UNL     1       5.062  -6.863  -1.940  0.00  0.00    +0.218 C 
ATOM     14  O   UNL     1       6.015  -6.802  -2.719  0.00  0.00    -0.275 OA
BRANCH  13  15
ATOM     15  C   UNL     1       4.533  -5.658  -1.208  0.00  0.00    +0.130 C 
BRANCH  15  16
ATOM     16  C   UNL     1       5.423  -4.600  -0.605  0.00  0.00    -0.039 A 
ATOM     17  C   UNL     1       4.792  -3.740   0.323  0.00  0.00    +0.004 A 
ATOM     18  C   UNL     1       5.522  -2.829   1.080  0.00  0.00    +0.000 A 
ATOM     19  C   UNL     1       6.896  -2.746   0.902  0.00  0.00    +0.000 A 
ATOM     20  C   UNL     1       7.529  -3.554  -0.043  0.00  0.00    +0.000 A 
ATOM     21  C   UNL     1       6.799  -4.476  -0.805  0.00  0.00    +0.004 A 
ENDBRANCH  15  16
ENDBRANCH  13  15
ENDBRANCH   2  11
BRANCH   6  22
ATOM     22  C   UNL     1       1.104  -8.427   2.681  0.00  0.00    +0.064 C 
ATOM     23  OXT UNL     1       0.650  -7.707   3.613  0.00  0.00    -0.548 OA
ATOM     24  O   UNL     1       0.611  -9.465   2.148  0.00  0.00    -0.548 OA
ENDBRANCH   6  22
TORSDOF 4
