REMARK  Name = 
REMARK  18 active torsions:
REMARK  status: ('A' for Active; 'I' for Inactive)
REMARK    1  A    between atoms: C_1  and  N_2
REMARK    2  A    between atoms: C_3  and  N_4
REMARK    3  A    between atoms: C_5  and  N_6
REMARK    4  A    between atoms: N_9  and  C_10
REMARK    5  A    between atoms: C_10  and  C_11
REMARK    6  A    between atoms: C_11  and  N_12
REMARK    7  A    between atoms: N_14  and  C_15
REMARK    8  A    between atoms: C_15  and  C_16
REMARK    9  A    between atoms: CA_17  and  C_45
REMARK   10  A    between atoms: CA_23  and  N_25
REMARK   11  A    between atoms: C_26  and  C_28
REMARK   12  A    between atoms: C_28  and  C_37
REMARK   13  A    between atoms: N_29  and  O_30
REMARK   14  A    between atoms: O_30  and  C_31
REMARK   15  A    between atoms: C_31  and  C_32
REMARK   16  A    between atoms: C_31  and  C_33
REMARK   17  A    between atoms: C_31  and  C_34
REMARK   18  A    between atoms: C_34  and  O_35
REMARK                            x       y       z     vdW  Elec       q    Type
REMARK                         _______ _______ _______ _____ _____    ______ ____
ROOT
ATOM      1  C   UNL     1       1.240   2.532  -0.553  0.00  0.00    +0.030 C 
ATOM      2  C   UNL     1       0.792   3.939  -0.314  0.00  0.00    +0.110 C 
ATOM      3  S   UNL     1      -0.933   4.378  -0.433  0.00  0.00    -0.131 S 
ATOM      4  C   UNL     1      -1.717   2.813  -0.807  0.00  0.00    +0.168 C 
ATOM      5  CA  UNL     1      -2.621   2.208   0.310  0.00  0.00    +0.191 C 
ATOM      6  C   UNL     1      -1.611   1.046   0.300  0.00  0.00    +0.244 C 
ATOM      7  O   UNL     1      -1.412   0.131   1.069  0.00  0.00    -0.273 OA
ATOM      8  N   UNL     1      -0.935   1.589  -0.765  0.00  0.00    -0.253 N 
ATOM      9  CA  UNL     1       0.433   1.507  -0.898  0.00  0.00    +0.066 C 
ENDROOT
BRANCH   5  10
ATOM     10  N   UNL     1      -2.840   2.921   1.625  0.00  0.00    -0.296 N 
ATOM     11  H   UNL     1      -3.794   2.989   1.971  0.00  0.00    +0.150 HD
ATOM     12  C   UNL     1      -1.861   3.284   2.544  0.00  0.00    +0.270 C 
ATOM     13  O   UNL     1      -0.666   3.050   2.426  0.00  0.00    -0.268 OA
BRANCH  12  14
ATOM     14  C   UNL     1      -2.368   3.944   3.815  0.00  0.00    +0.208 C 
ATOM     15  N   UNL     1      -3.607   4.097   4.174  0.00  0.00    -0.075 NA
BRANCH  14  16
ATOM     16  C   UNL     1      -1.546   4.451   4.923  0.00  0.00    +0.197 A 
ATOM     17  N   UNL     1      -2.081   4.249   6.212  0.00  0.00    -0.202 NA
ATOM     18  C   UNL     1      -1.298   4.757   7.116  0.00  0.00    +0.176 A 
ATOM     19  N   UNL     1      -1.401   4.399   8.413  0.00  0.00    -0.336 N 
ATOM     20  H   UNL     1      -1.919   3.522   8.494  0.00  0.00    +0.144 HD
ATOM     21  H   UNL     1      -0.537   4.335   8.937  0.00  0.00    +0.144 HD
ATOM     22  S   UNL     1      -0.064   5.722   6.386  0.00  0.00    +0.049 S 
ATOM     23  N   UNL     1      -0.431   5.190   4.812  0.00  0.00    -0.185 NA
ENDBRANCH  14  16
BRANCH  15  24
ATOM     24  O   UNL     1      -4.682   3.858   3.356  0.00  0.00    -0.376 OA
BRANCH  24  25
ATOM     25  C   UNL     1      -5.833   4.349   4.103  0.00  0.00    +0.228 C 
ATOM     26  C   UNL     1      -7.017   4.288   3.152  0.00  0.00    +0.070 C 
ATOM     27  C   UNL     1      -5.621   5.803   4.585  0.00  0.00    +0.070 C 
BRANCH  25  28
ATOM     28  C   UNL     1      -6.143   3.455   5.326  0.00  0.00    +0.351 C 
ATOM     29  O   UNL     1      -7.042   3.668   6.130  0.00  0.00    -0.246 OA
BRANCH  28  30
ATOM     30  O   UNL     1      -5.336   2.369   5.430  0.00  0.00    -0.478 OA
ATOM     31  H   UNL     1      -4.568   2.495   4.831  0.00  0.00    +0.295 HD
ENDBRANCH  28  30
ENDBRANCH  25  28
ENDBRANCH  24  25
ENDBRANCH  15  24
ENDBRANCH  12  14
ENDBRANCH   5  10
BRANCH   9  32
ATOM     32  C   UNL     1       1.066   0.141  -1.394  0.00  0.00    +0.086 C 
ATOM     33  OXT UNL     1       0.403  -0.891  -1.138  0.00  0.00    -0.543 OA
ATOM     34  O   UNL     1       2.159   0.266  -2.023  0.00  0.00    -0.543 OA
ENDBRANCH   9  32
BRANCH   1  35
ATOM     35  C   UNL     1       2.739   2.358  -0.314  0.00  0.00    +0.420 C 
BRANCH  35  38
ATOM     36  C   UNL     1       5.131   3.267   1.346  0.00  0.00    +0.223 C 
ATOM     37  N   UNL     1       3.951   2.593   1.865  0.00  0.00    -0.138 N 
ATOM     38  N   UNL     1       2.989   2.002   1.103  0.00  0.00    -0.106 N 
ATOM     39  C   UNL     1       2.318   1.051   1.927  0.00  0.00    +0.363 A 
ATOM     40  C   UNL     1       2.791   1.159   3.304  0.00  0.00    +0.145 A 
ATOM     41  C   UNL     1       3.758   2.227   3.214  0.00  0.00    +0.179 A 
BRANCH  40  42
ATOM     42  N   UNL     1       2.338   0.382   4.364  0.00  0.00    -0.262 N 
ATOM     43  H   UNL     1       1.688  -0.361   4.144  0.00  0.00    +0.157 HD
ATOM     44  C   UNL     1       2.635   0.633   5.689  0.00  0.00    +0.304 C 
ATOM     45  N   UNL     1       1.658   0.139   6.529  0.00  0.00    -0.298 N 
ATOM     46  H   UNL     1       0.964  -0.493   6.158  0.00  0.00    +0.150 HD
ATOM     47  O   UNL     1       3.499   1.409   6.082  0.00  0.00    -0.253 OA
BRANCH  45  48
ATOM     48  C   UNL     1       1.241   0.910   7.707  0.00  0.00    +0.120 C 
BRANCH  48  49
ATOM     49  C   UNL     1       1.205   2.415   7.429  0.00  0.00    +0.096 C 
BRANCH  49  50
ATOM     50  N   UNL     1       0.423   2.612   6.216  0.00  0.00    -0.329 NA
ATOM     51  H   UNL     1       0.602   3.543   5.839  0.00  0.00    +0.118 HD
ATOM     52  H   UNL     1       0.724   1.984   5.475  0.00  0.00    +0.118 HD
ENDBRANCH  49  50
ENDBRANCH  48  49
ENDBRANCH  45  48
ENDBRANCH  40  42
BRANCH  41  53
ATOM     53  N   UNL     1       4.384   2.895   4.220  0.00  0.00    -0.339 N 
ATOM     54  H   UNL     1       4.129   2.652   5.198  0.00  0.00    +0.144 HD
ATOM     55  H   UNL     1       4.625   3.876   4.165  0.00  0.00    +0.144 HD
ENDBRANCH  41  53
ENDBRANCH  35  38
ENDBRANCH   1  35
TORSDOF 15
