REMARK  Name = 
REMARK  36 active torsions:
REMARK  status: ('A' for Active; 'I' for Inactive)
REMARK    1  A    between atoms: CG2_1  and  CB_2
REMARK    2  A    between atoms: CB_2  and  OG1_3
REMARK    3  A    between atoms: CB_2  and  CA_4
REMARK    4  A    between atoms: CA_8  and  CB_9
REMARK    5  A    between atoms: CB_9  and  CG_10
REMARK    6  A    between atoms: CA_19  and  CB_113
REMARK    7  A    between atoms: CA_23  and  CB_24
REMARK    8  A    between atoms: CB_24  and  CG_25
REMARK    9  A    between atoms: CG_25  and  CD_26
REMARK   10  A    between atoms: CD_26  and  CE_27
REMARK   11  A    between atoms: CE_27  and  NZ_28
REMARK   12  A    between atoms: CA_32  and  CB_33
REMARK   13  A    between atoms: CB_33  and  CG_34
REMARK   14  A    between atoms: CA_46  and  CB_47
REMARK   15  A    between atoms: CB_47  and  CG_48
REMARK   16  A    between atoms: CA_57  and  CB_58
REMARK   17  A    between atoms: CB_58  and  CG_59
REMARK   18  A    between atoms: CA_68  and  CB_69
REMARK   19  A    between atoms: CB_69  and  CG_70
REMARK   20  A    between atoms: CA_76  and  CB_77
REMARK   21  A    between atoms: CB_77  and  CG_78
REMARK   22  A    between atoms: CG_78  and  CD_79
REMARK   23  A    between atoms: CD_79  and  CE_80
REMARK   24  A    between atoms: CE_80  and  NZ_81
REMARK   25  A    between atoms: CA_85  and  N_103
REMARK   26  A    between atoms: CA_90  and  C_100
REMARK   27  A    between atoms: CA_94  and  CB_95
REMARK   28  A    between atoms: CB_95  and  OG_96
REMARK   29  A    between atoms: C_100  and  O_101
REMARK   30  A    between atoms: C_104  and  CA_106
REMARK   31  A    between atoms: CA_106  and  N_107
REMARK   32  A    between atoms: C_108  and  CA_110
REMARK   33  A    between atoms: CA_110  and  CB_111
REMARK   34  A    between atoms: CA_110  and  N_112
REMARK   35  A    between atoms: CB_113  and  CG2_114
REMARK   36  A    between atoms: CB_113  and  OG1_115
REMARK                            x       y       z     vdW  Elec       q    Type
REMARK                         _______ _______ _______ _____ _____    ______ ____
ROOT
ATOM      1  CA  THR A  12      -0.775   6.647   6.446  0.00  0.00    +0.187 C 
ATOM      2  C   THR A  12      -2.057   8.184   8.135  0.00  0.00    +0.237 C 
ATOM      3  O   THR A  12      -1.681   7.073   8.960  0.00  0.00    -0.274 OA
ATOM      4  N   SER A  13      -2.891   9.816   9.635  0.00  0.00    -0.300 N 
ATOM      5  H   SER A  13      -3.485   9.485  10.447  0.00  0.00    +0.150 HD
ATOM      6  CA  SER A  13      -3.833  11.182  11.352  0.00  0.00    +0.184 C 
ATOM      7  C   SER A  13      -4.133  13.064  12.735  0.00  0.00    +0.236 C 
ATOM      8  O   SER A  13      -5.153  13.896  12.266  0.00  0.00    -0.274 OA
ATOM      9  N   CYS A  14      -4.210  13.988  14.536  0.00  0.00    -0.300 N 
ATOM     10  H   CYS A  14      -4.545  13.766  15.566  0.00  0.00    +0.150 HD
ATOM     11  CA  CYS A  14      -5.108  14.881  16.080  0.00  0.00    +0.192 C 
ATOM     12  CB  CYS A  14      -5.537  13.307  17.056  0.00  0.00    +0.114 C 
ATOM     13  SG  CYS A  14      -7.645  13.295  17.043  0.00  0.00    -0.091 S 
ATOM     14  SG  CYS A   3      -9.051  11.743  17.099  0.00  0.00    -0.091 S 
ATOM     15  CB  CYS A   3     -11.047  12.185  16.783  0.00  0.00    +0.112 C 
ATOM     16  CA  CYS A   3     -11.689  10.805  16.450  0.00  0.00    +0.169 C 
ATOM     17  C   CYS A   3     -11.223  10.338  15.021  0.00  0.00    +0.235 C 
ATOM     18  O   CYS A   3     -12.045  10.084  14.138  0.00  0.00    -0.274 OA
ATOM     19  N   LYS A   4      -9.857  10.229  14.786  0.00  0.00    -0.302 N 
ATOM     20  H   LYS A   4      -9.185  10.481  15.511  0.00  0.00    +0.150 HD
ATOM     21  CA  LYS A   4      -9.232   9.819  13.508  0.00  0.00    +0.159 C 
ATOM     22  C   LYS A   4      -7.638   9.886  13.613  0.00  0.00    +0.234 C 
ATOM     23  O   LYS A   4      -7.084  10.084  14.694  0.00  0.00    -0.274 OA
ATOM     24  N   ASN A   5      -6.845   9.628  12.522  0.00  0.00    -0.302 N 
ATOM     25  H   ASN A   5      -7.338   9.304  11.679  0.00  0.00    +0.150 HD
ATOM     26  CA  ASN A   5      -5.425   9.145  12.609  0.00  0.00    +0.168 C 
ATOM     27  C   ASN A   5      -5.210   8.724  11.133  0.00  0.00    +0.234 C 
ATOM     28  O   ASN A   5      -6.050   8.772  10.237  0.00  0.00    -0.274 OA
ATOM     29  N   PHE A   6      -3.918   8.315  10.957  0.00  0.00    -0.302 N 
ATOM     30  H   PHE A   6      -3.111   8.408  11.551  0.00  0.00    +0.150 HD
ATOM     31  CA  PHE A   6      -3.288   8.014   9.684  0.00  0.00    +0.163 C 
ATOM     32  C   PHE A   6      -1.300   8.679   9.917  0.00  0.00    +0.234 C 
ATOM     33  O   PHE A   6      -0.726   9.036  10.953  0.00  0.00    -0.274 OA
ATOM     34  N   PHE A   7      -0.340   8.757   8.441  0.00  0.00    -0.302 N 
ATOM     35  H   PHE A   7      -0.633   8.580   7.433  0.00  0.00    +0.150 HD
ATOM     36  CA  PHE A   7       0.978   8.294   8.295  0.00  0.00    +0.163 C 
ATOM     37  C   PHE A   7       1.391   7.893   6.809  0.00  0.00    +0.234 C 
ATOM     38  O   PHE A   7       0.638   7.978   5.833  0.00  0.00    -0.274 OA
ATOM     39  N   TRP A   8       2.726   7.804   6.590  0.00  0.00    -0.302 N 
ATOM     40  H   TRP A   8       3.368   7.753   7.350  0.00  0.00    +0.150 HD
ATOM     41  CA  TRP A   8       3.348   7.532   5.319  0.00  0.00    +0.163 C 
ATOM     42  C   TRP A   8       4.830   7.361   5.307  0.00  0.00    +0.234 C 
ATOM     43  O   TRP A   8       5.416   7.520   6.377  0.00  0.00    -0.274 OA
ATOM     44  N   LYS A   9       5.438   6.851   4.150  0.00  0.00    -0.302 N 
ATOM     45  H   LYS A   9       4.967   6.532   3.293  0.00  0.00    +0.150 HD
ATOM     46  CA  LYS A   9       6.868   6.745   4.109  0.00  0.00    +0.159 C 
ATOM     47  C   LYS A   9       7.290   6.418   2.702  0.00  0.00    +0.234 C 
ATOM     48  O   LYS A   9       6.498   6.489   1.750  0.00  0.00    -0.274 OA
ATOM     49  N   THR A  10       8.602   6.147   2.488  0.00  0.00    -0.300 N 
ATOM     50  H   THR A  10       9.349   6.324   3.150  0.00  0.00    +0.150 HD
ATOM     51  CA  THR A  10       8.915   5.613   1.208  0.00  0.00    +0.187 C 
ATOM     52  C   THR A  10       7.809   4.140   1.373  0.00  0.00    +0.236 C 
ATOM     53  O   THR A  10       8.532   3.180   0.969  0.00  0.00    -0.274 OA
ATOM     54  N   PHE A  11       6.047   4.365   1.935  0.00  0.00    -0.302 N 
ATOM     55  H   PHE A  11       6.023   5.040   1.147  0.00  0.00    +0.150 HD
ATOM     56  CA  PHE A  11       4.153   3.844   2.445  0.00  0.00    +0.163 C 
ATOM     57  C   PHE A  11       2.169   4.689   3.598  0.00  0.00    +0.234 C 
ATOM     58  O   PHE A  11       2.040   5.295   2.482  0.00  0.00    -0.274 OA
ATOM     59  N   THR A  12       0.872   5.605   5.081  0.00  0.00    -0.300 N 
ATOM     60  H   THR A  12       0.776   4.566   5.010  0.00  0.00    +0.150 HD
ENDROOT
BRANCH  16  61
ATOM     61  N   CYS A   3     -13.179  10.811  16.568  0.00  0.00    -0.302 N 
ATOM     62  H   CYS A   3     -13.701  11.617  16.238  0.00  0.00    +0.150 HD
ATOM     63  C   GLY A   2     -13.876   9.666  16.931  0.00  0.00    +0.231 C 
ATOM     64  O   GLY A   2     -13.300   8.638  17.292  0.00  0.00    -0.274 OA
BRANCH  63  65
ATOM     65  CA  GLY A   2     -15.417   9.754  16.983  0.00  0.00    +0.200 C 
BRANCH  65  66
ATOM     66  N   GLY A   2     -15.918  10.202  18.277  0.00  0.00    -0.305 N 
ATOM     67  H   GLY A   2     -16.108   9.524  19.012  0.00  0.00    +0.149 HD
ATOM     68  C   ALA A   1     -16.157  11.536  18.520  0.00  0.00    +0.230 C 
ATOM     69  O   ALA A   1     -15.922  12.389  17.663  0.00  0.00    -0.274 OA
BRANCH  68  70
ATOM     70  CA  ALA A   1     -16.680  11.914  19.933  0.00  0.00    +0.135 C 
ATOM     71  CB  ALA A   1     -17.524  13.187  19.850  0.00  0.00    +0.033 C 
BRANCH  70  72
ATOM     72  N   ALA A   1     -17.476  10.816  20.521  0.00  0.00    -0.320 NA
ATOM     73  H1  ALA A   1     -17.840  11.129  21.424  0.00  0.00    +0.119 HD
ATOM     74  H2  ALA A   1     -18.301  10.677  19.936  0.00  0.00    +0.119 HD
ENDBRANCH  70  72
ENDBRANCH  68  70
ENDBRANCH  65  66
ENDBRANCH  63  65
ENDBRANCH  16  61
BRANCH  11  75
ATOM     75  C   CYS A  14      -4.209  15.619  17.385  0.00  0.00    +0.326 C 
ATOM     76  OXT CYS A  14      -4.539  15.816  18.555  0.00  0.00    -0.249 OA
BRANCH  75  77
ATOM     77  O   CYS A  14      -2.995  15.977  16.919  0.00  0.00    -0.479 OA
ATOM     78  H   CYS A  14      -2.899  15.714  15.982  0.00  0.00    +0.295 HD
ENDBRANCH  75  77
ENDBRANCH  11  75
BRANCH   1  80
ATOM     79  CG2 THR A  12      -0.230   3.898   3.326  0.00  0.00    +0.040 C 
ATOM     80  CB  THR A  12      -0.830   4.814   5.144  0.00  0.00    +0.141 C 
BRANCH  80  81
ATOM     81  OG1 THR A  12       0.250   3.277   5.234  0.00  0.00    -0.390 OA
ATOM     82  HG1 THR A  12       0.169   2.443   4.515  0.00  0.00    +0.210 HD
ENDBRANCH  80  81
ENDBRANCH   1  80
BRANCH  51  83
ATOM     83  CB  THR A  10      10.603   5.639   1.103  0.00  0.00    +0.141 C 
ATOM     84  CG2 THR A  10      11.230   5.230  -0.236  0.00  0.00    +0.040 C 
BRANCH  83  85
ATOM     85  OG1 THR A  10      11.132   6.985   1.378  0.00  0.00    -0.390 OA
ATOM     86  HG1 THR A  10      10.906   7.591   0.647  0.00  0.00    +0.210 HD
ENDBRANCH  83  85
ENDBRANCH  51  83
BRANCH  56  87
ATOM     87  CB  PHE A  11       5.051   2.810   0.729  0.00  0.00    +0.067 C 
BRANCH  87  88
ATOM     88  CG  PHE A  11       6.021   1.343  -0.475  0.00  0.00    -0.045 A 
ATOM     89  CD2 PHE A  11       7.179   0.202  -0.327  0.00  0.00    +0.004 A 
ATOM     90  CE2 PHE A  11       8.085  -0.737  -1.411  0.00  0.00    +0.000 A 
ATOM     91  CZ  PHE A  11       7.934  -0.760  -2.795  0.00  0.00    +0.000 A 
ATOM     92  CE1 PHE A  11       7.037   0.226  -3.173  0.00  0.00    +0.000 A 
ATOM     93  CD1 PHE A  11       6.227   1.250  -2.108  0.00  0.00    +0.004 A 
ENDBRANCH  87  88
ENDBRANCH  56  87
BRANCH   6  94
ATOM     94  CB  SER A  13      -5.287  11.944  13.085  0.00  0.00    +0.187 C 
BRANCH  94  95
ATOM     95  OG  SER A  13      -6.608  13.012  14.061  0.00  0.00    -0.393 OA
ATOM     96  H   SER A  13      -6.632  13.585  15.127  0.00  0.00    +0.209 HD
ENDBRANCH  94  95
ENDBRANCH   6  94
BRANCH  36  97
ATOM     97  CB  PHE A   7       1.517   9.655   8.535  0.00  0.00    +0.067 C 
BRANCH  97  98
ATOM     98  CG  PHE A   7       0.885  10.660   7.509  0.00  0.00    -0.045 A 
ATOM     99  CD2 PHE A   7       1.044  10.479   6.129  0.00  0.00    +0.004 A 
ATOM    100  CE2 PHE A   7       0.250  11.096   5.184  0.00  0.00    +0.000 A 
ATOM    101  CZ  PHE A   7      -0.783  11.900   5.611  0.00  0.00    +0.000 A 
ATOM    102  CE1 PHE A   7      -0.963  12.135   6.973  0.00  0.00    +0.000 A 
ATOM    103  CD1 PHE A   7      -0.109  11.553   7.916  0.00  0.00    +0.004 A 
ENDBRANCH  97  98
ENDBRANCH  36  97
BRANCH  46 104
ATOM    104  CB  LYS A   9       7.401   8.131   4.349  0.00  0.00    +0.032 C 
BRANCH 104 105
ATOM    105  CG  LYS A   9       6.826   9.092   3.301  0.00  0.00    +0.003 C 
BRANCH 105 106
ATOM    106  CD  LYS A   9       7.328  10.484   3.560  0.00  0.00    +0.015 C 
BRANCH 106 107
ATOM    107  CE  LYS A   9       6.790  11.418   2.493  0.00  0.00    +0.077 C 
BRANCH 107 108
ATOM    108  NZ  LYS A   9       7.275  12.759   2.759  0.00  0.00    -0.330 NA
ATOM    109  HZ1 LYS A   9       6.896  13.398   2.064  0.00  0.00    +0.118 HD
ATOM    110  HZ2 LYS A   9       6.929  13.071   3.666  0.00  0.00    +0.118 HD
ENDBRANCH 107 108
ENDBRANCH 106 107
ENDBRANCH 105 106
ENDBRANCH 104 105
ENDBRANCH  46 104
BRANCH  41 111
ATOM    111  CB  TRP A   8       3.147   6.132   5.085  0.00  0.00    +0.069 C 
BRANCH 111 112
ATOM    112  CG  TRP A   8       3.504   5.077   6.117  0.00  0.00    -0.020 A 
ATOM    113  CD2 TRP A   8       4.417   3.996   5.854  0.00  0.00    +0.003 A 
ATOM    114  CE2 TRP A   8       5.039   3.664   7.026  0.00  0.00    +0.047 A 
ATOM    115  CZ2 TRP A   8       6.164   2.813   7.020  0.00  0.00    +0.026 A 
ATOM    116  CH2 TRP A   8       6.625   2.201   5.834  0.00  0.00    +0.002 A 
ATOM    117  CZ3 TRP A   8       6.111   2.564   4.636  0.00  0.00    +0.001 A 
ATOM    118  NE1 TRP A   8       4.271   4.218   8.018  0.00  0.00    -0.360 N 
ATOM    119  HE1 TRP A   8       4.368   3.974   8.990  0.00  0.00    +0.165 HD
ATOM    120  CE3 TRP A   8       5.096   3.504   4.738  0.00  0.00    +0.010 A 
ATOM    121  CD1 TRP A   8       3.325   5.071   7.490  0.00  0.00    +0.087 A 
ENDBRANCH 111 112
ENDBRANCH  41 111
BRANCH  31 122
ATOM    122  CB  PHE A   6      -3.931   6.793   9.075  0.00  0.00    +0.067 C 
BRANCH 122 123
ATOM    123  CG  PHE A   6      -3.557   5.734  10.051  0.00  0.00    -0.045 A 
ATOM    124  CD2 PHE A   6      -2.793   4.697   9.565  0.00  0.00    +0.004 A 
ATOM    125  CE2 PHE A   6      -2.328   3.748  10.449  0.00  0.00    +0.000 A 
ATOM    126  CZ  PHE A   6      -2.457   3.929  11.827  0.00  0.00    +0.000 A 
ATOM    127  CE1 PHE A   6      -3.192   4.975  12.334  0.00  0.00    +0.000 A 
ATOM    128  CD1 PHE A   6      -3.799   5.815  11.438  0.00  0.00    +0.004 A 
ENDBRANCH 122 123
ENDBRANCH  31 122
BRANCH  26 129
ATOM    129  CB  ASN A   5      -4.061   9.779  13.517  0.00  0.00    +0.127 C 
BRANCH 129 130
ATOM    130  CG  ASN A   5      -3.583  10.492  14.738  0.00  0.00    +0.213 C 
ATOM    131  OD1 ASN A   5      -3.581  11.640  15.112  0.00  0.00    -0.276 OA
ATOM    132  ND2 ASN A   5      -2.577   9.659  15.130  0.00  0.00    -0.329 N 
ATOM    133 HD21 ASN A   5      -2.464   9.542  16.111  0.00  0.00    +0.145 HD
ATOM    134 HD22 ASN A   5      -2.211   9.046  14.402  0.00  0.00    +0.145 HD
ENDBRANCH 129 130
ENDBRANCH  26 129
BRANCH  21 135
ATOM    135  CB  LYS A   4      -9.719   8.406  13.188  0.00  0.00    +0.032 C 
BRANCH 135 136
ATOM    136  CG  LYS A   4      -9.280   7.426  14.273  0.00  0.00    +0.003 C 
BRANCH 136 137
ATOM    137  CD  LYS A   4      -9.776   6.028  13.967  0.00  0.00    +0.015 C 
BRANCH 137 138
ATOM    138  CE  LYS A   4      -9.282   5.068  15.036  0.00  0.00    +0.077 C 
BRANCH 138 139
ATOM    139  NZ  LYS A   4      -9.760   3.729  14.734  0.00  0.00    -0.330 NA
ATOM    140  HZ1 LYS A   4      -9.459   3.092  15.469  0.00  0.00    +0.118 HD
ATOM    141  HZ2 LYS A   4     -10.780   3.729  14.752  0.00  0.00    +0.118 HD
ENDBRANCH 138 139
ENDBRANCH 137 138
ENDBRANCH 136 137
ENDBRANCH 135 136
ENDBRANCH  21 135
TORSDOF 33
