REMARK  Name = 
REMARK  10 active torsions:
REMARK  status: ('A' for Active; 'I' for Inactive)
REMARK    1  A    between atoms: C_2  and  O_7
REMARK    2  A    between atoms: O_7  and  C_8
REMARK    3  A    between atoms: C_11  and  C_12
REMARK    4  A    between atoms: C_12  and  C_13
REMARK    5  A    between atoms: C_18  and  C_20
REMARK    6  A    between atoms: C_23  and  C_25
REMARK    7  A    between atoms: C_25  and  O_26
REMARK    8  A    between atoms: C_27  and  O_29
REMARK    9  A    between atoms: C_30  and  O_32
REMARK   10  A    between atoms: C_33  and  O_35
REMARK                            x       y       z     vdW  Elec       q    Type
REMARK                         _______ _______ _______ _____ _____    ______ ____
ROOT
ATOM      1  C   UNL     1      -7.708  -2.294   2.888  0.00  0.00    -0.024 A 
ATOM      2  C   UNL     1      -6.769  -2.354   1.839  0.00  0.00    +0.011 A 
ATOM      3  C   UNL     1      -6.607  -1.298   0.928  0.00  0.00    -0.016 A 
ATOM      4  C   UNL     1      -7.281  -0.098   1.179  0.00  0.00    +0.008 A 
ATOM      5  C   UNL     1      -8.163   0.007   2.258  0.00  0.00    +0.020 A 
ATOM      6  C   UNL     1      -8.403  -1.093   3.085  0.00  0.00    +0.044 A 
ATOM      7 CL   UNL     1      -9.612  -0.914   4.306  0.00  0.00    -0.083 Cl
ENDROOT
BRANCH   3   8
ATOM      8  C   UNL     1      -5.900  -1.513  -0.405  0.00  0.00    +0.180 C 
ATOM      9  C   UNL     1      -4.578  -0.745  -0.621  0.00  0.00    +0.179 C 
ATOM     10  C   UNL     1      -4.016  -1.122  -2.013  0.00  0.00    +0.177 C 
ATOM     11  C   UNL     1      -3.934  -2.643  -2.208  0.00  0.00    +0.176 C 
ATOM     12  C   UNL     1      -5.295  -3.273  -1.914  0.00  0.00    +0.175 C 
ATOM     13  O   UNL     1      -5.705  -2.928  -0.587  0.00  0.00    -0.361 OA
BRANCH   9  14
ATOM     14  O   UNL     1      -4.787   0.674  -0.540  0.00  0.00    -0.386 OA
ATOM     15  H   UNL     1      -5.044   1.007  -1.415  0.00  0.00    +0.210 HD
ENDBRANCH   9  14
BRANCH  10  16
ATOM     16  O   UNL     1      -2.723  -0.544  -2.220  0.00  0.00    -0.386 OA
ATOM     17  H   UNL     1      -2.307  -1.046  -2.949  0.00  0.00    +0.210 HD
ENDBRANCH  10  16
BRANCH  11  18
ATOM     18  O   UNL     1      -3.484  -2.916  -3.540  0.00  0.00    -0.386 OA
ATOM     19  H   UNL     1      -4.199  -2.703  -4.167  0.00  0.00    +0.210 HD
ENDBRANCH  11  18
BRANCH  12  20
ATOM     20  C   UNL     1      -5.256  -4.802  -2.002  0.00  0.00    +0.190 C 
BRANCH  20  21
ATOM     21  O   UNL     1      -6.562  -5.330  -1.758  0.00  0.00    -0.392 OA
ATOM     22  H   UNL     1      -6.875  -4.908  -0.934  0.00  0.00    +0.210 HD
ENDBRANCH  20  21
ENDBRANCH  12  20
ENDBRANCH   3   8
BRANCH   1  23
ATOM     23  C   UNL     1      -8.005  -3.580   3.640  0.00  0.00    +0.071 C 
BRANCH  23  27
ATOM     24  C   UNL     1     -10.485  -6.153   1.180  0.00  0.00    +0.121 A 
ATOM     25  C   UNL     1     -11.059  -5.206   2.030  0.00  0.00    +0.046 A 
ATOM     26  C   UNL     1     -10.264  -4.402   2.848  0.00  0.00    +0.007 A 
ATOM     27  C   UNL     1      -8.869  -4.532   2.831  0.00  0.00    -0.043 A 
ATOM     28  C   UNL     1      -8.301  -5.500   1.987  0.00  0.00    +0.007 A 
ATOM     29  C   UNL     1      -9.100  -6.309   1.166  0.00  0.00    +0.046 A 
BRANCH  24  30
ATOM     30  O   UNL     1     -11.371  -6.803   0.372  0.00  0.00    -0.486 OA
BRANCH  30  31
ATOM     31  C   UNL     1     -11.059  -8.118  -0.072  0.00  0.00    +0.201 C 
ATOM     32  C   UNL     1     -10.416  -8.168  -1.452  0.00  0.00    +0.204 C 
ATOM     33  O   UNL     1     -10.985  -9.281  -2.168  0.00  0.00    -0.376 OA
ATOM     34  C   UNL     1     -11.984  -9.883  -1.339  0.00  0.00    +0.163 C 
ATOM     35  C   UNL     1     -12.371  -8.841  -0.323  0.00  0.00    +0.075 C 
ENDBRANCH  30  31
ENDBRANCH  24  30
ENDBRANCH  23  27
ENDBRANCH   1  23
TORSDOF 10
