REMARK  Name = 
REMARK  9 active torsions:
REMARK  status: ('A' for Active; 'I' for Inactive)
REMARK    1  A    between atoms: N_2  and  C_3
REMARK    2  A    between atoms: N_2  and  C_4
REMARK    3  A    between atoms: C_8  and  C_9
REMARK    4  A    between atoms: N_11  and  C_13
REMARK    5  A    between atoms: N_16  and  C_17
REMARK    6  A    between atoms: N_20  and  C_21
REMARK    7  A    between atoms: C_21  and  C_22
REMARK    8  A    between atoms: C_24  and  O_25
REMARK    9  A    between atoms: O_25  and  C_26
REMARK                            x       y       z     vdW  Elec       q    Type
REMARK                         _______ _______ _______ _____ _____    ______ ____
ROOT
ATOM      1  C   UNL     1       6.780  -1.721  -6.790  0.00  0.00    +0.248 C 
ATOM      2  N   UNL     1       6.424  -3.031  -7.044  0.00  0.00    -0.306 N 
ATOM      3  H   UNL     1       7.086  -3.642  -7.494  0.00  0.00    +0.149 HD
ATOM      4  O   UNL     1       5.996  -0.871  -6.392  0.00  0.00    -0.270 OA
ENDROOT
BRANCH   2   5
ATOM      5  C   UNL     1       5.141  -3.612  -6.645  0.00  0.00    +0.101 C 
ATOM      6  C   UNL     1       3.944  -3.289  -7.567  0.00  0.00    +0.108 C 
ATOM      7  N   UNL     1       3.972  -3.708  -8.969  0.00  0.00    -0.300 NA
ATOM      8  C   UNL     1       3.780  -5.129  -9.242  0.00  0.00    +0.100 C 
ATOM      9  C   UNL     1       4.109  -6.199  -8.173  0.00  0.00    +0.099 C 
ATOM     10  N   UNL     1       5.364  -6.092  -7.426  0.00  0.00    -0.302 NA
ATOM     11  C   UNL     1       6.549  -6.068  -8.263  0.00  0.00    +0.105 C 
ATOM     12  C   UNL     1       5.299  -5.117  -6.337  0.00  0.00    +0.107 C 
BRANCH   7  13
ATOM     13  C   UNL     1       4.962  -3.001  -9.776  0.00  0.00    +0.081 C 
ATOM     14  C   UNL     1       4.685  -3.061 -11.275  0.00  0.00    +0.020 C 
ENDBRANCH   7  13
ENDBRANCH   2   5
BRANCH   1  18
ATOM     15  C   UNL     1      11.049  -1.023  -7.110  0.00  0.00    +0.045 A 
ATOM     16  C   UNL     1      10.130  -0.063  -7.566  0.00  0.00    +0.070 A 
ATOM     17  C   UNL     1       8.738  -0.251  -7.494  0.00  0.00    +0.134 A 
ATOM     18  C   UNL     1       8.244  -1.444  -6.943  0.00  0.00    +0.079 A 
ATOM     19  C   UNL     1       9.144  -2.414  -6.475  0.00  0.00    +0.033 A 
ATOM     20  C   UNL     1      10.520  -2.215  -6.587  0.00  0.00    +0.040 A 
ATOM     21 BR   UNL     1      11.662  -3.612  -5.979  0.00  0.00    -0.048 Br
BRANCH  15  23
ATOM     22  H   UNL     1      12.947  -1.561  -6.741  0.00  0.00    +0.146 HD
ATOM     23  N   UNL     1      12.434  -0.879  -7.302  0.00  0.00    -0.346 N 
ATOM     24  C   UNL     1      13.030   0.444  -7.235  0.00  0.00    +0.125 C 
ENDBRANCH  15  23
BRANCH  17  25
ATOM     25  O   UNL     1       7.826   0.648  -7.984  0.00  0.00    -0.494 OA
ATOM     26  C   UNL     1       8.322   1.883  -8.486  0.00  0.00    +0.277 C 
ENDBRANCH  17  25
ENDBRANCH   1  18
TORSDOF 5
