REMARK  Name = 
REMARK  12 active torsions:
REMARK  status: ('A' for Active; 'I' for Inactive)
REMARK    1  A    between atoms: C_1  and  O_2
REMARK    2  A    between atoms: O_2  and  C_3
REMARK    3  A    between atoms: C_6  and  O_7
REMARK    4  A    between atoms: O_7  and  C_8
REMARK    5  A    between atoms: C_12  and  N_14
REMARK    6  A    between atoms: N_14  and  C_15
REMARK    7  A    between atoms: N_14  and  C_16
REMARK    8  A    between atoms: C_16  and  C_17
REMARK    9  A    between atoms: C_17  and  O_18
REMARK   10  A    between atoms: O_18  and  C_19
REMARK   11  A    between atoms: C_22  and  C_23
REMARK   12  A    between atoms: C_23  and  C_24
REMARK                            x       y       z     vdW  Elec       q    Type
REMARK                         _______ _______ _______ _____ _____    ______ ____
ROOT
ATOM      1  C   UNL     1       0.174  -6.460  -0.797  0.00  0.00    +0.147 C 
ENDROOT
BRANCH   1   2
ATOM      2  N   UNL     1       1.021  -7.536  -1.360  0.00  0.00    -0.315 N 
ATOM      3  C   UNL     1       0.717  -8.933  -1.076  0.00  0.00    +0.131 C 
BRANCH   2   6
ATOM      4  C   UNL     1       4.302  -7.499  -2.974  0.00  0.00    +0.225 A 
ATOM      5  C   UNL     1       3.058  -7.968  -2.597  0.00  0.00    +0.111 A 
ATOM      6  C   UNL     1       2.315  -7.179  -1.734  0.00  0.00    +0.128 A 
ATOM      7  N   UNL     1       2.822  -6.013  -1.289  0.00  0.00    -0.221 NA
ATOM      8  C   UNL     1       4.067  -5.683  -1.669  0.00  0.00    +0.227 A 
ATOM      9  N   UNL     1       4.852  -6.379  -2.492  0.00  0.00    -0.201 NA
BRANCH   4  10
ATOM     10  O   UNL     1       5.011  -8.273  -3.885  0.00  0.00    -0.438 OA
BRANCH  10  14
ATOM     11  C   UNL     1       7.392  -6.553  -6.866  0.00  0.00    +0.120 A 
ATOM     12  C   UNL     1       6.313  -5.827  -6.363  0.00  0.00    +0.049 A 
ATOM     13  C   UNL     1       5.500  -6.376  -5.366  0.00  0.00    +0.050 A 
ATOM     14  C   UNL     1       5.784  -7.635  -4.829  0.00  0.00    +0.131 A 
ATOM     15  C   UNL     1       6.876  -8.355  -5.326  0.00  0.00    +0.050 A 
ATOM     16  C   UNL     1       7.684  -7.809  -6.330  0.00  0.00    +0.049 A 
BRANCH  11  18
ATOM     17  C   UNL     1       7.604  -5.309  -8.850  0.00  0.00    +0.277 C 
ATOM     18  O   UNL     1       8.233  -6.106  -7.849  0.00  0.00    -0.495 OA
ENDBRANCH  11  18
ENDBRANCH  10  14
ENDBRANCH   4  10
ENDBRANCH   2   6
ENDBRANCH   1   2
BRANCH   1  19
ATOM     19  C   UNL     1      -1.217  -6.935  -0.342  0.00  0.00    +0.248 C 
BRANCH  19  20
ATOM     20  O   UNL     1      -2.029  -5.836   0.089  0.00  0.00    -0.490 OA
BRANCH  20  21
ATOM     21  C   UNL     1      -3.315  -6.150   0.458  0.00  0.00    +0.121 A 
ATOM     22  C   UNL     1      -4.127  -5.064   0.785  0.00  0.00    +0.046 A 
ATOM     23  C   UNL     1      -5.477  -5.250   1.110  0.00  0.00    +0.007 A 
ATOM     24  C   UNL     1      -6.043  -6.532   1.115  0.00  0.00    -0.046 A 
ATOM     25  C   UNL     1      -5.213  -7.622   0.828  0.00  0.00    +0.007 A 
ATOM     26  C   UNL     1      -3.862  -7.433   0.510  0.00  0.00    +0.046 A 
BRANCH  24  27
ATOM     27  C   UNL     1      -7.537  -6.706   1.293  0.00  0.00    +0.059 C 
BRANCH  27  28
ATOM     28  C   UNL     1      -7.990  -7.748   2.318  0.00  0.00    +0.146 C 
ATOM     29  C   UNL     1      -9.492  -7.952   2.245  0.00  0.00    +0.234 C 
ATOM     30  O   UNL     1     -10.122  -8.161   1.219  0.00  0.00    -0.274 OA
ATOM     31  N   UNL     1     -10.070  -7.930   3.479  0.00  0.00    -0.246 N 
ATOM     32  H   UNL     1     -11.055  -8.122   3.594  0.00  0.00    +0.158 HD
ATOM     33  C   UNL     1      -9.293  -7.677   4.554  0.00  0.00    +0.279 C 
ATOM     34  O   UNL     1      -9.657  -7.719   5.718  0.00  0.00    -0.263 OA
ATOM     35  S   UNL     1      -7.671  -7.276   4.051  0.00  0.00    -0.054 S 
ENDBRANCH  27  28
ENDBRANCH  24  27
ENDBRANCH  20  21
ENDBRANCH  19  20
ENDBRANCH   1  19
TORSDOF 10
