REMARK  Name = 
REMARK  5 active torsions:
REMARK  status: ('A' for Active; 'I' for Inactive)
REMARK    1  A    between atoms: C_1  and  N_2
REMARK    2  A    between atoms: N_2  and  C_3
REMARK    3  A    between atoms: N_2  and  C_13
REMARK    4  A    between atoms: C_3  and  C_4
REMARK    5  A    between atoms: C_11  and  N_12
REMARK                            x       y       z     vdW  Elec       q    Type
REMARK                         _______ _______ _______ _____ _____    ______ ____
ROOT
ATOM      1  C   UNL     1       2.300   2.217  -1.285  0.00  0.00    -0.011 A 
ATOM      2  C   UNL     1       2.255   3.630  -1.225  0.00  0.00    +0.043 A 
ATOM      3  C   UNL     1       1.842   4.340  -2.377  0.00  0.00    +0.040 A 
ATOM      4 BR   UNL     1       1.791   6.244  -2.377  0.00  0.00    -0.048 Br
ATOM      5  C   UNL     1       1.436   3.685  -3.539  0.00  0.00    +0.032 A 
ATOM      6  C   UNL     1       1.500   2.300  -3.592  0.00  0.00    +0.019 A 
ATOM      7 BR   UNL     1       0.968   1.395  -5.163  0.00  0.00    -0.050 Br
ATOM      8  C   UNL     1       1.950   1.573  -2.491  0.00  0.00    +0.022 A 
ENDROOT
BRANCH   2   9
ATOM      9  N   UNL     1       2.820   4.330  -0.140  0.00  0.00    -0.357 N 
ATOM     10  H   UNL     1       2.734   3.894   0.769  0.00  0.00    +0.142 HD
ATOM     11  H   UNL     1       2.544   5.308  -0.120  0.00  0.00    +0.142 HD
ENDBRANCH   2   9
BRANCH   1  12
ATOM     12  C   UNL     1       2.799   1.385  -0.108  0.00  0.00    +0.121 C 
BRANCH  12  14
ATOM     13  C   UNL     1       0.789   0.057   0.184  0.00  0.00    +0.105 C 
ATOM     14  N   UNL     1       2.252   0.008   0.007  0.00  0.00    -0.298 NA
BRANCH  14  15
ATOM     15  C   UNL     1       2.886  -0.741   1.137  0.00  0.00    +0.057 C 
ATOM     16  C   UNL     1       4.431  -0.817   1.061  0.00  0.00    +0.019 C 
ATOM     17  C   UNL     1       4.911  -1.609  -0.155  0.00  0.00    +0.002 C 
ATOM     18  C   UNL     1       4.338  -3.025  -0.155  0.00  0.00    +0.000 C 
ATOM     19  C   UNL     1       2.821  -3.037   0.020  0.00  0.00    +0.002 C 
ATOM     20  C   UNL     1       2.392  -2.208   1.233  0.00  0.00    +0.019 C 
ENDBRANCH  14  15
ENDBRANCH  12  14
ENDBRANCH   1  12
TORSDOF 4
