REMARK  Name = 
REMARK  6 active torsions:
REMARK  status: ('A' for Active; 'I' for Inactive)
REMARK    1  A    between atoms: C_5  and  O_6
REMARK    2  A    between atoms: O_6  and  C_7
REMARK    3  A    between atoms: C_7  and  C_8
REMARK    4  A    between atoms: C_8  and  N_9
REMARK    5  A    between atoms: N_22  and  C_23
REMARK    6  A    between atoms: C_31  and  O_33
REMARK                            x       y       z     vdW  Elec       q    Type
REMARK                         _______ _______ _______ _____ _____    ______ ____
ROOT
ATOM      1  C   UNL     1      -0.029   0.156  -1.312  0.00  0.00    +0.217 C 
ATOM      2  C   UNL     1      -1.555  -0.045  -1.182  0.00  0.00    +0.178 C 
ATOM      3  C   UNL     1      -2.337   0.937  -0.361  0.00  0.00    +0.004 C 
ATOM      4  C   UNL     1      -1.958   2.206  -0.160  0.00  0.00    -0.023 C 
ATOM      5  C   UNL     1      -0.498   2.495  -0.169  0.00  0.00    +0.043 C 
ATOM      6  C   UNL     1       0.147   3.884  -0.166  0.00  0.00    +0.068 C 
ATOM      7  C   UNL     1       1.527   3.695   0.688  0.00  0.00    +0.055 C 
ATOM      8  C   UNL     1       1.945   2.245   0.953  0.00  0.00    -0.038 A 
ATOM      9  C   UNL     1       1.423   1.243   0.123  0.00  0.00    +0.012 A 
ATOM     10  C   UNL     1       1.509  -0.122   0.329  0.00  0.00    +0.167 A 
ATOM     11  C   UNL     1       2.236  -0.611   1.384  0.00  0.00    +0.162 A 
ATOM     12  C   UNL     1       2.831   0.357   2.241  0.00  0.00    +0.050 A 
ATOM     13  C   UNL     1       2.681   1.760   2.039  0.00  0.00    +0.008 A 
ATOM     14  N   UNL     1       0.303   4.451  -1.535  0.00  0.00    -0.301 NA
ATOM     15  C   UNL     1      -0.932   5.102  -2.009  0.00  0.00    +0.105 C 
ATOM     16  C   UNL     1       0.699   3.490  -2.582  0.00  0.00    +0.085 C 
ATOM     17  C   UNL     1       1.354   2.243  -2.042  0.00  0.00    +0.031 C 
ATOM     18  C   UNL     1       0.466   1.573  -0.962  0.00  0.00    +0.048 C 
ATOM     19  O   UNL     1       0.701  -0.825  -0.526  0.00  0.00    -0.481 OA
ENDROOT
BRANCH   2  20
ATOM     20  O   UNL     1      -1.865  -1.364  -0.750  0.00  0.00    -0.384 OA
ATOM     21  H   UNL     1      -1.006  -1.796  -0.570  0.00  0.00    +0.210 HD
ENDBRANCH   2  20
BRANCH  11  22
ATOM     22  O   UNL     1       2.299  -1.976   1.526  0.00  0.00    -0.487 OA
BRANCH  22  23
ATOM     23  C   UNL     1       2.931  -2.430   2.721  0.00  0.00    +0.244 C 
BRANCH  23  24
ATOM     24  C   UNL     1       2.924  -3.969   2.833  0.00  0.00    +0.125 C 
BRANCH  24  25
ATOM     25  N   UNL     1       3.653  -4.442   4.034  0.00  0.00    -0.295 NA
ATOM     26  C   UNL     1       3.747  -5.920   4.094  0.00  0.00    +0.112 C 
ATOM     27  C   UNL     1       2.444  -6.626   4.517  0.00  0.00    +0.175 C 
ATOM     28  O   UNL     1       1.911  -6.095   5.738  0.00  0.00    -0.377 OA
ATOM     29  C   UNL     1       1.728  -4.678   5.641  0.00  0.00    +0.175 C 
ATOM     30  C   UNL     1       3.057  -3.986   5.310  0.00  0.00    +0.112 C 
ENDBRANCH  24  25
ENDBRANCH  23  24
ENDBRANCH  22  23
ENDBRANCH  11  22
TORSDOF 5
