REMARK  Name = 
REMARK  15 active torsions:
REMARK  status: ('A' for Active; 'I' for Inactive)
REMARK    1  A    between atoms: C_1  and  C_2
REMARK    2  A    between atoms: C_2  and  C_3
REMARK    3  A    between atoms: C_2  and  O_4
REMARK    4  A    between atoms: O_4  and  C_5
REMARK    5  A    between atoms: C_5  and  C_7
REMARK    6  A    between atoms: C_8  and  C_9
REMARK    7  A    between atoms: C_11  and  N_12
REMARK    8  A    between atoms: C_13  and  C_24
REMARK    9  A    between atoms: C_14  and  C_15
REMARK   10  A    between atoms: C_19  and  N_21
REMARK   11  A    between atoms: C_24  and  O_26
REMARK   12  A    between atoms: O_26  and  C_27
REMARK   13  A    between atoms: N_29  and  C_31
REMARK   14  A    between atoms: C_31  and  C_32
REMARK   15  A    between atoms: C_31  and  C_38
REMARK                            x       y       z     vdW  Elec       q    Type
REMARK                         _______ _______ _______ _____ _____    ______ ____
ROOT
ATOM      1  C   UNL     1       4.635  -2.795  -0.634  0.00  0.00    +0.088 C 
ATOM      2  C   UNL     1       4.110  -3.998   0.174  0.00  0.00    +0.104 C 
ATOM      3  C   UNL     1       4.600  -5.353  -0.366  0.00  0.00    +0.132 C 
ATOM      4  C   UNL     1       5.474  -5.428  -1.401  0.00  0.00    +0.269 C 
ATOM      5  N   UNL     1       5.849  -4.274  -2.032  0.00  0.00    -0.209 N 
ATOM      6  H   UNL     1       6.668  -4.366  -2.626  0.00  0.00    +0.298 HD
ATOM      7  C   UNL     1       5.474  -2.992  -1.683  0.00  0.00    +0.103 C 
ATOM      8  C   UNL     1       6.107  -1.929  -2.554  0.00  0.00    +0.090 C 
ENDROOT
BRANCH   2   9
ATOM      9  C   UNL     1       2.593  -3.970   0.385  0.00  0.00    -0.028 A 
ATOM     10  C   UNL     1       2.081  -3.573   1.641  0.00  0.00    +0.088 A 
ATOM     11  C   UNL     1       0.698  -3.476   1.844  0.00  0.00    +0.273 A 
ATOM     12  C   UNL     1      -0.194  -3.823   0.826  0.00  0.00    +0.084 A 
ATOM     13  C   UNL     1       0.306  -4.241  -0.409  0.00  0.00    +0.007 A 
ATOM     14  C   UNL     1       1.687  -4.299  -0.635  0.00  0.00    +0.005 A 
BRANCH  11  15
ATOM     15  N   UNL     1       0.188  -2.958   3.119  0.00  0.00    +0.080 N 
ATOM     16  O   UNL     1       1.014  -2.684   4.005  0.00  0.00    +0.041 OA
ATOM     17  O   UNL     1      -1.035  -2.796   3.228  0.00  0.00    -0.576 OA
ENDBRANCH  11  15
ENDBRANCH   2   9
BRANCH   4  18
ATOM     18  N   UNL     1       6.041  -6.585  -1.881  0.00  0.00    -0.251 N 
ATOM     19  H   UNL     1       5.525  -7.424  -1.596  0.00  0.00    +0.288 HD
ATOM     20  H   UNL     1       6.160  -6.566  -2.888  0.00  0.00    +0.288 HD
ENDBRANCH   4  18
BRANCH   1  21
ATOM     21  C   UNL     1       4.443  -1.402  -0.142  0.00  0.00    +0.340 C 
ATOM     22  O   UNL     1       5.338  -0.571  -0.144  0.00  0.00    -0.245 OA
BRANCH  21  23
ATOM     23  O   UNL     1       3.171  -1.153   0.268  0.00  0.00    -0.459 OA
BRANCH  23  25
ATOM     24  C   UNL     1       2.387   0.967  -0.601  0.00  0.00    +0.052 C 
ATOM     25  C   UNL     1       2.897   0.221   0.629  0.00  0.00    +0.171 C 
ATOM     26  C   UNL     1       1.856   0.252   1.744  0.00  0.00    +0.052 C 
ENDBRANCH  23  25
ENDBRANCH  21  23
ENDBRANCH   1  21
BRANCH   3  27
ATOM     27  C   UNL     1       4.132  -6.632   0.212  0.00  0.00    +0.344 C 
ATOM     28  O   UNL     1       4.099  -7.687  -0.417  0.00  0.00    -0.245 OA
BRANCH  27  29
ATOM     29  O   UNL     1       3.776  -6.519   1.515  0.00  0.00    -0.455 OA
BRANCH  29  30
ATOM     30  C   UNL     1       3.520  -7.806   2.134  0.00  0.00    +0.205 C 
ATOM     31  C   UNL     1       3.211  -7.806   3.639  0.00  0.00    +0.131 C 
ATOM     32  N   UNL     1       4.248  -8.839   3.865  0.00  0.00    -0.284 NA
ATOM     33  C   UNL     1       4.767  -8.631   2.504  0.00  0.00    +0.131 C 
BRANCH  32  34
ATOM     34  C   UNL     1       3.635 -10.185   4.074  0.00  0.00    +0.117 C 
BRANCH  34  35
ATOM     35  C   UNL     1       2.990 -10.257   5.469  0.00  0.00    -0.026 A 
ATOM     36  C   UNL     1       3.514  -9.526   6.553  0.00  0.00    +0.005 A 
ATOM     37  C   UNL     1       2.849  -9.471   7.778  0.00  0.00    +0.000 A 
ATOM     38  C   UNL     1       1.658 -10.167   7.949  0.00  0.00    +0.000 A 
ATOM     39  C   UNL     1       1.148 -10.939   6.906  0.00  0.00    +0.000 A 
ATOM     40  C   UNL     1       1.812 -10.992   5.676  0.00  0.00    +0.005 A 
ENDBRANCH  34  35
BRANCH  34  41
ATOM     41  C   UNL     1       4.650 -11.309   3.823  0.00  0.00    -0.026 A 
ATOM     42  C   UNL     1       4.475 -12.182   2.732  0.00  0.00    +0.005 A 
ATOM     43  C   UNL     1       5.475 -13.089   2.371  0.00  0.00    +0.000 A 
ATOM     44  C   UNL     1       6.658 -13.150   3.102  0.00  0.00    +0.000 A 
ATOM     45  C   UNL     1       6.827 -12.329   4.215  0.00  0.00    +0.000 A 
ATOM     46  C   UNL     1       5.831 -11.418   4.575  0.00  0.00    +0.005 A 
ENDBRANCH  34  41
ENDBRANCH  32  34
ENDBRANCH  29  30
ENDBRANCH  27  29
ENDBRANCH   3  27
TORSDOF 12
