REMARK  Name = 
REMARK  15 active torsions:
REMARK  status: ('A' for Active; 'I' for Inactive)
REMARK    1  A    between atoms: C_5  and  C_6
REMARK    2  A    between atoms: C_8  and  C_34
REMARK    3  A    between atoms: C_11  and  N_12
REMARK    4  A    between atoms: N_13  and  C_14
REMARK    5  A    between atoms: C_15  and  O_16
REMARK    6  A    between atoms: C_18  and  N_19
REMARK    7  A    between atoms: C_21  and  S_30
REMARK    8  A    between atoms: C_25  and  S_26
REMARK    9  A    between atoms: C_37  and  N_38
REMARK   10  A    between atoms: N_39  and  C_40
REMARK   11  A    between atoms: C_41  and  O_42
REMARK   12  A    between atoms: C_46  and  S_50
REMARK   13  A    between atoms: C_48  and  N_49
REMARK   14  A    between atoms: C_55  and  S_56
REMARK   15  A    between atoms: C_60  and  C_61
REMARK                            x       y       z     vdW  Elec       q    Type
REMARK                         _______ _______ _______ _____ _____    ______ ____
ROOT
ATOM      1 NA   UNL     1       2.063  -2.030  -4.131  0.00  0.00    +0.000 Na
ENDROOT
TORSDOF 0
REMARK  Name = 
REMARK  15 active torsions:
REMARK  status: ('A' for Active; 'I' for Inactive)
REMARK    1  A    between atoms: C_5  and  C_6
REMARK    2  A    between atoms: C_8  and  C_34
REMARK    3  A    between atoms: C_11  and  N_12
REMARK    4  A    between atoms: N_13  and  C_14
REMARK    5  A    between atoms: C_15  and  O_16
REMARK    6  A    between atoms: C_18  and  N_19
REMARK    7  A    between atoms: C_21  and  S_30
REMARK    8  A    between atoms: C_25  and  S_26
REMARK    9  A    between atoms: C_37  and  N_38
REMARK   10  A    between atoms: N_39  and  C_40
REMARK   11  A    between atoms: C_41  and  O_42
REMARK   12  A    between atoms: C_46  and  S_50
REMARK   13  A    between atoms: C_48  and  N_49
REMARK   14  A    between atoms: C_55  and  S_56
REMARK   15  A    between atoms: C_60  and  C_61
REMARK                            x       y       z     vdW  Elec       q    Type
REMARK                         _______ _______ _______ _____ _____    ______ ____
ROOT
ATOM      1 NA   UNL     1      -3.632  -0.129  -1.564  0.00  0.00    +0.000 Na
ENDROOT
TORSDOF 0
REMARK  Name = 
REMARK  15 active torsions:
REMARK  status: ('A' for Active; 'I' for Inactive)
REMARK    1  A    between atoms: C_5  and  C_6
REMARK    2  A    between atoms: C_8  and  C_34
REMARK    3  A    between atoms: C_11  and  N_12
REMARK    4  A    between atoms: N_13  and  C_14
REMARK    5  A    between atoms: C_15  and  O_16
REMARK    6  A    between atoms: C_18  and  N_19
REMARK    7  A    between atoms: C_21  and  S_30
REMARK    8  A    between atoms: C_25  and  S_26
REMARK    9  A    between atoms: C_37  and  N_38
REMARK   10  A    between atoms: N_39  and  C_40
REMARK   11  A    between atoms: C_41  and  O_42
REMARK   12  A    between atoms: C_46  and  S_50
REMARK   13  A    between atoms: C_48  and  N_49
REMARK   14  A    between atoms: C_55  and  S_56
REMARK   15  A    between atoms: C_60  and  C_61
REMARK                            x       y       z     vdW  Elec       q    Type
REMARK                         _______ _______ _______ _____ _____    ______ ____
ROOT
ATOM      1 NA   UNL     1      -1.004  -2.506   2.552  0.00  0.00    +0.000 Na
ENDROOT
TORSDOF 0
REMARK  Name = 
REMARK  15 active torsions:
REMARK  status: ('A' for Active; 'I' for Inactive)
REMARK    1  A    between atoms: C_5  and  C_6
REMARK    2  A    between atoms: C_8  and  C_34
REMARK    3  A    between atoms: C_11  and  N_12
REMARK    4  A    between atoms: N_13  and  C_14
REMARK    5  A    between atoms: C_15  and  O_16
REMARK    6  A    between atoms: C_18  and  N_19
REMARK    7  A    between atoms: C_21  and  S_30
REMARK    8  A    between atoms: C_25  and  S_26
REMARK    9  A    between atoms: C_37  and  N_38
REMARK   10  A    between atoms: N_39  and  C_40
REMARK   11  A    between atoms: C_41  and  O_42
REMARK   12  A    between atoms: C_46  and  S_50
REMARK   13  A    between atoms: C_48  and  N_49
REMARK   14  A    between atoms: C_55  and  S_56
REMARK   15  A    between atoms: C_60  and  C_61
REMARK                            x       y       z     vdW  Elec       q    Type
REMARK                         _______ _______ _______ _____ _____    ______ ____
ROOT
ATOM      1 NA   UNL     1       3.950   2.022   3.168  0.00  0.00    +0.000 Na
ENDROOT
TORSDOF 0
REMARK  Name = 
REMARK  15 active torsions:
REMARK  status: ('A' for Active; 'I' for Inactive)
REMARK    1  A    between atoms: C_5  and  C_6
REMARK    2  A    between atoms: C_8  and  C_34
REMARK    3  A    between atoms: C_11  and  N_12
REMARK    4  A    between atoms: N_13  and  C_14
REMARK    5  A    between atoms: C_15  and  O_16
REMARK    6  A    between atoms: C_18  and  N_19
REMARK    7  A    between atoms: C_21  and  S_30
REMARK    8  A    between atoms: C_25  and  S_26
REMARK    9  A    between atoms: C_37  and  N_38
REMARK   10  A    between atoms: N_39  and  C_40
REMARK   11  A    between atoms: C_41  and  O_42
REMARK   12  A    between atoms: C_46  and  S_50
REMARK   13  A    between atoms: C_48  and  N_49
REMARK   14  A    between atoms: C_55  and  S_56
REMARK   15  A    between atoms: C_60  and  C_61
REMARK                            x       y       z     vdW  Elec       q    Type
REMARK                         _______ _______ _______ _____ _____    ______ ____
ROOT
ATOM      1  C   UNL     1       0.959   0.631  -0.359  0.00  0.00    +0.000 C 
ATOM      2  C   UNL     1       2.431   0.365  -0.269  0.00  0.00    +0.000 A 
ATOM      3  C   UNL     1       2.989  -0.925  -0.292  0.00  0.00    +0.000 A 
ATOM      4  C   UNL     1       4.391  -1.029  -0.231  0.00  0.00    +0.000 A 
ATOM      5  C   UNL     1       5.216   0.117  -0.216  0.00  0.00    +0.000 A 
ATOM      6  C   UNL     1       4.663   1.403  -0.251  0.00  0.00    +0.000 A 
ATOM      7  C   UNL     1       3.264   1.490  -0.254  0.00  0.00    +0.000 A 
ENDROOT
BRANCH   6   8
ATOM      8  C   UNL     1       5.444   2.650  -0.397  0.00  0.00    +0.000 A 
ATOM      9  C   UNL     1       6.582   2.712  -1.210  0.00  0.00    +0.000 A 
ATOM     10  C   UNL     1       7.222   3.939  -1.508  0.00  0.00    +0.000 A 
ATOM     11  C   UNL     1       8.384   3.896  -2.464  0.00  0.00    +0.000 C 
ATOM     12  C   UNL     1       6.721   5.145  -0.972  0.00  0.00    +0.000 A 
ATOM     13  C   UNL     1       5.607   5.079  -0.130  0.00  0.00    +0.000 A 
ATOM     14  C   UNL     1       4.984   3.862   0.153  0.00  0.00    +0.000 A 
BRANCH  12  15
ATOM     15  N   UNL     1       7.355   6.376  -1.239  0.00  0.00    +0.000 NA
ATOM     16  N   UNL     1       6.537   7.315  -1.393  0.00  0.00    +0.000 NA
BRANCH  16  17
ATOM     17  C   UNL     1       7.173   8.561  -1.642  0.00  0.00    +0.000 A 
ATOM     18  C   UNL     1       6.800   9.757  -1.028  0.00  0.00    +0.000 A 
ATOM     19  C   UNL     1       7.450  10.965  -1.346  0.00  0.00    +0.000 A 
ATOM     20  C   UNL     1       8.536  11.004  -2.247  0.00  0.00    +0.000 A 
ATOM     21  C   UNL     1       9.211  12.201  -2.502  0.00  0.00    +0.000 A 
ATOM     22  C   UNL     1      10.324  12.215  -3.340  0.00  0.00    +0.000 A 
ATOM     23  C   UNL     1      10.782  11.048  -3.954  0.00  0.00    +0.000 A 
ATOM     24  C   UNL     1      10.080   9.842  -3.767  0.00  0.00    +0.000 A 
ATOM     25  C   UNL     1       8.955   9.813  -2.886  0.00  0.00    +0.000 A 
ATOM     26  C   UNL     1       8.211   8.636  -2.609  0.00  0.00    +0.000 A 
BRANCH  18  27
ATOM     27  S   UNL     1       5.455   9.798   0.176  0.00  0.00    +0.000 S 
ATOM     28  O   UNL     1       4.929  11.158   0.070  0.00  0.00    +0.000 OA
ATOM     29  O   UNL     1       6.147   9.490   1.430  0.00  0.00    +0.000 OA
ATOM     30  O   UNL     1       4.521   8.765  -0.260  0.00  0.00    -1.000 OA
ENDBRANCH  18  27
BRANCH  22  31
ATOM     31  S   UNL     1      11.260  13.731  -3.653  0.00  0.00    +0.000 S 
ATOM     32  O   UNL     1      10.564  14.743  -2.865  0.00  0.00    +0.000 OA
ATOM     33  O   UNL     1      11.134  13.876  -5.103  0.00  0.00    +0.000 OA
ATOM     34  O   UNL     1      12.595  13.376  -3.174  0.00  0.00    -1.000 OA
ENDBRANCH  22  31
BRANCH  24  35
ATOM     35  N   UNL     1      10.671   8.665  -4.275  0.00  0.00    +0.000 N 
ATOM     36  H   UNL     1       9.965   7.931  -4.318  0.00  0.00    +0.000 HD
ATOM     37  H   UNL     1      11.153   8.825  -5.154  0.00  0.00    +0.000 HD
ENDBRANCH  24  35
BRANCH  26  38
ATOM     38  O   UNL     1       8.473   7.490  -3.354  0.00  0.00    +0.000 OA
ATOM     39  H   UNL     1       7.876   6.828  -2.965  0.00  0.00    +0.000 HD
ENDBRANCH  26  38
ENDBRANCH  16  17
ENDBRANCH  12  15
ENDBRANCH   6   8
BRANCH   3  40
ATOM     40  N   UNL     1       2.218  -2.115  -0.352  0.00  0.00    +0.000 NA
ATOM     41  N   UNL     1       1.383  -2.094  -1.291  0.00  0.00    +0.000 NA
BRANCH  41  42
ATOM     42  C   UNL     1       0.686  -3.327  -1.405  0.00  0.00    +0.000 A 
ATOM     43  C   UNL     1      -0.698  -3.454  -1.252  0.00  0.00    +0.000 A 
ATOM     44  C   UNL     1      -1.327  -4.695  -1.372  0.00  0.00    +0.000 A 
ATOM     45  C   UNL     1      -0.571  -5.850  -1.638  0.00  0.00    +0.000 A 
ATOM     46  C   UNL     1       0.831  -5.767  -1.875  0.00  0.00    +0.000 A 
ATOM     47  C   UNL     1       1.553  -6.973  -2.140  0.00  0.00    +0.000 A 
ATOM     48  C   UNL     1       0.880  -8.195  -2.188  0.00  0.00    +0.000 A 
ATOM     49  C   UNL     1      -0.481  -8.244  -1.906  0.00  0.00    +0.000 A 
ATOM     50  C   UNL     1      -1.213  -7.090  -1.653  0.00  0.00    +0.000 A 
ATOM     51  C   UNL     1       1.412  -4.475  -1.776  0.00  0.00    +0.000 A 
BRANCH  43  52
ATOM     52  S   UNL     1      -1.661  -2.037  -0.794  0.00  0.00    +0.000 S 
ATOM     53  O   UNL     1      -1.292  -0.963  -1.704  0.00  0.00    +0.000 OA
ATOM     54  O   UNL     1      -1.284  -1.825   0.613  0.00  0.00    +0.000 OA
ATOM     55  O   UNL     1      -3.074  -2.337  -0.967  0.00  0.00    -1.000 OA
ENDBRANCH  43  52
BRANCH  49  56
ATOM     56  S   UNL     1      -1.274  -9.866  -1.843  0.00  0.00    +0.000 S 
ATOM     57  O   UNL     1      -2.653  -9.530  -1.500  0.00  0.00    +0.000 OA
ATOM     58  O   UNL     1      -0.502 -10.510  -0.785  0.00  0.00    +0.000 OA
ATOM     59  O   UNL     1      -1.050 -10.344  -3.201  0.00  0.00    -1.000 OA
ENDBRANCH  49  56
BRANCH  47  60
ATOM     60  N   UNL     1       2.902  -6.957  -2.555  0.00  0.00    +0.000 N 
ATOM     61  H   UNL     1       3.368  -7.852  -2.411  0.00  0.00    +0.000 HD
ATOM     62  H   UNL     1       3.422  -6.169  -2.188  0.00  0.00    +0.000 HD
ENDBRANCH  47  60
BRANCH  51  63
ATOM     63  O   UNL     1       2.760  -4.292  -2.040  0.00  0.00    +0.000 OA
ATOM     64  H   UNL     1       3.083  -3.681  -1.350  0.00  0.00    +0.000 HD
ENDBRANCH  51  63
ENDBRANCH  41  42
ENDBRANCH   3  40
TORSDOF 13
