REMARK  Name = 
REMARK  14 active torsions:
REMARK  status: ('A' for Active; 'I' for Inactive)
REMARK    1  A    between atoms: C_1  and  C_2
REMARK    2  A    between atoms: C_2  and  O_3
REMARK    3  A    between atoms: O_3  and  C_4
REMARK    4  A    between atoms: C_4  and  C_6
REMARK    5  A    between atoms: C_7  and  C_8
REMARK    6  A    between atoms: C_8  and  O_9
REMARK    7  A    between atoms: O_9  and  C_10
REMARK    8  A    between atoms: C_10  and  C_11
REMARK    9  A    between atoms: C_11  and  N_12
REMARK   10  A    between atoms: C_14  and  C_15
REMARK   11  A    between atoms: C_16  and  C_26
REMARK   12  A    between atoms: C_17  and  C_19
REMARK   13  A    between atoms: C_26  and  O_28
REMARK   14  A    between atoms: O_28  and  C_29
REMARK                            x       y       z     vdW  Elec       q    Type
REMARK                         _______ _______ _______ _____ _____    ______ ____
ROOT
ATOM      1  C   UNL     1       4.840   2.209  -2.073  0.00  0.00    +0.068 C 
ATOM      2  C   UNL     1       5.234   1.780  -3.497  0.00  0.00    +0.097 C 
ATOM      3  C   UNL     1       5.322   2.962  -4.487  0.00  0.00    +0.065 C 
ATOM      4  C   UNL     1       5.167   4.237  -4.050  0.00  0.00    +0.016 C 
ATOM      5  C   UNL     1       5.197   5.464  -4.928  0.00  0.00    +0.061 C 
ATOM      6  N   UNL     1       4.957   4.487  -2.713  0.00  0.00    -0.319 N 
ATOM      7  H   UNL     1       4.816   5.457  -2.438  0.00  0.00    +0.152 HD
ATOM      8  C   UNL     1       4.743   3.523  -1.742  0.00  0.00    +0.045 C 
ENDROOT
BRANCH   2   9
ATOM      9  C   UNL     1       4.392   0.610  -4.030  0.00  0.00    -0.017 A 
ATOM     10  C   UNL     1       3.039   0.703  -4.391  0.00  0.00    +0.045 A 
ATOM     11 CL   UNL     1       2.124   2.153  -4.198  0.00  0.00    -0.083 Cl
ATOM     12  C   UNL     1       2.368  -0.408  -4.920  0.00  0.00    +0.020 A 
ATOM     13  C   UNL     1       3.025  -1.629  -5.076  0.00  0.00    +0.001 A 
ATOM     14  C   UNL     1       4.354  -1.751  -4.691  0.00  0.00    +0.000 A 
ATOM     15  C   UNL     1       5.029  -0.645  -4.176  0.00  0.00    +0.006 A 
ENDBRANCH   2   9
BRANCH   1  16
ATOM     16  C   UNL     1       4.568   1.129  -1.082  0.00  0.00    +0.338 C 
ATOM     17  O   UNL     1       5.024  -0.004  -1.132  0.00  0.00    -0.245 OA
BRANCH  16  18
ATOM     18  O   UNL     1       3.595   1.553  -0.249  0.00  0.00    -0.462 OA
BRANCH  18  20
ATOM     19  C   UNL     1       1.497   0.522  -0.331  0.00  0.00    +0.048 C 
ATOM     20  C   UNL     1       2.791   0.604   0.452  0.00  0.00    +0.229 C 
ENDBRANCH  18  20
ENDBRANCH  16  18
ENDBRANCH   1  16
BRANCH   3  21
ATOM     21  C   UNL     1       5.532   2.712  -5.941  0.00  0.00    +0.337 C 
ATOM     22  O   UNL     1       5.191   3.477  -6.833  0.00  0.00    -0.245 OA
BRANCH  21  23
ATOM     23  O   UNL     1       6.159   1.529  -6.155  0.00  0.00    -0.465 OA
ATOM     24  C   UNL     1       6.269   1.189  -7.540  0.00  0.00    +0.280 C 
ENDBRANCH  21  23
ENDBRANCH   3  21
BRANCH   8  25
ATOM     25  C   UNL     1       4.499   4.065  -0.335  0.00  0.00    +0.211 C 
BRANCH  25  26
ATOM     26  O   UNL     1       5.419   3.530   0.621  0.00  0.00    -0.373 OA
BRANCH  26  27
ATOM     27  C   UNL     1       6.768   3.934   0.364  0.00  0.00    +0.175 C 
BRANCH  27  28
ATOM     28  C   UNL     1       7.700   3.318   1.410  0.00  0.00    +0.106 C 
BRANCH  28  29
ATOM     29  N   UNL     1       7.720   1.856   1.322  0.00  0.00    -0.328 NA
ATOM     30  H   UNL     1       8.265   1.475   2.092  0.00  0.00    +0.118 HD
ATOM     31  H   UNL     1       6.762   1.518   1.450  0.00  0.00    +0.118 HD
ENDBRANCH  28  29
ENDBRANCH  27  28
ENDBRANCH  26  27
ENDBRANCH  25  26
ENDBRANCH   8  25
TORSDOF 11
