REMARK  Name = 
REMARK  5 active torsions:
REMARK  status: ('A' for Active; 'I' for Inactive)
REMARK    1  A    between atoms: C_1  and  C_2
REMARK    2  A    between atoms: C_3  and  N_4
REMARK    3  A    between atoms: N_4  and  C_5
REMARK    4  A    between atoms: C_6  and  C_11
REMARK    5  A    between atoms: C_11  and  O_12
REMARK                            x       y       z     vdW  Elec       q    Type
REMARK                         _______ _______ _______ _____ _____    ______ ____
ROOT
ATOM      1  N   UNL     1       2.371   2.321   0.203  0.00  0.00    -0.299 N 
ATOM      2  H   UNL     1       2.943   3.092   0.535  0.00  0.00    +0.154 HD
ENDROOT
BRANCH   1  10
ATOM      3  C   UNL     1       5.196   1.984   1.030  0.00  0.00    +0.047 C 
ATOM      4  C   UNL     1       4.523   1.128  -0.013  0.00  0.00    -0.011 A 
ATOM      5  C   UNL     1       5.276   0.177  -0.733  0.00  0.00    +0.046 A 
ATOM      6 CL   UNL     1       7.002   0.107  -0.622  0.00  0.00    -0.083 Cl
ATOM      7  C   UNL     1       4.654  -0.737  -1.585  0.00  0.00    +0.020 A 
ATOM      8  C   UNL     1       3.271  -0.731  -1.714  0.00  0.00    +0.003 A 
ATOM      9  C   UNL     1       2.521   0.247  -1.066  0.00  0.00    +0.023 A 
ATOM     10  C   UNL     1       3.136   1.233  -0.279  0.00  0.00    +0.037 A 
ENDBRANCH   1  10
BRANCH   1  11
ATOM     11  C   UNL     1       1.084   2.309   0.790  0.00  0.00    +0.137 A 
ATOM     12  N   UNL     1       0.487   1.126   1.073  0.00  0.00    -0.239 NA
ATOM     13  C   UNL     1      -0.731   1.137   1.665  0.00  0.00    +0.113 A 
ATOM     14  C   UNL     1      -1.405   2.290   2.021  0.00  0.00    +0.021 A 
ATOM     15  C   UNL     1      -0.824   3.506   1.686  0.00  0.00    +0.020 A 
ATOM     16  C   UNL     1       0.409   3.512   1.026  0.00  0.00    +0.099 A 
BRANCH  16  17
ATOM     17  C   UNL     1       0.958   4.816   0.601  0.00  0.00    +0.340 C 
ATOM     18  O   UNL     1       0.908   5.807   1.304  0.00  0.00    -0.245 OA
BRANCH  17  19
ATOM     19  O   UNL     1       1.442   4.813  -0.657  0.00  0.00    -0.477 OA
ATOM     20  H   UNL     1       1.346   3.962  -1.136  0.00  0.00    +0.295 HD
ENDBRANCH  17  19
ENDBRANCH  16  17
ENDBRANCH   1  11
TORSDOF 4
