REMARK  Name = 
REMARK  5 active torsions:
REMARK  status: ('A' for Active; 'I' for Inactive)
REMARK    1  A    between atoms: C_8  and  C_22
REMARK    2  A    between atoms: N_10  and  C_11
REMARK    3  A    between atoms: C_18  and  C_20
REMARK    4  A    between atoms: C_25  and  O_26
REMARK    5  A    between atoms: O_26  and  C_27
REMARK                            x       y       z     vdW  Elec       q    Type
REMARK                         _______ _______ _______ _____ _____    ______ ____
ROOT
ATOM      1  N   UNL     1       8.369  -1.134   5.539  0.00  0.00    -0.342 N 
ATOM      2  H   UNL     1       7.540  -0.565   5.664  0.00  0.00    +0.144 HD
ATOM      3  H   UNL     1       8.614  -1.680   6.362  0.00  0.00    +0.144 HD
ATOM      4  C   UNL     1       8.271  -2.001   4.457  0.00  0.00    +0.131 A 
ATOM      5  C   UNL     1       7.741  -1.689   3.191  0.00  0.00    +0.086 A 
ATOM      6  C   UNL     1       7.242  -0.563   2.451  0.00  0.00    +0.105 A 
ATOM      7  N   UNL     1       6.764  -0.968   1.252  0.00  0.00    -0.168 NA
ATOM      8  N   UNL     1       6.998  -2.293   1.203  0.00  0.00    -0.241 N 
ATOM      9  C   UNL     1       7.610  -2.771   2.324  0.00  0.00    +0.164 A 
ATOM     10  N   UNL     1       7.975  -4.046   2.545  0.00  0.00    -0.216 NA
ATOM     11  C   UNL     1       8.527  -4.199   3.754  0.00  0.00    +0.225 A 
ATOM     12  N   UNL     1       8.677  -3.264   4.708  0.00  0.00    -0.220 NA
ENDROOT
BRANCH   8  13
ATOM     13  C   UNL     1       6.535  -3.084   0.065  0.00  0.00    +0.127 C 
ATOM     14  C   UNL     1       4.995  -3.202   0.062  0.00  0.00    +0.135 C 
ATOM     15  N   UNL     1       4.490  -3.859  -1.160  0.00  0.00    -0.296 N 
ATOM     16  C   UNL     1       3.633  -4.944  -1.272  0.00  0.00    +0.239 C 
ATOM     17  O   UNL     1       3.291  -5.395  -2.366  0.00  0.00    -0.271 OA
ATOM     18  C   UNL     1       4.953  -3.240  -2.401  0.00  0.00    +0.108 C 
ATOM     19  C   UNL     1       6.473  -3.301  -2.462  0.00  0.00    +0.021 C 
ATOM     20  C   UNL     1       7.082  -2.554  -1.274  0.00  0.00    +0.030 C 
BRANCH  16  21
ATOM     21  C   UNL     1       3.119  -5.590  -0.034  0.00  0.00    +0.060 C 
ATOM     22  C   UNL     1       2.302  -6.651  -0.130  0.00  0.00    +0.013 C 
ENDBRANCH  16  21
ENDBRANCH   8  13
BRANCH   6  23
ATOM     23  C   UNL     1       7.143   0.875   2.795  0.00  0.00    +0.003 A 
ATOM     24  C   UNL     1       6.198   1.676   2.123  0.00  0.00    +0.014 A 
ATOM     25  C   UNL     1       6.034   3.041   2.409  0.00  0.00    +0.047 A 
ATOM     26  C   UNL     1       6.822   3.643   3.382  0.00  0.00    +0.128 A 
ATOM     27  C   UNL     1       7.780   2.869   4.048  0.00  0.00    +0.047 A 
ATOM     28  C   UNL     1       7.956   1.506   3.742  0.00  0.00    +0.014 A 
BRANCH  26  29
ATOM     29  O   UNL     1       6.674   4.935   3.832  0.00  0.00    -0.456 OA
BRANCH  29  30
ATOM     30  C   UNL     1       6.147   5.917   3.024  0.00  0.00    +0.128 A 
ATOM     31  C   UNL     1       6.599   6.172   1.728  0.00  0.00    +0.046 A 
ATOM     32  C   UNL     1       6.134   7.296   1.036  0.00  0.00    +0.004 A 
ATOM     33  C   UNL     1       5.229   8.171   1.640  0.00  0.00    +0.000 A 
ATOM     34  C   UNL     1       4.770   7.913   2.930  0.00  0.00    +0.004 A 
ATOM     35  C   UNL     1       5.232   6.790   3.622  0.00  0.00    +0.046 A 
ENDBRANCH  29  30
ENDBRANCH  26  29
ENDBRANCH   6  23
TORSDOF 5
