REMARK  Name = 
REMARK  12 active torsions:
REMARK  status: ('A' for Active; 'I' for Inactive)
REMARK    1  A    between atoms: C_1  and  O_2
REMARK    2  A    between atoms: O_2  and  C_3
REMARK    3  A    between atoms: C_3  and  C_5
REMARK    4  A    between atoms: C_6  and  C_7
REMARK    5  A    between atoms: C_9  and  C_10
REMARK    6  A    between atoms: C_11  and  C_23
REMARK    7  A    between atoms: C_12  and  C_14
REMARK    8  A    between atoms: C_18  and  N_20
REMARK    9  A    between atoms: C_23  and  O_25
REMARK   10  A    between atoms: O_25  and  C_26
REMARK   11  A    between atoms: N_31  and  C_32
REMARK   12  A    between atoms: C_32  and  C_33
REMARK                            x       y       z     vdW  Elec       q    Type
REMARK                         _______ _______ _______ _____ _____    ______ ____
ROOT
ATOM      1  C   UNL     1       5.765   4.785   0.552  0.00  0.00    +0.065 C 
ATOM      2  C   UNL     1       6.345   3.886   1.746  0.00  0.00    +0.096 C 
ATOM      3  C   UNL     1       5.515   3.966   3.121  0.00  0.00    +0.065 C 
ATOM      4  C   UNL     1       4.527   4.900   3.179  0.00  0.00    +0.016 C 
ATOM      5  C   UNL     1       3.632   5.127   4.373  0.00  0.00    +0.061 C 
ATOM      6  N   UNL     1       4.244   5.725   2.093  0.00  0.00    -0.321 N 
ATOM      7  H   UNL     1       3.392   6.287   2.180  0.00  0.00    +0.152 HD
ATOM      8  C   UNL     1       4.765   5.665   0.812  0.00  0.00    +0.016 C 
ATOM      9  C   UNL     1       4.066   6.653  -0.122  0.00  0.00    +0.061 C 
ENDROOT
BRANCH   2  10
ATOM     10  C   UNL     1       7.840   4.171   2.037  0.00  0.00    -0.029 A 
ATOM     11  C   UNL     1       8.808   3.147   1.943  0.00  0.00    +0.088 A 
ATOM     12  C   UNL     1      10.108   3.372   2.429  0.00  0.00    +0.273 A 
ATOM     13  C   UNL     1      10.484   4.600   2.980  0.00  0.00    +0.084 A 
ATOM     14  C   UNL     1       9.549   5.631   3.012  0.00  0.00    +0.007 A 
ATOM     15  C   UNL     1       8.247   5.422   2.538  0.00  0.00    +0.005 A 
BRANCH  12  16
ATOM     16  N   UNL     1      11.092   2.299   2.422  0.00  0.00    +0.080 N 
ATOM     17  O   UNL     1      11.315   1.738   1.338  0.00  0.00    +0.041 OA
ATOM     18  O   UNL     1      11.661   2.049   3.488  0.00  0.00    -0.576 OA
ENDBRANCH  12  16
ENDBRANCH   2  10
BRANCH   1  19
ATOM     19  C   UNL     1       6.324   4.519  -0.835  0.00  0.00    +0.337 C 
ATOM     20  O   UNL     1       7.263   3.772  -1.050  0.00  0.00    -0.245 OA
BRANCH  19  22
ATOM     21  C   UNL     1       6.031   5.017  -3.203  0.00  0.00    +0.280 C 
ATOM     22  O   UNL     1       5.636   5.165  -1.823  0.00  0.00    -0.465 OA
ENDBRANCH  19  22
ENDBRANCH   1  19
BRANCH   3  23
ATOM     23  C   UNL     1       5.893   2.976   4.277  0.00  0.00    +0.338 C 
ATOM     24  O   UNL     1       6.620   1.998   4.055  0.00  0.00    -0.245 OA
BRANCH  23  25
ATOM     25  O   UNL     1       5.383   3.253   5.511  0.00  0.00    -0.457 OA
BRANCH  25  26
ATOM     26  C   UNL     1       5.624   2.582   6.861  0.00  0.00    +0.191 C 
ATOM     27  C   UNL     1       4.654   1.411   7.280  0.00  0.00    +0.129 C 
ATOM     28  N   UNL     1       4.642   1.186   8.759  0.00  0.00    -0.295 NA
ATOM     29  C   UNL     1       5.979   0.940   9.320  0.00  0.00    +0.085 C 
ATOM     30  C   UNL     1       7.158   1.729   8.710  0.00  0.00    +0.019 C 
ATOM     31  C   UNL     1       7.055   2.161   7.226  0.00  0.00    +0.047 C 
BRANCH  28  32
ATOM     32  C   UNL     1       3.661   0.160   9.281  0.00  0.00    +0.119 C 
BRANCH  32  33
ATOM     33  C   UNL     1       3.034   0.490  10.659  0.00  0.00    -0.033 A 
ATOM     34  C   UNL     1       2.459  -0.494  11.497  0.00  0.00    +0.005 A 
ATOM     35  C   UNL     1       1.849  -0.136  12.725  0.00  0.00    +0.000 A 
ATOM     36  C   UNL     1       1.811   1.190  13.128  0.00  0.00    +0.000 A 
ATOM     37  C   UNL     1       2.359   2.170  12.301  0.00  0.00    +0.000 A 
ATOM     38  C   UNL     1       2.951   1.816  11.086  0.00  0.00    +0.005 A 
ENDBRANCH  32  33
ENDBRANCH  28  32
ENDBRANCH  25  26
ENDBRANCH  23  25
ENDBRANCH   3  23
TORSDOF 9
