REMARK  Name = 
REMARK  7 active torsions:
REMARK  status: ('A' for Active; 'I' for Inactive)
REMARK    1  A    between atoms: C_1  and  C_2
REMARK    2  A    between atoms: C_2  and  C_3
REMARK    3  A    between atoms: C_2  and  N_4
REMARK    4  A    between atoms: N_4  and  N_5
REMARK    5  A    between atoms: C_6  and  C_8
REMARK    6  A    between atoms: C_8  and  O_9
REMARK    7  A    between atoms: O_9  and  C_10
REMARK                            x       y       z     vdW  Elec       q    Type
REMARK                         _______ _______ _______ _____ _____    ______ ____
ROOT
ATOM      1  N   UNL     1       4.427  -0.894   1.168  0.00  0.00    -0.248 N 
ATOM      2  H   UNL     1       4.993  -0.152   0.753  0.00  0.00    +0.169 HD
ATOM      3  C   UNL     1       4.986  -1.622   2.209  0.00  0.00    +0.264 C 
ATOM      4  O   UNL     1       4.332  -2.349   2.956  0.00  0.00    -0.271 OA
ENDROOT
BRANCH   1   5
ATOM      5  N   UNL     1       3.023  -0.845   1.021  0.00  0.00    -0.238 NA
ATOM      6  H   UNL     1       2.623  -1.404   1.789  0.00  0.00    +0.145 HD
BRANCH   5   8
ATOM      7  C   UNL     1       1.062  -1.482  -0.278  0.00  0.00    +0.025 C 
ATOM      8  C   UNL     1       2.591  -1.436  -0.257  0.00  0.00    +0.067 C 
ATOM      9  C   UNL     1       3.100  -0.619  -1.448  0.00  0.00    +0.025 C 
ENDBRANCH   5   8
ENDBRANCH   1   5
BRANCH   3  10
ATOM     10  C   UNL     1       6.509  -1.532   2.266  0.00  0.00    +0.325 C 
BRANCH  10  11
ATOM     11  O   UNL     1       6.977  -0.288   1.746  0.00  0.00    -0.483 OA
BRANCH  11  12
ATOM     12  C   UNL     1       8.335  -0.121   1.744  0.00  0.00    +0.121 A 
ATOM     13  C   UNL     1       8.778   1.206   1.784  0.00  0.00    +0.047 A 
ATOM     14  C   UNL     1      10.145   1.498   1.768  0.00  0.00    +0.023 A 
ATOM     15  C   UNL     1      11.071   0.461   1.694  0.00  0.00    +0.041 A 
ATOM     16 CL   UNL     1      12.755   0.812   1.668  0.00  0.00    -0.084 Cl
ATOM     17  C   UNL     1      10.641  -0.862   1.635  0.00  0.00    +0.023 A 
ATOM     18  C   UNL     1       9.273  -1.152   1.660  0.00  0.00    +0.047 A 
ENDBRANCH  11  12
ENDBRANCH  10  11
ENDBRANCH   3  10
TORSDOF 5
