REMARK  Name = 
REMARK  1 active torsions:
REMARK  status: ('A' for Active; 'I' for Inactive)
REMARK    1  A    between atoms: O_1  and  C_2
REMARK                            x       y       z     vdW  Elec       q    Type
REMARK                         _______ _______ _______ _____ _____    ______ ____
ROOT
ATOM      1  C   UNL     1       2.448   0.055  -0.085  0.00  0.00    +0.142 A 
ATOM      2  C   UNL     1       3.188  -1.194  -0.156  0.00  0.00    +0.098 A 
ATOM      3 CL   UNL     1       2.366  -2.709  -0.107  0.00  0.00    -0.078 Cl
ATOM      4  C   UNL     1       4.525  -1.158  -0.260  0.00  0.00    +0.109 A 
ATOM      5  N   UNL     1       5.192   0.043  -0.300  0.00  0.00    -0.327 N 
ATOM      6  H   UNL     1       6.202   0.065  -0.380  0.00  0.00    +0.168 HD
ATOM      7  C   UNL     1       4.568   1.265  -0.238  0.00  0.00    +0.252 A 
ATOM      8  O   UNL     1       5.177   2.326  -0.275  0.00  0.00    -0.268 OA
ATOM      9  C   UNL     1       3.087   1.235  -0.122  0.00  0.00    +0.117 A 
ENDROOT
BRANCH   1  10
ATOM     10  O   UNL     1       1.077  -0.046   0.020  0.00  0.00    -0.505 OA
ATOM     11  H   UNL     1       0.694   0.847   0.055  0.00  0.00    +0.292 HD
ENDBRANCH   1  10
TORSDOF 1
