REMARK  Name = 
REMARK  5 active torsions:
REMARK  status: ('A' for Active; 'I' for Inactive)
REMARK    1  A    between atoms: C_2  and  C_3
REMARK    2  A    between atoms: C_2  and  N_5
REMARK    3  A    between atoms: C_2  and  C_15
REMARK    4  A    between atoms: C_3  and  C_4
REMARK    5  A    between atoms: N_26  and  C_27
REMARK                            x       y       z     vdW  Elec       q    Type
REMARK                         _______ _______ _______ _____ _____    ______ ____
ROOT
ATOM      1  C   UNL     1       2.619   0.429   1.227  0.00  0.00    +0.138 A 
ATOM      2  N   UNL     1       2.418   1.750   1.615  0.00  0.00    -0.263 N 
ATOM      3  C   UNL     1       2.721   2.167   2.933  0.00  0.00    +0.269 A 
ATOM      4  O   UNL     1       2.454   3.275   3.396  0.00  0.00    -0.266 OA
ATOM      5  C   UNL     1       3.341   1.177   3.825  0.00  0.00    +0.100 A 
ATOM      6  C   UNL     1       3.506  -0.101   3.325  0.00  0.00    +0.081 A 
ATOM      7  C   UNL     1       4.049  -1.104   4.137  0.00  0.00    +0.029 A 
ATOM      8  C   UNL     1       4.450  -0.823   5.441  0.00  0.00    +0.005 A 
ATOM      9  C   UNL     1       4.302   0.467   5.935  0.00  0.00    +0.039 A 
ATOM     10  C   UNL     1       3.742   1.462   5.130  0.00  0.00    +0.138 A 
ATOM     11  F   UNL     1       3.615   2.690   5.651  0.00  0.00    -0.205 F 
ATOM     12  N   UNL     1       3.140  -0.443   2.035  0.00  0.00    -0.231 NA
ENDROOT
BRANCH   2  13
ATOM     13  C   UNL     1       1.882   2.777   0.772  0.00  0.00    +0.051 A 
ATOM     14  C   UNL     1       0.585   2.715   0.258  0.00  0.00    +0.026 A 
ATOM     15  C   UNL     1       0.027   3.834  -0.372  0.00  0.00    +0.002 A 
ATOM     16  C   UNL     1       0.763   5.014  -0.510  0.00  0.00    +0.000 A 
ATOM     17  C   UNL     1       2.069   5.073  -0.040  0.00  0.00    +0.002 A 
ATOM     18  C   UNL     1       2.623   3.962   0.600  0.00  0.00    +0.026 A 
ENDBRANCH   2  13
BRANCH   1  19
ATOM     19  C   UNL     1       2.228  -0.121  -0.189  0.00  0.00    +0.138 C 
BRANCH  19  20
ATOM     20  N   UNL     1       2.885   0.666  -1.245  0.00  0.00    -0.317 N 
ATOM     21  H   UNL     1       3.257   1.581  -1.002  0.00  0.00    +0.148 HD
ATOM     22  C   UNL     1       2.274   0.697  -2.501  0.00  0.00    +0.150 A 
ATOM     23  C   UNL     1       2.514   1.734  -3.426  0.00  0.00    +0.147 A 
ATOM     24  N   UNL     1       3.270   2.890  -3.367  0.00  0.00    -0.231 NA
ATOM     25  C   UNL     1       3.102   3.464  -4.541  0.00  0.00    +0.198 A 
ATOM     26  N   UNL     1       2.286   2.732  -5.357  0.00  0.00    -0.329 N 
ATOM     27  H   UNL     1       2.011   2.949  -6.303  0.00  0.00    +0.168 HD
ATOM     28  C   UNL     1       1.892   1.624  -4.658  0.00  0.00    +0.163 A 
ATOM     29  N   UNL     1       1.085   0.650  -5.095  0.00  0.00    -0.216 NA
ATOM     30  C   UNL     1       0.913  -0.279  -4.138  0.00  0.00    +0.225 A 
ATOM     31  N   UNL     1       1.434  -0.301  -2.892  0.00  0.00    -0.219 NA
ENDBRANCH  19  20
BRANCH  19  32
ATOM     32  C   UNL     1       2.667  -1.616  -0.377  0.00  0.00    +0.027 C 
ATOM     33  C   UNL     1       2.025  -2.654   0.544  0.00  0.00    +0.006 C 
ENDBRANCH  19  32
ENDBRANCH   1  19
TORSDOF 4
