REMARK  Name = 
REMARK  6 active torsions:
REMARK  status: ('A' for Active; 'I' for Inactive)
REMARK    1  A    between atoms: O_1  and  C_2
REMARK    2  A    between atoms: C_2  and  C_3
REMARK    3  A    between atoms: C_6  and  S_8
REMARK    4  A    between atoms: C_10  and  O_12
REMARK    5  A    between atoms: C_13  and  O_15
REMARK    6  A    between atoms: C_16  and  O_18
REMARK                            x       y       z     vdW  Elec       q    Type
REMARK                         _______ _______ _______ _____ _____    ______ ____
ROOT
ATOM      1  C   UNL     1       2.865  -0.891   1.182  0.00  0.00    +0.000 C 
ATOM      2  C   UNL     1       4.386  -1.110   0.951  0.00  0.00    +0.000 C 
ATOM      3  C   UNL     1       4.628  -2.003  -0.286  0.00  0.00    +0.000 C 
ATOM      4  C   UNL     1       3.805  -3.303  -0.122  0.00  0.00    +0.000 C 
ATOM      5  C   UNL     1       2.324  -2.937   0.110  0.00  0.00    +0.000 C 
ATOM      6  O   UNL     1       2.168  -2.130   1.271  0.00  0.00    +0.000 OA
ENDROOT
BRANCH   2   7
ATOM      7  O   UNL     1       4.915  -1.730   2.099  0.00  0.00    +0.000 OA
ATOM      8  H   UNL     1       5.903  -1.655   2.039  0.00  0.00    +0.000 HD
ENDBRANCH   2   7
BRANCH   3   9
ATOM      9  O   UNL     1       4.260  -1.290  -1.444  0.00  0.00    +0.000 OA
ATOM     10  H   UNL     1       4.099  -1.935  -2.180  0.00  0.00    +0.000 HD
ENDBRANCH   3   9
BRANCH   4  11
ATOM     11  O   UNL     1       4.304  -4.043   0.967  0.00  0.00    +0.000 OA
ATOM     12  H   UNL     1       4.128  -5.002   0.780  0.00  0.00    +0.000 HD
ENDBRANCH   4  11
BRANCH   5  13
ATOM     13  S   UNL     1       1.326  -4.444   0.332  0.00  0.00    +0.000 S 
ATOM     14 AU   UNL     1       1.876  -5.263  -1.757  0.00  0.00    +0.000 Au
ENDBRANCH   5  13
BRANCH   1  15
ATOM     15  C   UNL     1       2.192   0.099   0.203  0.00  0.00    +0.000 C 
BRANCH  15  16
ATOM     16  O   UNL     1       0.859   0.292   0.589  0.00  0.00    +0.000 OA
ATOM     17  H   UNL     1       0.422   0.788  -0.151  0.00  0.00    +0.000 HD
ENDBRANCH  15  16
ENDBRANCH   1  15
TORSDOF 6
