REMARK  Name = 
REMARK  13 active torsions:
REMARK  status: ('A' for Active; 'I' for Inactive)
REMARK    1  A    between atoms: C_2  and  C_3
REMARK    2  A    between atoms: C_2  and  N_7
REMARK    3  A    between atoms: C_2  and  B_22
REMARK    4  A    between atoms: C_3  and  C_4
REMARK    5  A    between atoms: C_4  and  C_5
REMARK    6  A    between atoms: C_4  and  C_6
REMARK    7  A    between atoms: C_8  and  O_9
REMARK    8  A    between atoms: C_8  and  C_10
REMARK    9  A    between atoms: C_10  and  N_11
REMARK   10  A    between atoms: C_12  and  O_13
REMARK   11  A    between atoms: C_12  and  C_14
REMARK   12  A    between atoms: B_22  and  O_23
REMARK   13  A    between atoms: B_22  and  O_24
REMARK                            x       y       z     vdW  Elec       q    Type
REMARK                         _______ _______ _______ _____ _____    ______ ____
ROOT
ATOM      1  N   UNL     1       2.649  -0.480   1.239  0.00  0.00    +0.000 NA
ATOM      2  C   UNL     1       2.185  -0.265   2.431  0.00  0.00    +0.000 C 
ENDROOT
BRANCH   2   3
ATOM      3  O   UNL     1       1.122   0.539   2.678  0.00  0.00    +0.000 OA
ATOM      4  H   UNL     1       0.701   1.120   2.032  0.00  0.00    +0.000 HD
ENDBRANCH   2   3
BRANCH   1   5
ATOM      5  C   UNL     1       2.085   0.003  -0.006  0.00  0.00    +0.000 C 
BRANCH   5   6
ATOM      6  B   UNL     1       2.047  -1.212  -1.061  0.00  0.00    +0.000 B 
BRANCH   6   7
ATOM      7  O   UNL     1       0.768  -1.728  -1.559  0.00  0.00    +0.000 OA
ATOM      8  H   UNL     1       0.167  -0.946  -1.649  0.00  0.00    +0.000 HD
ENDBRANCH   6   7
BRANCH   6   9
ATOM      9  O   UNL     1       3.296  -1.793  -1.556  0.00  0.00    +0.000 OA
ATOM     10  H   UNL     1       3.853  -1.956  -0.754  0.00  0.00    +0.000 HD
ENDBRANCH   6   9
ENDBRANCH   5   6
BRANCH   5  11
ATOM     11  C   UNL     1       2.951   1.173  -0.489  0.00  0.00    +0.000 C 
BRANCH  11  12
ATOM     12  C   UNL     1       2.509   1.836  -1.810  0.00  0.00    +0.000 C 
ATOM     13  C   UNL     1       3.511   2.939  -2.168  0.00  0.00    +0.000 C 
ATOM     14  C   UNL     1       1.095   2.428  -1.715  0.00  0.00    +0.000 C 
ENDBRANCH  11  12
ENDBRANCH   5  11
ENDBRANCH   1   5
BRANCH   2  15
ATOM     15  C   UNL     1       2.856  -0.923   3.591  0.00  0.00    +0.000 C 
BRANCH  15  16
ATOM     16  N   UNL     1       2.026  -2.012   4.051  0.00  0.00    +0.000 NA
ATOM     17  C   UNL     1       2.317  -2.805   5.033  0.00  0.00    +0.000 C 
BRANCH  17  18
ATOM     18  C   UNL     1       1.406  -3.954   5.336  0.00  0.00    +0.000 A 
ATOM     19  C   UNL     1       0.259  -4.154   4.527  0.00  0.00    +0.000 A 
ATOM     20  C   UNL     1      -0.611  -5.220   4.761  0.00  0.00    +0.000 A 
ATOM     21 CL   UNL     1      -2.022  -5.445   3.746  0.00  0.00    +0.000 Cl
ATOM     22  C   UNL     1      -0.354  -6.114   5.802  0.00  0.00    +0.000 A 
ATOM     23  C   UNL     1       0.771  -5.944   6.607  0.00  0.00    +0.000 A 
ATOM     24  C   UNL     1       1.653  -4.880   6.384  0.00  0.00    +0.000 A 
ATOM     25 CL   UNL     1       3.039  -4.781   7.471  0.00  0.00    +0.000 Cl
ENDBRANCH  17  18
BRANCH  17  26
ATOM     26  O   UNL     1       3.445  -2.619   5.763  0.00  0.00    +0.000 OA
ATOM     27  H   UNL     1       4.074  -1.898   5.626  0.00  0.00    +0.000 HD
ENDBRANCH  17  26
ENDBRANCH  15  16
ENDBRANCH   2  15
TORSDOF 11
