REMARK  Name = 
REMARK  19 active torsions:
REMARK  status: ('A' for Active; 'I' for Inactive)
REMARK    1  A    between atoms: C_1  and  O_2
REMARK    2  A    between atoms: O_2  and  C_3
REMARK    3  A    between atoms: C_3  and  C_4
REMARK    4  A    between atoms: C_4  and  O_5
REMARK    5  A    between atoms: N_6  and  C_7
REMARK    6  A    between atoms: C_10  and  C_11
REMARK    7  A    between atoms: C_11  and  O_12
REMARK    8  A    between atoms: N_13  and  C_14
REMARK    9  A    between atoms: C_14  and  C_15
REMARK   10  A    between atoms: C_15  and  O_16
REMARK   11  A    between atoms: C_15  and  C_17
REMARK   12  A    between atoms: C_17  and  O_18
REMARK   13  A    between atoms: C_21  and  C_22
REMARK   14  A    between atoms: N_24  and  C_25
REMARK   15  A    between atoms: N_24  and  C_26
REMARK   16  A    between atoms: C_26  and  C_27
REMARK   17  A    between atoms: C_27  and  O_28
REMARK   18  A    between atoms: C_27  and  C_29
REMARK   19  A    between atoms: C_29  and  O_30
REMARK                            x       y       z     vdW  Elec       q    Type
REMARK                         _______ _______ _______ _____ _____    ______ ____
ROOT
ATOM      1  C   UNL     1       6.492  -2.207  -1.770  0.00  0.00    +0.095 A 
ATOM      2  C   UNL     1       7.264  -1.499  -2.722  0.00  0.00    +0.053 A 
ATOM      3  I   UNL     1       6.324  -0.989  -4.596  0.00  0.00    -0.041 I 
ATOM      4  C   UNL     1       8.647  -1.248  -2.521  0.00  0.00    +0.066 A 
ATOM      5  C   UNL     1       9.263  -1.840  -1.391  0.00  0.00    +0.040 A 
ATOM      6  I   UNL     1      11.090  -0.995  -0.612  0.00  0.00    -0.042 I 
ATOM      7  C   UNL     1       8.584  -2.815  -0.610  0.00  0.00    +0.065 A 
ATOM      8  C   UNL     1       7.186  -2.951  -0.779  0.00  0.00    +0.053 A 
ATOM      9  I   UNL     1       6.027  -4.321   0.404  0.00  0.00    -0.041 I 
ENDROOT
BRANCH   4  10
ATOM     10  C   UNL     1       9.323  -0.231  -3.380  0.00  0.00    +0.249 C 
ATOM     11  N   UNL     1      10.494  -0.508  -4.103  0.00  0.00    -0.298 N 
ATOM     12  C   UNL     1      11.219  -1.777  -4.102  0.00  0.00    +0.132 C 
ATOM     13  O   UNL     1       8.793   0.880  -3.435  0.00  0.00    -0.270 OA
BRANCH  11  14
ATOM     14  C   UNL     1      11.107   0.575  -4.901  0.00  0.00    +0.141 C 
BRANCH  14  15
ATOM     15  C   UNL     1      10.913   0.385  -6.419  0.00  0.00    +0.157 C 
BRANCH  15  16
ATOM     16  O   UNL     1       9.535   0.499  -6.806  0.00  0.00    -0.388 OA
ATOM     17  H   UNL     1       9.090   1.083  -6.160  0.00  0.00    +0.210 HD
ENDBRANCH  15  16
BRANCH  15  18
ATOM     18  C   UNL     1      11.720   1.400  -7.240  0.00  0.00    +0.188 C 
BRANCH  18  19
ATOM     19  O   UNL     1      11.633   1.080  -8.632  0.00  0.00    -0.392 OA
ATOM     20  H   UNL     1      10.798   0.586  -8.751  0.00  0.00    +0.210 HD
ENDBRANCH  18  19
ENDBRANCH  15  18
ENDBRANCH  14  15
ENDBRANCH  11  14
ENDBRANCH   4  10
BRANCH   7  21
ATOM     21  C   UNL     1       9.393  -3.718   0.275  0.00  0.00    +0.217 C 
ATOM     22  N   UNL     1      10.475  -4.294  -0.115  0.00  0.00    -0.248 NA
BRANCH  21  23
ATOM     23  O   UNL     1       8.949  -3.866   1.541  0.00  0.00    -0.492 OA
ATOM     24  H   UNL     1       8.052  -3.513   1.676  0.00  0.00    +0.294 HD
ENDBRANCH  21  23
BRANCH  22  25
ATOM     25  C   UNL     1      11.216  -5.126   0.848  0.00  0.00    +0.179 C 
BRANCH  25  26
ATOM     26  C   UNL     1      12.187  -4.279   1.694  0.00  0.00    +0.161 C 
BRANCH  26  27
ATOM     27  O   UNL     1      11.497  -3.305   2.493  0.00  0.00    -0.388 OA
ATOM     28  H   UNL     1      10.593  -3.651   2.634  0.00  0.00    +0.210 HD
ENDBRANCH  26  27
BRANCH  26  29
ATOM     29  C   UNL     1      13.013  -5.150   2.653  0.00  0.00    +0.189 C 
BRANCH  29  30
ATOM     30  O   UNL     1      13.974  -4.370   3.371  0.00  0.00    -0.392 OA
ATOM     31  H   UNL     1      13.835  -3.438   3.117  0.00  0.00    +0.210 HD
ENDBRANCH  29  30
ENDBRANCH  26  29
ENDBRANCH  25  26
ENDBRANCH  22  25
ENDBRANCH   7  21
BRANCH   1  33
ATOM     32  C   UNL     1       4.367  -1.165  -1.649  0.00  0.00    +0.214 C 
ATOM     33  N   UNL     1       5.068  -2.255  -1.831  0.00  0.00    -0.213 NA
BRANCH  32  34
ATOM     34  O   UNL     1       4.936   0.037  -1.446  0.00  0.00    -0.494 OA
ATOM     35  H   UNL     1       4.292   0.763  -1.458  0.00  0.00    +0.293 HD
ENDBRANCH  32  34
BRANCH  32  36
ATOM     36  C   UNL     1       2.840  -1.163  -1.682  0.00  0.00    +0.254 C 
BRANCH  36  38
ATOM     37  C   UNL     1       0.860  -1.525  -0.450  0.00  0.00    +0.194 C 
ATOM     38  O   UNL     1       2.283  -1.428  -0.401  0.00  0.00    -0.374 OA
ENDBRANCH  36  38
ENDBRANCH  32  36
ENDBRANCH   1  33
TORSDOF 17
