REMARK  Name = 
REMARK  18 active torsions:
REMARK  status: ('A' for Active; 'I' for Inactive)
REMARK    1  A    between atoms: C_1  and  C_2
REMARK    2  A    between atoms: C_2  and  C_3
REMARK    3  A    between atoms: C_3  and  C_4
REMARK    4  A    between atoms: C_4  and  C_5
REMARK    5  A    between atoms: C_5  and  C_7
REMARK    6  A    between atoms: C_5  and  C_8
REMARK    7  A    between atoms: C_8  and  C_9
REMARK    8  A    between atoms: C_9  and  O_11
REMARK    9  A    between atoms: C_9  and  C_12
REMARK   10  A    between atoms: C_13  and  C_14
REMARK   11  A    between atoms: C_16  and  O_18
REMARK   12  A    between atoms: C_22  and  C_24
REMARK   13  A    between atoms: C_24  and  C_25
REMARK   14  A    between atoms: C_25  and  C_26
REMARK   15  A    between atoms: C_26  and  C_27
REMARK   16  A    between atoms: C_27  and  C_28
REMARK   17  A    between atoms: C_29  and  C_30
REMARK   18  A    between atoms: C_30  and  O_31
REMARK                            x       y       z     vdW  Elec       q    Type
REMARK                         _______ _______ _______ _____ _____    ______ ____
ROOT
ATOM      1  C   UNL     1      11.016  -5.168  -0.959  0.00  0.00    +0.051 C 
ATOM      2  C   UNL     1      11.517  -6.633  -0.981  0.00  0.00    +0.065 C 
ATOM      3  C   UNL     1      12.746  -6.550  -0.093  0.00  0.00    +0.140 C 
ATOM      4  O   UNL     1      13.571  -7.445   0.043  0.00  0.00    -0.297 OA
ATOM      5  C   UNL     1      12.867  -5.240   0.620  0.00  0.00    +0.106 C 
ATOM      6  C   UNL     1      11.480  -4.658   0.423  0.00  0.00    +0.129 C 
ENDROOT
BRANCH   6   7
ATOM      7  O   UNL     1      11.516  -3.239   0.491  0.00  0.00    -0.391 OA
ATOM      8  H   UNL     1      12.026  -2.896  -0.262  0.00  0.00    +0.210 HD
ENDBRANCH   6   7
BRANCH   1  10
ATOM      9  C   UNL     1       8.569  -4.671  -0.401  0.00  0.00    -0.000 C 
ATOM     10  C   UNL     1       9.525  -5.132  -1.228  0.00  0.00    -0.022 C 
BRANCH   9  11
ATOM     11  C   UNL     1       7.075  -4.806  -0.575  0.00  0.00    +0.137 C 
BRANCH  11  12
ATOM     12  O   UNL     1       6.785  -5.473  -1.804  0.00  0.00    -0.388 OA
ATOM     13  H   UNL     1       7.098  -4.891  -2.516  0.00  0.00    +0.210 HD
ENDBRANCH  11  12
BRANCH  11  14
ATOM     14  C   UNL     1       6.421  -5.636   0.549  0.00  0.00    +0.038 C 
BRANCH  14  15
ATOM     15  C   UNL     1       6.514  -5.070   1.984  0.00  0.00    -0.011 C 
ATOM     16  C   UNL     1       5.887  -3.674   2.087  0.00  0.00    +0.007 C 
BRANCH  15  17
ATOM     17  C   UNL     1       5.814  -5.993   3.012  0.00  0.00    +0.003 C 
BRANCH  17  18
ATOM     18  C   UNL     1       6.359  -7.422   3.136  0.00  0.00    -0.000 C 
BRANCH  18  20
ATOM     19  C   UNL     1       8.307  -8.922   3.694  0.00  0.00    +0.004 C 
ATOM     20  C   UNL     1       7.825  -7.484   3.566  0.00  0.00    -0.003 C 
ENDBRANCH  18  20
ENDBRANCH  17  18
ENDBRANCH  15  17
ENDBRANCH  14  15
ENDBRANCH  11  14
ENDBRANCH   9  11
ENDBRANCH   1  10
BRANCH   2  21
ATOM     21  C   UNL     1      11.841  -7.144  -2.391  0.00  0.00    +0.012 C 
BRANCH  21  22
ATOM     22  C   UNL     1      12.150  -8.647  -2.394  0.00  0.00    +0.001 C 
BRANCH  22  23
ATOM     23  C   UNL     1      12.479  -9.221  -3.771  0.00  0.00    +0.004 C 
BRANCH  23  24
ATOM     24  C   UNL     1      13.697  -8.564  -4.423  0.00  0.00    +0.027 C 
BRANCH  24  25
ATOM     25  C   UNL     1      14.006  -9.216  -5.739  0.00  0.00    -0.020 C 
ATOM     26  C   UNL     1      15.199  -9.773  -6.016  0.00  0.00    +0.087 C 
BRANCH  26  27
ATOM     27  C   UNL     1      15.565 -10.469  -7.266  0.00  0.00    +0.329 C 
ATOM     28  O   UNL     1      16.507 -11.243  -7.316  0.00  0.00    -0.246 OA
BRANCH  27  29
ATOM     29  O   UNL     1      14.806 -10.166  -8.335  0.00  0.00    -0.478 OA
ATOM     30  H   UNL     1      14.186  -9.431  -8.189  0.00  0.00    +0.295 HD
ENDBRANCH  27  29
ENDBRANCH  26  27
ENDBRANCH  24  25
ENDBRANCH  23  24
ENDBRANCH  22  23
ENDBRANCH  21  22
ENDBRANCH   2  21
TORSDOF 16
