REMARK  Name = 
REMARK  1 active torsions:
REMARK  status: ('A' for Active; 'I' for Inactive)
REMARK    1  A    between atoms: N_12  and  C_13
REMARK                            x       y       z     vdW  Elec       q    Type
REMARK                         _______ _______ _______ _____ _____    ______ ____
ROOT
ATOM      1  O   UNL     1       0.686  -0.760   1.410  0.00  0.00    -0.247 OA
ATOM      2  C   UNL     1       1.905  -0.809   1.505  0.00  0.00    +0.327 A 
ATOM      3  N   UNL     1       2.620  -1.957   1.320  0.00  0.00    -0.275 N 
ATOM      4  H   UNL     1       2.100  -2.766   1.011  0.00  0.00    +0.173 HD
ATOM      5  C   UNL     1       3.983  -2.026   1.238  0.00  0.00    +0.254 A 
ATOM      6  O   UNL     1       4.587  -3.009   0.826  0.00  0.00    -0.268 OA
ATOM      7  C   UNL     1       4.716  -0.798   1.613  0.00  0.00    +0.088 A 
ATOM      8  C   UNL     1       4.016   0.315   1.840  0.00  0.00    +0.092 A 
ATOM      9  N   UNL     1       2.652   0.313   1.769  0.00  0.00    -0.314 N 
ATOM     10  H   UNL     1       2.127   1.172   1.889  0.00  0.00    +0.170 HD
ENDROOT
TORSDOF 0
REMARK  Name = 
REMARK  1 active torsions:
REMARK  status: ('A' for Active; 'I' for Inactive)
REMARK    1  A    between atoms: N_12  and  C_13
REMARK                            x       y       z     vdW  Elec       q    Type
REMARK                         _______ _______ _______ _____ _____    ______ ____
ROOT
ATOM      1  F   UNL     1       0.946   0.757  -1.746  0.00  0.00    -0.198 F 
ATOM      2  C   UNL     1       2.288   0.695  -1.681  0.00  0.00    +0.204 A 
ATOM      3  C   UNL     1       2.922  -0.627  -1.847  0.00  0.00    +0.289 A 
ATOM      4  O   UNL     1       2.278  -1.665  -1.964  0.00  0.00    -0.265 OA
ATOM      5  N   UNL     1       4.292  -0.616  -1.818  0.00  0.00    -0.273 N 
ATOM      6  H   UNL     1       4.755  -1.512  -1.887  0.00  0.00    +0.174 HD
ATOM      7  C   UNL     1       5.085   0.463  -1.516  0.00  0.00    +0.331 A 
ATOM      8  O   UNL     1       6.304   0.332  -1.425  0.00  0.00    -0.246 OA
ATOM      9  N   UNL     1       4.417   1.663  -1.291  0.00  0.00    -0.271 N 
ATOM     10  C   UNL     1       3.042   1.761  -1.410  0.00  0.00    +0.137 A 
ENDROOT
BRANCH   9  11
ATOM     11  C   UNL     1       5.237   2.812  -0.945  0.00  0.00    +0.223 C 
ATOM     12  O   UNL     1       4.511   3.772  -0.156  0.00  0.00    -0.356 OA
ATOM     13  C   UNL     1       5.047   5.073  -0.461  0.00  0.00    +0.162 C 
ATOM     14  C   UNL     1       6.137   4.887  -1.501  0.00  0.00    +0.032 C 
ATOM     15  C   UNL     1       5.749   3.582  -2.148  0.00  0.00    +0.057 C 
ENDBRANCH   9  11
TORSDOF 1
