REMARK  Name = 
REMARK  6 active torsions:
REMARK  status: ('A' for Active; 'I' for Inactive)
REMARK    1  A    between atoms: C_1  and  C_2
REMARK    2  A    between atoms: C_2  and  O_3
REMARK    3  A    between atoms: O_3  and  C_4
REMARK    4  A    between atoms: C_4  and  N_6
REMARK    5  A    between atoms: N_6  and  C_7
REMARK    6  A    between atoms: N_9  and  N_12
REMARK                            x       y       z     vdW  Elec       q    Type
REMARK                         _______ _______ _______ _____ _____    ______ ____
ROOT
ATOM      1  C   UNL     1       6.341  -3.201   0.403  0.00  0.00    +0.132 A 
ATOM      2  O   UNL     1       7.382  -2.307   0.486  0.00  0.00    -0.322 OA
ATOM      3  N   UNL     1       8.593  -3.019   0.385  0.00  0.00    +0.229 NA
ATOM      4  N   UNL     1       8.224  -4.286   0.300  0.00  0.00    +0.060 N 
ATOM      5  C   UNL     1       6.864  -4.471   0.363  0.00  0.00    +0.401 A 
ENDROOT
BRANCH   4   6
ATOM      6  N   UNL     1       9.146  -5.319  -0.080  0.00  0.00    -0.106 N 
ATOM      7  C   UNL     1      10.571  -4.996  -0.034  0.00  0.00    +0.201 C 
ATOM      8  C   UNL     1      11.307  -5.999  -0.928  0.00  0.00    +0.184 C 
ATOM      9  O   UNL     1      11.058  -7.342  -0.496  0.00  0.00    -0.376 OA
ATOM     10  C   UNL     1       9.659  -7.646  -0.527  0.00  0.00    +0.184 C 
ATOM     11  C   UNL     1       8.875  -6.683   0.371  0.00  0.00    +0.201 C 
ENDBRANCH   4   6
BRANCH   1  12
ATOM     12  N   UNL     1       5.041  -2.856   0.308  0.00  0.00    -0.543 NA
BRANCH  12  13
ATOM     13  C   UNL     1       4.347  -3.529  -0.620  0.00  0.00    +0.230 C 
ATOM     14  O   UNL     1       4.765  -4.337  -1.446  0.00  0.00    -0.272 OA
BRANCH  13  15
ATOM     15  O   UNL     1       3.027  -3.181  -0.535  0.00  0.00    -0.478 OA
BRANCH  15  17
ATOM     16  C   UNL     1       1.764  -5.150  -1.229  0.00  0.00    +0.048 C 
ATOM     17  C   UNL     1       2.168  -3.722  -1.550  0.00  0.00    +0.227 C 
ENDBRANCH  15  17
ENDBRANCH  13  15
ENDBRANCH  12  13
ENDBRANCH   1  12
TORSDOF 5
