REMARK  Name = 
REMARK  6 active torsions:
REMARK  status: ('A' for Active; 'I' for Inactive)
REMARK    1  A    between atoms: C_2  and  C_5
REMARK    2  A    between atoms: C_7  and  N_8
REMARK    3  A    between atoms: N_8  and  C_9
REMARK    4  A    between atoms: C_10  and  C_15
REMARK    5  A    between atoms: C_15  and  O_17
REMARK    6  A    between atoms: O_17  and  C_18
REMARK                            x       y       z     vdW  Elec       q    Type
REMARK                         _______ _______ _______ _____ _____    ______ ____
ROOT
ATOM      1  C   UNL     1       3.694   1.112  -4.784  0.00  0.00    +0.137 A 
ATOM      2  N   UNL     1       4.575   1.714  -3.940  0.00  0.00    -0.239 NA
ATOM      3  C   UNL     1       4.620   3.062  -3.890  0.00  0.00    +0.113 A 
ATOM      4  C   UNL     1       3.818   3.878  -4.655  0.00  0.00    +0.021 A 
ATOM      5  C   UNL     1       2.928   3.273  -5.536  0.00  0.00    +0.020 A 
ATOM      6  C   UNL     1       2.858   1.870  -5.614  0.00  0.00    +0.099 A 
ENDROOT
BRANCH   1   7
ATOM      7  N   UNL     1       3.635  -0.296  -4.763  0.00  0.00    -0.299 N 
ATOM      8  H   UNL     1       2.710  -0.629  -4.520  0.00  0.00    +0.154 HD
BRANCH   7  13
ATOM      9  C   UNL     1       7.045  -1.789  -4.473  0.00  0.00    +0.057 A 
ATOM     10  C   UNL     1       6.741  -2.992  -3.823  0.00  0.00    +0.012 A 
ATOM     11  C   UNL     1       5.424  -3.290  -3.475  0.00  0.00    +0.002 A 
ATOM     12  C   UNL     1       4.397  -2.392  -3.779  0.00  0.00    +0.023 A 
ATOM     13  C   UNL     1       4.675  -1.181  -4.424  0.00  0.00    +0.033 A 
ATOM     14  C   UNL     1       6.003  -0.899  -4.769  0.00  0.00    +0.035 A 
BRANCH   9  16
ATOM     15  F   UNL     1       8.610  -0.241  -5.447  0.00  0.00    -0.166 F 
ATOM     16  C   UNL     1       8.465  -1.459  -4.851  0.00  0.00    +0.417 C 
ATOM     17  F   UNL     1       9.301  -1.446  -3.776  0.00  0.00    -0.166 F 
ATOM     18  F   UNL     1       8.996  -2.361  -5.724  0.00  0.00    -0.166 F 
ENDBRANCH   9  16
ENDBRANCH   7  13
ENDBRANCH   1   7
BRANCH   6  19
ATOM     19  C   UNL     1       1.978   1.221  -6.623  0.00  0.00    +0.346 C 
ATOM     20  O   UNL     1       2.151   0.116  -7.103  0.00  0.00    -0.245 OA
BRANCH  19  21
ATOM     21  O   UNL     1       0.965   2.058  -6.936  0.00  0.00    -0.417 OA
BRANCH  21  22
ATOM     22  C   UNL     1       0.054   1.581  -7.923  0.00  0.00    +0.403 C 
ATOM     23  C   UNL     1      -0.155   2.672  -8.905  0.00  0.00    +0.047 A 
ATOM     24  C   UNL     1      -1.455   3.118  -8.810  0.00  0.00    +0.069 A 
ATOM     25  C   UNL     1      -1.942   4.169  -9.567  0.00  0.00    +0.015 A 
ATOM     26  C   UNL     1      -1.061   4.782 -10.459  0.00  0.00    +0.001 A 
ATOM     27  C   UNL     1       0.262   4.324 -10.580  0.00  0.00    +0.001 A 
ATOM     28  C   UNL     1      -2.152   2.313  -7.819  0.00  0.00    +0.343 C 
ATOM     29  O   UNL     1      -3.317   2.422  -7.492  0.00  0.00    -0.245 OA
ATOM     30  C   UNL     1       0.725   3.259  -9.800  0.00  0.00    +0.012 A 
ATOM     31  O   UNL     1      -1.254   1.405  -7.341  0.00  0.00    -0.417 OA
ENDBRANCH  21  22
ENDBRANCH  19  21
ENDBRANCH   6  19
TORSDOF 6
