REMARK  Name = 
REMARK  6 active torsions:
REMARK  status: ('A' for Active; 'I' for Inactive)
REMARK    1  A    between atoms: O_1  and  C_2
REMARK    2  A    between atoms: C_2  and  C_3
REMARK    3  A    between atoms: C_6  and  O_7
REMARK    4  A    between atoms: C_8  and  O_10
REMARK    5  A    between atoms: C_11  and  O_13
REMARK    6  A    between atoms: C_14  and  O_16
REMARK                            x       y       z     vdW  Elec       q    Type
REMARK                         _______ _______ _______ _____ _____    ______ ____
ROOT
ATOM      1  C   UNL     1       2.793   0.808  -1.156  0.00  0.00    +0.178 C 
ATOM      2  C   UNL     1       3.204   2.196  -0.615  0.00  0.00    +0.177 C 
ATOM      3  C   UNL     1       2.008   3.113  -0.302  0.00  0.00    +0.179 C 
ATOM      4  C   UNL     1       0.988   3.092  -1.443  0.00  0.00    +0.201 C 
ATOM      5  C   UNL     1       0.646   1.652  -1.867  0.00  0.00    +0.279 C 
ATOM      6  O   UNL     1       1.798   0.889  -2.193  0.00  0.00    -0.341 OA
ENDROOT
BRANCH   2   7
ATOM      7  O   UNL     1       4.060   2.827  -1.587  0.00  0.00    -0.386 OA
ATOM      8  H   UNL     1       3.498   3.411  -2.144  0.00  0.00    +0.210 HD
ENDBRANCH   2   7
BRANCH   3   9
ATOM      9  O   UNL     1       1.394   2.803   0.947  0.00  0.00    -0.386 OA
ATOM     10  H   UNL     1       1.207   1.839   0.975  0.00  0.00    +0.210 HD
ENDBRANCH   3   9
BRANCH   4  11
ATOM     11  O   UNL     1       1.533   3.799  -2.576  0.00  0.00    -0.384 OA
ATOM     12  H   UNL     1       0.853   3.711  -3.280  0.00  0.00    +0.210 HD
ENDBRANCH   4  11
BRANCH   5  13
ATOM     13  O   UNL     1      -0.114   1.723  -3.070  0.00  0.00    -0.365 OA
ATOM     14  H   UNL     1       0.527   1.418  -3.736  0.00  0.00    +0.213 HD
ENDBRANCH   5  13
BRANCH   1  15
ATOM     15  C   UNL     1       2.400  -0.198  -0.057  0.00  0.00    +0.190 C 
BRANCH  15  16
ATOM     16  O   UNL     1       1.269   0.227   0.702  0.00  0.00    -0.392 OA
ATOM     17  H   UNL     1       0.975  -0.550   1.217  0.00  0.00    +0.210 HD
ENDBRANCH  15  16
ENDBRANCH   1  15
TORSDOF 6
