REMARK  Name = 
REMARK  4 active torsions:
REMARK  status: ('A' for Active; 'I' for Inactive)
REMARK    1  A    between atoms: C_1  and  C_2
REMARK    2  A    between atoms: N_4  and  C_5
REMARK    3  A    between atoms: C_8  and  C_9
REMARK    4  A    between atoms: C_9  and  O_10
REMARK                            x       y       z     vdW  Elec       q    Type
REMARK                         _______ _______ _______ _____ _____    ______ ____
ROOT
ATOM      1  C   UNL     1       4.602  -1.071   0.651  0.00  0.00    +0.061 A 
ATOM      2  C   UNL     1       5.278  -2.293   0.532  0.00  0.00    +0.037 A 
ATOM      3  I   UNL     1       4.265  -4.134   0.438  0.00  0.00    -0.042 I 
ATOM      4  C   UNL     1       6.668  -2.326   0.434  0.00  0.00    +0.031 A 
ATOM      5  C   UNL     1       7.407  -1.131   0.443  0.00  0.00    +0.029 A 
ATOM      6  I   UNL     1       9.481  -1.375   0.139  0.00  0.00    -0.043 I 
ATOM      7  C   UNL     1       6.760   0.106   0.627  0.00  0.00    +0.087 A 
ATOM      8  C   UNL     1       5.355   0.118   0.790  0.00  0.00    +0.051 A 
ATOM      9  I   UNL     1       4.390   1.871   1.619  0.00  0.00    -0.041 I 
ENDROOT
BRANCH   1  12
ATOM     10  C   UNL     1       1.005  -0.540  -0.268  0.00  0.00    +0.109 C 
ATOM     11  C   UNL     1       2.491  -0.316  -0.322  0.00  0.00    +0.214 C 
ATOM     12  N   UNL     1       3.183  -1.078   0.611  0.00  0.00    -0.284 N 
ATOM     13  H   UNL     1       2.747  -1.979   0.797  0.00  0.00    +0.155 HD
ATOM     14  O   UNL     1       3.011   0.419  -1.156  0.00  0.00    -0.276 OA
ENDBRANCH   1  12
BRANCH   7  15
ATOM     15  C   UNL     1       7.550   1.365   0.667  0.00  0.00    +0.339 C 
ATOM     16  O   UNL     1       8.554   1.511   1.340  0.00  0.00    -0.245 OA
BRANCH  15  17
ATOM     17  O   UNL     1       7.083   2.321  -0.166  0.00  0.00    -0.477 OA
ATOM     18  H   UNL     1       6.192   2.165  -0.540  0.00  0.00    +0.295 HD
ENDBRANCH  15  17
ENDBRANCH   7  15
TORSDOF 3
