REMARK  Name = 
REMARK  14 active torsions:
REMARK  status: ('A' for Active; 'I' for Inactive)
REMARK    1  A    between atoms: C_1  and  O_2
REMARK    2  A    between atoms: O_2  and  C_3
REMARK    3  A    between atoms: C_4  and  N_5
REMARK    4  A    between atoms: C_10  and  C_12
REMARK    5  A    between atoms: N_14  and  C_15
REMARK    6  A    between atoms: C_23  and  N_24
REMARK    7  A    between atoms: C_25  and  C_27
REMARK    8  A    between atoms: C_29  and  N_31
REMARK    9  A    between atoms: N_31  and  C_32
REMARK   10  A    between atoms: N_31  and  C_33
REMARK   11  A    between atoms: C_33  and  C_34
REMARK   12  A    between atoms: C_34  and  N_35
REMARK   13  A    between atoms: N_35  and  C_36
REMARK   14  A    between atoms: N_35  and  C_37
REMARK                            x       y       z     vdW  Elec       q    Type
REMARK                         _______ _______ _______ _____ _____    ______ ____
ROOT
ATOM      1  C   UNL     1       2.915   0.994  -0.931  0.00  0.00    +0.143 A 
ATOM      2  C   UNL     1       3.649   0.572  -2.057  0.00  0.00    +0.072 A 
ATOM      3  C   UNL     1       4.180   1.455  -3.031  0.00  0.00    +0.055 A 
ATOM      4  C   UNL     1       4.061   2.834  -2.743  0.00  0.00    +0.057 A 
ATOM      5  C   UNL     1       3.401   3.241  -1.576  0.00  0.00    +0.052 A 
ATOM      6  C   UNL     1       2.731   2.358  -0.719  0.00  0.00    +0.078 A 
ENDROOT
BRANCH   6   7
ATOM      7  N   UNL     1       1.938   2.876   0.323  0.00  0.00    -0.281 N 
ATOM      8  H   UNL     1       2.340   2.732   1.241  0.00  0.00    +0.155 HD
ATOM      9  C   UNL     1       1.309   4.126   0.339  0.00  0.00    +0.220 A 
ATOM     10  N   UNL     1       0.975   4.737  -0.812  0.00  0.00    -0.214 NA
ATOM     11  C   UNL     1       0.559   6.013  -0.757  0.00  0.00    +0.078 A 
ATOM     12  C   UNL     1       0.385   6.655   0.450  0.00  0.00    +0.048 A 
ATOM     13  C   UNL     1       0.662   5.921   1.578  0.00  0.00    +0.116 A 
ATOM     14  N   UNL     1       1.131   4.665   1.552  0.00  0.00    -0.223 NA
BRANCH  11  15
ATOM     15  C   UNL     1       0.350   6.696  -2.045  0.00  0.00    +0.026 A 
ATOM     16  C   UNL     1       0.461   6.212  -3.400  0.00  0.00    +0.009 A 
ATOM     17  C   UNL     1       0.767   4.960  -3.992  0.00  0.00    +0.010 A 
ATOM     18  C   UNL     1       0.795   4.825  -5.385  0.00  0.00    +0.001 A 
ATOM     19  C   UNL     1       0.523   5.911  -6.209  0.00  0.00    +0.002 A 
ATOM     20  C   UNL     1       0.221   7.159  -5.662  0.00  0.00    +0.026 A 
ATOM     21  C   UNL     1       0.196   7.284  -4.260  0.00  0.00    +0.049 A 
ATOM     22  N   UNL     1      -0.067   8.377  -3.468  0.00  0.00    -0.349 N 
ATOM     23  C   UNL     1      -0.378   9.703  -3.951  0.00  0.00    +0.149 C 
ATOM     24  C   UNL     1       0.022   8.040  -2.143  0.00  0.00    +0.096 A 
ENDBRANCH  11  15
ENDBRANCH   6   7
BRANCH   4  25
ATOM     25  N   UNL     1       4.453   3.819  -3.680  0.00  0.00    -0.280 N 
ATOM     26  H   UNL     1       4.571   3.471  -4.619  0.00  0.00    +0.155 HD
ATOM     27  C   UNL     1       4.645   5.165  -3.432  0.00  0.00    +0.241 C 
ATOM     28  O   UNL     1       4.661   5.725  -2.342  0.00  0.00    -0.271 OA
BRANCH  27  29
ATOM     29  C   UNL     1       4.930   5.933  -4.675  0.00  0.00    +0.060 C 
ATOM     30  C   UNL     1       5.129   7.257  -4.609  0.00  0.00    +0.013 C 
ENDBRANCH  27  29
ENDBRANCH   4  25
BRANCH   1  32
ATOM     31  C   UNL     1       1.258   0.175   0.590  0.00  0.00    +0.277 C 
ATOM     32  O   UNL     1       2.453  -0.039  -0.152  0.00  0.00    -0.493 OA
ENDBRANCH   1  32
BRANCH   3  33
ATOM     33  N   UNL     1       4.736   0.950  -4.211  0.00  0.00    -0.330 N 
ATOM     34  C   UNL     1       5.928   1.506  -4.838  0.00  0.00    +0.129 C 
BRANCH  33  35
ATOM     35  C   UNL     1       4.262  -0.336  -4.769  0.00  0.00    +0.120 C 
BRANCH  35  36
ATOM     36  C   UNL     1       2.784  -0.231  -5.212  0.00  0.00    +0.102 C 
BRANCH  36  37
ATOM     37  N   UNL     1       2.205  -1.443  -5.833  0.00  0.00    -0.307 NA
ATOM     38  C   UNL     1       0.820  -1.149  -6.227  0.00  0.00    +0.104 C 
ATOM     39  C   UNL     1       2.213  -2.583  -4.913  0.00  0.00    +0.104 C 
ENDBRANCH  36  37
ENDBRANCH  35  36
ENDBRANCH  33  35
ENDBRANCH   3  33
TORSDOF 9
