REMARK  Name = 
REMARK  7 active torsions:
REMARK  status: ('A' for Active; 'I' for Inactive)
REMARK    1  A    between atoms: C_2  and  C_8
REMARK    2  A    between atoms: C_8  and  O_9
REMARK    3  A    between atoms: C_8  and  C_10
REMARK    4  A    between atoms: C_8  and  C_20
REMARK    5  A    between atoms: C_10  and  C_11
REMARK    6  A    between atoms: C_12  and  O_13
REMARK    7  A    between atoms: O_13  and  C_14
REMARK                            x       y       z     vdW  Elec       q    Type
REMARK                         _______ _______ _______ _____ _____    ______ ____
ROOT
ATOM      1  C   UNL     1       2.593   0.420   1.268  0.00  0.00    +0.100 C 
ENDROOT
BRANCH   1   2
ATOM      2  C   UNL     1       1.860   0.202  -0.125  0.00  0.00    +0.164 C 
ATOM      3  O   UNL     1       0.438   0.409   0.139  0.00  0.00    -0.371 OA
ATOM      4  C   UNL     1      -0.358   0.138  -1.020  0.00  0.00    +0.175 C 
ATOM      5  C   UNL     1       0.019   1.107  -2.140  0.00  0.00    +0.109 C 
ATOM      6  N   UNL     1       1.436   0.964  -2.507  0.00  0.00    -0.311 NA
ATOM      7  H   UNL     1       1.578   0.025  -2.882  0.00  0.00    +0.122 HD
ATOM      8  C   UNL     1       2.276   1.121  -1.296  0.00  0.00    +0.115 C 
ENDBRANCH   1   2
BRANCH   1   9
ATOM      9  C   UNL     1       4.180   0.355   1.328  0.00  0.00    +0.028 C 
ATOM     10  C   UNL     1       4.765   0.352   2.771  0.00  0.00    +0.034 C 
ATOM     11  C   UNL     1       4.806   1.743   3.396  0.00  0.00    +0.160 C 
ATOM     12  O   UNL     1       5.609   2.613   2.601  0.00  0.00    -0.380 OA
ATOM     13  C   UNL     1       5.084   2.772   1.287  0.00  0.00    +0.160 C 
ATOM     14  C   UNL     1       4.984   1.433   0.569  0.00  0.00    +0.034 C 
ENDBRANCH   1   9
BRANCH   1  15
ATOM     15  O   UNL     1       2.216   1.751   1.693  0.00  0.00    -0.385 OA
ATOM     16  H   UNL     1       1.282   1.865   1.421  0.00  0.00    +0.210 HD
ENDBRANCH   1  15
BRANCH   1  17
ATOM     17  C   UNL     1       1.937  -0.585   2.309  0.00  0.00    +0.076 C 
BRANCH  17  18
ATOM     18  C   UNL     1       2.181  -2.091   2.203  0.00  0.00    -0.000 A 
ATOM     19  C   UNL     1       2.885  -2.679   1.132  0.00  0.00    +0.045 A 
ATOM     20  C   UNL     1       3.084  -4.051   1.051  0.00  0.00    +0.124 A 
ATOM     21  F   UNL     1       3.757  -4.553   0.008  0.00  0.00    -0.205 F 
ATOM     22  C   UNL     1       2.594  -4.890   2.027  0.00  0.00    +0.042 A 
ATOM     23  C   UNL     1       1.886  -4.347   3.099  0.00  0.00    +0.049 A 
ATOM     24  C   UNL     1       1.672  -2.959   3.197  0.00  0.00    +0.124 A 
BRANCH  24  25
ATOM     25  O   UNL     1       0.969  -2.373   4.221  0.00  0.00    -0.495 OA
ATOM     26  C   UNL     1       0.408  -3.245   5.201  0.00  0.00    +0.277 C 
ENDBRANCH  24  25
ENDBRANCH  17  18
ENDBRANCH   1  17
TORSDOF 6
