REMARK  Name = 
REMARK  21 active torsions:
REMARK  status: ('A' for Active; 'I' for Inactive)
REMARK    1  A    between atoms: C_4  and  N_5
REMARK    2  A    between atoms: C_4  and  C_10
REMARK    3  A    between atoms: C_4  and  C_13
REMARK    4  A    between atoms: C_6  and  O_7
REMARK    5  A    between atoms: C_6  and  O_8
REMARK    6  A    between atoms: O_8  and  C_9
REMARK    7  A    between atoms: C_10  and  C_11
REMARK    8  A    between atoms: C_10  and  C_12
REMARK    9  A    between atoms: C_19  and  C_21
REMARK   10  A    between atoms: C_24  and  C_26
REMARK   11  A    between atoms: C_29  and  C_32
REMARK   12  A    between atoms: C_35  and  C_38
REMARK   13  A    between atoms: C_41  and  C_43
REMARK   14  A    between atoms: C_49  and  C_51
REMARK   15  A    between atoms: C_51  and  N_53
REMARK   16  A    between atoms: C_51  and  C_58
REMARK   17  A    between atoms: C_54  and  O_55
REMARK   18  A    between atoms: C_54  and  O_56
REMARK   19  A    between atoms: O_56  and  C_57
REMARK   20  A    between atoms: C_58  and  C_59
REMARK   21  A    between atoms: C_58  and  C_60
REMARK                            x       y       z     vdW  Elec       q    Type
REMARK                         _______ _______ _______ _____ _____    ______ ____
ROOT
ATOM      1 CL   UNL     1       0.889   1.320  -1.156  0.00  0.00    -0.145 Cl
ATOM      2  H   UNL     1       2.180   0.966  -0.840  0.00  0.00    +0.145 HD
ENDROOT
TORSDOF 0
REMARK  Name = 
REMARK  21 active torsions:
REMARK  status: ('A' for Active; 'I' for Inactive)
REMARK    1  A    between atoms: C_4  and  N_5
REMARK    2  A    between atoms: C_4  and  C_10
REMARK    3  A    between atoms: C_4  and  C_13
REMARK    4  A    between atoms: C_6  and  O_7
REMARK    5  A    between atoms: C_6  and  O_8
REMARK    6  A    between atoms: O_8  and  C_9
REMARK    7  A    between atoms: C_10  and  C_11
REMARK    8  A    between atoms: C_10  and  C_12
REMARK    9  A    between atoms: C_19  and  C_21
REMARK   10  A    between atoms: C_24  and  C_26
REMARK   11  A    between atoms: C_29  and  C_32
REMARK   12  A    between atoms: C_35  and  C_38
REMARK   13  A    between atoms: C_41  and  C_43
REMARK   14  A    between atoms: C_49  and  C_51
REMARK   15  A    between atoms: C_51  and  N_53
REMARK   16  A    between atoms: C_51  and  C_58
REMARK   17  A    between atoms: C_54  and  O_55
REMARK   18  A    between atoms: C_54  and  O_56
REMARK   19  A    between atoms: O_56  and  C_57
REMARK   20  A    between atoms: C_58  and  C_59
REMARK   21  A    between atoms: C_58  and  C_60
REMARK                            x       y       z     vdW  Elec       q    Type
REMARK                         _______ _______ _______ _____ _____    ______ ____
ROOT
ATOM      1 CL   UNL     1       1.277  -1.342   1.218  0.00  0.00    -0.145 Cl
ATOM      2  H   UNL     1       2.507  -0.882   0.808  0.00  0.00    +0.145 HD
ENDROOT
TORSDOF 0
REMARK  Name = 
REMARK  21 active torsions:
REMARK  status: ('A' for Active; 'I' for Inactive)
REMARK    1  A    between atoms: C_4  and  N_5
REMARK    2  A    between atoms: C_4  and  C_10
REMARK    3  A    between atoms: C_4  and  C_13
REMARK    4  A    between atoms: C_6  and  O_7
REMARK    5  A    between atoms: C_6  and  O_8
REMARK    6  A    between atoms: O_8  and  C_9
REMARK    7  A    between atoms: C_10  and  C_11
REMARK    8  A    between atoms: C_10  and  C_12
REMARK    9  A    between atoms: C_19  and  C_21
REMARK   10  A    between atoms: C_24  and  C_26
REMARK   11  A    between atoms: C_29  and  C_32
REMARK   12  A    between atoms: C_35  and  C_38
REMARK   13  A    between atoms: C_41  and  C_43
REMARK   14  A    between atoms: C_49  and  C_51
REMARK   15  A    between atoms: C_51  and  N_53
REMARK   16  A    between atoms: C_51  and  C_58
REMARK   17  A    between atoms: C_54  and  O_55
REMARK   18  A    between atoms: C_54  and  O_56
REMARK   19  A    between atoms: O_56  and  C_57
REMARK   20  A    between atoms: C_58  and  C_59
REMARK   21  A    between atoms: C_58  and  C_60
REMARK                            x       y       z     vdW  Elec       q    Type
REMARK                         _______ _______ _______ _____ _____    ______ ____
ROOT
ATOM      1  C   UNL     1      23.763   4.041  10.968  0.00  0.00    -0.000 A 
ATOM      2  C   UNL     1      23.904   3.439  12.221  0.00  0.00    +0.010 A 
ATOM      3  C   UNL     1      23.004   2.471  12.662  0.00  0.00    +0.009 A 
ATOM      4  C   UNL     1      21.919   2.035  11.862  0.00  0.00    -0.018 A 
ATOM      5  C   UNL     1      21.826   2.597  10.563  0.00  0.00    +0.009 A 
ATOM      6  C   UNL     1      22.726   3.593  10.130  0.00  0.00    +0.010 A 
ENDROOT
BRANCH   1  10
ATOM      7  C   UNL     1      26.296   6.583  10.644  0.00  0.00    +0.128 A 
ATOM      8  N   UNL     1      25.843   5.439  11.197  0.00  0.00    -0.340 N 
ATOM      9  H   UNL     1      26.322   4.874  11.930  0.00  0.00    +0.167 HD
ATOM     10  C   UNL     1      24.661   5.179  10.607  0.00  0.00    +0.066 A 
ATOM     11  C   UNL     1      24.424   6.183   9.684  0.00  0.00    +0.139 A 
ATOM     12  N   UNL     1      25.447   7.070   9.715  0.00  0.00    -0.238 NA
BRANCH   7  15
ATOM     13  C   UNL     1      27.217   8.540  13.101  0.00  0.00    +0.241 C 
ATOM     14  N   UNL     1      27.745   7.445  12.463  0.00  0.00    -0.290 N 
ATOM     15  C   UNL     1      27.625   7.213  11.021  0.00  0.00    +0.142 C 
ATOM     16  C   UNL     1      28.785   6.249  10.687  0.00  0.00    +0.032 C 
ATOM     17  C   UNL     1      29.711   6.380  11.896  0.00  0.00    +0.021 C 
ATOM     18  C   UNL     1      28.698   6.501  13.018  0.00  0.00    +0.108 C 
ATOM     19  O   UNL     1      26.511   9.301  12.454  0.00  0.00    -0.273 OA
BRANCH  13  20
ATOM     20  C   UNL     1      27.473   8.859  14.591  0.00  0.00    +0.200 C 
BRANCH  20  21
ATOM     21  C   UNL     1      26.780  10.147  15.168  0.00  0.00    +0.017 C 
ATOM     22  C   UNL     1      25.248  10.080  15.162  0.00  0.00    +0.010 C 
ATOM     23  C   UNL     1      27.267  11.452  14.504  0.00  0.00    +0.010 C 
ENDBRANCH  20  21
BRANCH  20  24
ATOM     24  N   UNL     1      28.899   9.014  14.851  0.00  0.00    -0.204 NA
ATOM     25  C   UNL     1      29.547   8.595  15.897  0.00  0.00    +0.384 C 
BRANCH  25  26
ATOM     26  O   UNL     1      30.866   8.890  15.998  0.00  0.00    -0.453 OA
ATOM     27  C   UNL     1      31.650   8.502  17.067  0.00  0.00    +0.282 C 
ENDBRANCH  25  26
BRANCH  25  28
ATOM     28  O   UNL     1      28.947   7.911  16.907  0.00  0.00    -0.466 OA
ATOM     29  H   UNL     1      28.016   7.666  16.956  0.00  0.00    +0.297 HD
ENDBRANCH  25  28
ENDBRANCH  20  24
ENDBRANCH  13  20
ENDBRANCH   7  15
ENDBRANCH   1  10
BRANCH   4  30
ATOM     30  C   UNL     1      20.849   1.106  12.430  0.00  0.00    -0.018 A 
ATOM     31  C   UNL     1      20.870   0.751  13.799  0.00  0.00    +0.009 A 
ATOM     32  C   UNL     1      19.814   0.075  14.397  0.00  0.00    +0.010 A 
ATOM     33  C   UNL     1      18.686  -0.311  13.667  0.00  0.00    -0.000 A 
ATOM     34  C   UNL     1      18.674  -0.062  12.283  0.00  0.00    +0.010 A 
ATOM     35  C   UNL     1      19.734   0.651  11.675  0.00  0.00    +0.009 A 
BRANCH  33  36
ATOM     36  C   UNL     1      17.510  -0.862  14.406  0.00  0.00    +0.066 A 
ATOM     37  N   UNL     1      17.265  -0.551  15.693  0.00  0.00    -0.340 N 
ATOM     38  H   UNL     1      17.845   0.064  16.301  0.00  0.00    +0.167 HD
ATOM     39  C   UNL     1      16.083  -1.109  16.013  0.00  0.00    +0.128 A 
ATOM     40  N   UNL     1      15.556  -1.789  14.969  0.00  0.00    -0.238 NA
ATOM     41  C   UNL     1      16.447  -1.629  13.957  0.00  0.00    +0.139 A 
BRANCH  39  42
ATOM     42  C   UNL     1      15.373  -0.842  17.341  0.00  0.00    +0.142 C 
ATOM     43  N   UNL     1      14.487  -1.932  17.723  0.00  0.00    -0.290 N 
ATOM     44  C   UNL     1      13.169  -2.111  17.356  0.00  0.00    +0.241 C 
ATOM     45  O   UNL     1      12.578  -3.073  17.825  0.00  0.00    -0.273 OA
ATOM     46  C   UNL     1      15.114  -2.783  18.726  0.00  0.00    +0.108 C 
ATOM     47  C   UNL     1      16.546  -2.270  18.838  0.00  0.00    +0.021 C 
ATOM     48  C   UNL     1      16.350  -0.804  18.535  0.00  0.00    +0.032 C 
BRANCH  44  49
ATOM     49  C   UNL     1      12.351  -1.118  16.502  0.00  0.00    +0.200 C 
BRANCH  49  50
ATOM     50  C   UNL     1      10.895  -0.896  17.066  0.00  0.00    +0.017 C 
ATOM     51  C   UNL     1      10.060   0.035  16.171  0.00  0.00    +0.010 C 
ATOM     52  C   UNL     1      10.899  -0.324  18.496  0.00  0.00    +0.010 C 
ENDBRANCH  49  50
BRANCH  49  53
ATOM     53  N   UNL     1      12.339  -1.457  15.073  0.00  0.00    -0.204 NA
ATOM     54  C   UNL     1      11.863  -2.513  14.473  0.00  0.00    +0.384 C 
BRANCH  54  55
ATOM     55  O   UNL     1      11.895  -2.621  13.117  0.00  0.00    -0.453 OA
ATOM     56  C   UNL     1      12.190  -1.630  12.200  0.00  0.00    +0.282 C 
ENDBRANCH  54  55
BRANCH  54  57
ATOM     57  O   UNL     1      11.298  -3.539  15.140  0.00  0.00    -0.466 OA
ATOM     58  H   UNL     1      11.166  -3.591  16.087  0.00  0.00    +0.297 HD
ENDBRANCH  54  57
ENDBRANCH  49  53
ENDBRANCH  44  49
ENDBRANCH  39  42
ENDBRANCH  33  36
ENDBRANCH   4  30
TORSDOF 15
