REMARK  Name = 
REMARK  7 active torsions:
REMARK  status: ('A' for Active; 'I' for Inactive)
REMARK    1  A    between atoms: C_1  and  C_2
REMARK    2  A    between atoms: C_2  and  N_4
REMARK    3  A    between atoms: C_2  and  C_11
REMARK    4  A    between atoms: C_11  and  O_12
REMARK    5  A    between atoms: C_11  and  C_13
REMARK    6  A    between atoms: C_11  and  C_19
REMARK    7  A    between atoms: C_13  and  N_14
REMARK                            x       y       z     vdW  Elec       q    Type
REMARK                         _______ _______ _______ _____ _____    ______ ____
ROOT
ATOM      1  C   UNL     1       3.318  -1.289  -1.472  0.00  0.00    +0.128 C 
ENDROOT
BRANCH   1   2
ATOM      2  C   UNL     1       4.823  -1.559  -1.624  0.00  0.00    +0.022 A 
ATOM      3  C   UNL     1       5.462  -2.678  -1.067  0.00  0.00    +0.012 A 
ATOM      4  C   UNL     1       6.793  -2.977  -1.380  0.00  0.00    +0.039 A 
ATOM      5  C   UNL     1       7.510  -2.144  -2.227  0.00  0.00    +0.126 A 
ATOM      6  F   UNL     1       8.762  -2.469  -2.570  0.00  0.00    -0.205 F 
ATOM      7  C   UNL     1       6.943  -0.984  -2.725  0.00  0.00    +0.077 A 
ATOM      8  C   UNL     1       5.622  -0.693  -2.400  0.00  0.00    +0.132 A 
ATOM      9  F   UNL     1       5.090   0.435  -2.891  0.00  0.00    -0.205 F 
ENDBRANCH   1   2
BRANCH   1  11
ATOM     10  C   UNL     1       1.071  -1.783  -0.227  0.00  0.00    +0.027 C 
ATOM     11  C   UNL     1       2.477  -2.332  -0.561  0.00  0.00    +0.092 C 
BRANCH  11  12
ATOM     12  N   UNL     1       2.521  -3.786  -0.869  0.00  0.00    -0.296 NA
ATOM     13  C   UNL     1       1.868  -4.330  -2.059  0.00  0.00    +0.089 C 
ATOM     14  C   UNL     1       0.361  -4.597  -1.997  0.00  0.00    +0.045 C 
ATOM     15  C   UNL     1      -0.106  -5.209  -0.703  0.00  0.00    -0.074 C 
ATOM     16  C   UNL     1      -1.248  -5.915  -0.651  0.00  0.00    +0.008 C 
ATOM     17  C   UNL     1       0.723  -4.961   0.534  0.00  0.00    +0.045 C 
ATOM     18  C   UNL     1       2.214  -4.671   0.273  0.00  0.00    +0.089 C 
ENDBRANCH  11  12
ENDBRANCH   1  11
BRANCH   1  19
ATOM     19  O   UNL     1       3.294  -0.054  -0.682  0.00  0.00    -0.380 OA
ATOM     20  H   UNL     1       3.792   0.634  -1.160  0.00  0.00    +0.211 HD
ENDBRANCH   1  19
BRANCH   1  21
ATOM     21  C   UNL     1       2.605  -0.939  -2.818  0.00  0.00    +0.186 C 
BRANCH  21  22
ATOM     22  N   UNL     1       2.762  -1.750  -4.003  0.00  0.00    -0.249 N 
ATOM     23  N   UNL     1       1.767  -1.732  -4.920  0.00  0.00    -0.158 NA
ATOM     24  C   UNL     1       2.239  -2.551  -5.855  0.00  0.00    +0.244 A 
ATOM     25  N   UNL     1       3.466  -3.086  -5.596  0.00  0.00    -0.223 NA
ATOM     26  C   UNL     1       3.771  -2.558  -4.429  0.00  0.00    +0.219 A 
ENDBRANCH  21  22
ENDBRANCH   1  21
TORSDOF 6
