REMARK  Name = 
REMARK  12 active torsions:
REMARK  status: ('A' for Active; 'I' for Inactive)
REMARK    1  A    between atoms: O_3  and  C_4
REMARK    2  A    between atoms: C_4  and  C_6
REMARK    3  A    between atoms: C_6  and  N_9
REMARK    4  A    between atoms: N_9  and  C_10
REMARK    5  A    between atoms: N_9  and  C_17
REMARK    6  A    between atoms: C_10  and  C_13
REMARK    7  A    between atoms: C_13  and  O_15
REMARK    8  A    between atoms: C_17  and  C_20
REMARK    9  A    between atoms: N_22  and  C_24
REMARK   10  A    between atoms: C_25  and  C_40
REMARK   11  A    between atoms: C_28  and  C_36
REMARK   12  A    between atoms: C_31  and  C_32
REMARK                            x       y       z     vdW  Elec       q    Type
REMARK                         _______ _______ _______ _____ _____    ______ ____
ROOT
ATOM      1 TC   UNL     1       0.387   0.616  -1.329  0.00  0.00    +0.000 Tc
ENDROOT
TORSDOF 0
REMARK  Name = 
REMARK  12 active torsions:
REMARK  status: ('A' for Active; 'I' for Inactive)
REMARK    1  A    between atoms: O_3  and  C_4
REMARK    2  A    between atoms: C_4  and  C_6
REMARK    3  A    between atoms: C_6  and  N_9
REMARK    4  A    between atoms: N_9  and  C_10
REMARK    5  A    between atoms: N_9  and  C_17
REMARK    6  A    between atoms: C_10  and  C_13
REMARK    7  A    between atoms: C_13  and  O_15
REMARK    8  A    between atoms: C_17  and  C_20
REMARK    9  A    between atoms: N_22  and  C_24
REMARK   10  A    between atoms: C_25  and  C_40
REMARK   11  A    between atoms: C_28  and  C_36
REMARK   12  A    between atoms: C_31  and  C_32
REMARK                            x       y       z     vdW  Elec       q    Type
REMARK                         _______ _______ _______ _____ _____    ______ ____
ROOT
ATOM      1  C   UNL     1       6.783  -1.821  -3.565  0.00  0.00    +0.000 C 
ATOM      2  N   UNL     1       8.095  -1.733  -3.925  0.00  0.00    +0.000 N 
ATOM      3  H   UNL     1       8.702  -1.049  -3.447  0.00  0.00    +0.000 HD
ATOM      4  O   UNL     1       6.011  -2.539  -4.187  0.00  0.00    +0.000 OA
ENDROOT
BRANCH   2   5
ATOM      5  C   UNL     1       8.565  -2.330  -5.124  0.00  0.00    +0.000 A 
ATOM      6  C   UNL     1       8.911  -3.699  -5.169  0.00  0.00    +0.000 A 
ATOM      7  C   UNL     1       8.890  -4.581  -3.951  0.00  0.00    +0.000 C 
ATOM      8  C   UNL     1       9.307  -4.263  -6.386  0.00  0.00    +0.000 A 
ATOM      9  C   UNL     1       9.366  -3.495  -7.556  0.00  0.00    +0.000 A 
ATOM     10  C   UNL     1       9.771  -4.144  -8.851  0.00  0.00    +0.000 C 
ATOM     11  C   UNL     1       9.042  -2.125  -7.509  0.00  0.00    +0.000 A 
ATOM     12 BR   UNL     1       9.130  -1.060  -9.118  0.00  0.00    +0.000 Br
ATOM     13  C   UNL     1       8.644  -1.537  -6.292  0.00  0.00    +0.000 A 
ATOM     14  C   UNL     1       8.282  -0.066  -6.260  0.00  0.00    +0.000 C 
ENDBRANCH   2   5
BRANCH   1  15
ATOM     15  C   UNL     1       6.248  -0.963  -2.449  0.00  0.00    +0.000 C 
BRANCH  15  16
ATOM     16  N   UNL     1       5.580  -1.738  -1.374  0.00  0.00    +0.000 NA
BRANCH  16  17
ATOM     17  C   UNL     1       6.542  -2.689  -0.765  0.00  0.00    +0.000 C 
BRANCH  17  18
ATOM     18  C   UNL     1       5.920  -3.536   0.312  0.00  0.00    +0.000 C 
ATOM     19  O   UNL     1       6.370  -3.504   1.447  0.00  0.00    +0.000 OA
BRANCH  18  21
ATOM     20  H   UNL     1       4.481  -4.908   0.698  0.00  0.00    +0.000 HD
ATOM     21  O   UNL     1       4.878  -4.342   0.020  0.00  0.00    +0.000 OA
ENDBRANCH  18  21
ENDBRANCH  17  18
ENDBRANCH  16  17
BRANCH  16  22
ATOM     22  C   UNL     1       5.052  -0.797  -0.352  0.00  0.00    +0.000 C 
BRANCH  22  23
ATOM     23  C   UNL     1       4.022   0.137  -0.932  0.00  0.00    +0.000 C 
ATOM     24  O   UNL     1       2.994  -0.311  -1.415  0.00  0.00    +0.000 OA
BRANCH  23  25
ATOM     25  O   UNL     1       4.256   1.467  -0.944  0.00  0.00    +0.000 OA
ATOM     26  H   UNL     1       3.633   2.088  -1.347  0.00  0.00    +0.000 HD
ENDBRANCH  23  25
ENDBRANCH  22  23
ENDBRANCH  16  22
ENDBRANCH  15  16
ENDBRANCH   1  15
TORSDOF 9
