REMARK  Name = 
REMARK  23 active torsions:
REMARK  status: ('A' for Active; 'I' for Inactive)
REMARK    1  A    between atoms: C_3  and  C_5
REMARK    2  A    between atoms: C_8  and  C_10
REMARK    3  A    between atoms: C_12  and  C_13
REMARK    4  A    between atoms: C_12  and  O_67
REMARK    5  A    between atoms: C_15  and  O_17
REMARK    6  A    between atoms: O_17  and  C_18
REMARK    7  A    between atoms: C_21  and  C_23
REMARK    8  A    between atoms: C_25  and  N_30
REMARK    9  A    between atoms: C_27  and  O_29
REMARK   10  A    between atoms: N_30  and  C_31
REMARK   11  A    between atoms: N_30  and  C_32
REMARK   12  A    between atoms: C_35  and  C_36
REMARK   13  A    between atoms: C_41  and  C_43
REMARK   14  A    between atoms: C_43  and  C_44
REMARK   15  A    between atoms: C_45  and  C_46
REMARK   16  A    between atoms: N_50  and  C_51
REMARK   17  A    between atoms: C_51  and  C_52
REMARK   18  A    between atoms: C_52  and  C_53
REMARK   19  A    between atoms: C_53  and  C_54
REMARK   20  A    between atoms: C_54  and  N_55
REMARK   21  A    between atoms: C_57  and  C_60
REMARK   22  A    between atoms: C_64  and  N_65
REMARK   23  A    between atoms: O_67  and  C_68
REMARK                            x       y       z     vdW  Elec       q    Type
REMARK                         _______ _______ _______ _____ _____    ______ ____
ROOT
ATOM      1  C   UNL     1      -0.000  -0.000  -0.000  0.00  0.00    +0.136 C 
ATOM      2  N   UNL     1      -0.000  -0.000  -0.000  0.00  0.00    -0.260 N 
ATOM      3  C   UNL     1      -0.000  -0.000  -0.000  0.00  0.00    +0.404 C 
ATOM      4  O   UNL     1      -0.000  -0.000  -0.000  0.00  0.00    -0.226 OA
ATOM      5  O   UNL     1      -0.000  -0.000  -0.000  0.00  0.00    -0.438 OA
ATOM      6  C   UNL     1      -0.000  -0.000  -0.000  0.00  0.00    +0.168 C 
ATOM      7  C   UNL     1      -0.000  -0.000  -0.000  0.00  0.00    +0.062 C 
ATOM      8  C   UNL     1      -0.000  -0.000  -0.000  0.00  0.00    +0.221 C 
ATOM      9  O   UNL     1      -0.000  -0.000  -0.000  0.00  0.00    -0.455 OA
ATOM     10  C   UNL     1      -0.000  -0.000  -0.000  0.00  0.00    +0.352 C 
ATOM     11  O   UNL     1      -0.000  -0.000  -0.000  0.00  0.00    -0.247 OA
ATOM     12  C   UNL     1      -0.000  -0.000  -0.000  0.00  0.00    +0.264 C 
ATOM     13  F   UNL     1      -0.000  -0.000  -0.000  0.00  0.00    -0.222 F 
ATOM     14  C   UNL     1      -0.000  -0.000  -0.000  0.00  0.00    +0.068 C 
ATOM     15  C   UNL     1      -0.000  -0.000  -0.000  0.00  0.00    +0.209 C 
ATOM     16  O   UNL     1      -0.000  -0.000  -0.000  0.00  0.00    -0.291 OA
ATOM     17  C   UNL     1      -0.000  -0.000  -0.000  0.00  0.00    +0.194 C 
ATOM     18  C   UNL     1      -0.000  -0.000  -0.000  0.00  0.00    +0.074 C 
ATOM     19  C   UNL     1      -0.000  -0.000  -0.000  0.00  0.00    +0.070 C 
ATOM     20  C   UNL     1      -0.000  -0.000  -0.000  0.00  0.00    +0.041 C 
ATOM     21  C   UNL     1      -0.000  -0.000  -0.000  0.00  0.00    +0.045 C 
ATOM     22  C   UNL     1      -0.000  -0.000  -0.000  0.00  0.00    +0.055 C 
ATOM     23  C   UNL     1      -0.000  -0.000  -0.000  0.00  0.00    +0.015 C 
ATOM     24  C   UNL     1      -0.000  -0.000  -0.000  0.00  0.00    +0.141 C 
ATOM     25  O   UNL     1      -0.000  -0.000  -0.000  0.00  0.00    -0.297 OA
ATOM     26  C   UNL     1      -0.000  -0.000  -0.000  0.00  0.00    +0.077 C 
ATOM     27  C   UNL     1      -0.000  -0.000  -0.000  0.00  0.00    +0.017 C 
ENDROOT
BRANCH   8  28
ATOM     28  C   UNL     1      -0.000  -0.000  -0.000  0.00  0.00    +0.045 C 
ATOM     29  C   UNL     1      -0.000  -0.000  -0.000  0.00  0.00    +0.007 C 
ENDBRANCH   8  28
BRANCH  19  30
ATOM     30  O   UNL     1      -0.000  -0.000  -0.000  0.00  0.00    -0.377 OA
ATOM     31  C   UNL     1      -0.000  -0.000  -0.000  0.00  0.00    +0.194 C 
ENDBRANCH  19  30
BRANCH   2  32
ATOM     32  C   UNL     1      -0.000  -0.000  -0.000  0.00  0.00    +0.111 C 
BRANCH  32  33
ATOM     33  C   UNL     1      -0.000  -0.000  -0.000  0.00  0.00    +0.021 C 
BRANCH  33  34
ATOM     34  C   UNL     1      -0.000  -0.000  -0.000  0.00  0.00    +0.025 C 
BRANCH  34  35
ATOM     35  C   UNL     1      -0.000  -0.000  -0.000  0.00  0.00    +0.145 C 
BRANCH  35  36
ATOM     36  N   UNL     1      -0.000  -0.000  -0.000  0.00  0.00    -0.251 N 
ATOM     37  N   UNL     1      -0.000  -0.000  -0.000  0.00  0.00    -0.065 NA
ATOM     38  N   UNL     1      -0.000  -0.000  -0.000  0.00  0.00    -0.130 NA
ATOM     39  C   UNL     1      -0.000  -0.000  -0.000  0.00  0.00    +0.113 A 
ATOM     40  C   UNL     1      -0.000  -0.000  -0.000  0.00  0.00    +0.138 A 
BRANCH  39  41
ATOM     41  C   UNL     1      -0.000  -0.000  -0.000  0.00  0.00    +0.005 A 
ATOM     42  C   UNL     1      -0.000  -0.000  -0.000  0.00  0.00    +0.032 A 
ATOM     43  C   UNL     1      -0.000  -0.000  -0.000  0.00  0.00    +0.025 A 
ATOM     44  C   UNL     1      -0.000  -0.000  -0.000  0.00  0.00    +0.023 A 
ATOM     45  C   UNL     1      -0.000  -0.000  -0.000  0.00  0.00    +0.002 A 
ATOM     46  C   UNL     1      -0.000  -0.000  -0.000  0.00  0.00    +0.010 A 
BRANCH  43  47
ATOM     47  N   UNL     1      -0.000  -0.000  -0.000  0.00  0.00    -0.358 N 
ATOM     48  H   UNL     1      -0.000  -0.000  -0.000  0.00  0.00    +0.142 HD
ATOM     49  H   UNL     1      -0.000  -0.000  -0.000  0.00  0.00    +0.142 HD
ENDBRANCH  43  47
ENDBRANCH  39  41
ENDBRANCH  35  36
ENDBRANCH  34  35
ENDBRANCH  33  34
ENDBRANCH  32  33
ENDBRANCH   2  32
BRANCH  17  50
ATOM     50  O   UNL     1      -0.000  -0.000  -0.000  0.00  0.00    -0.338 OA
BRANCH  50  51
ATOM     51  C   UNL     1      -0.000  -0.000  -0.000  0.00  0.00    +0.281 C 
ATOM     52  C   UNL     1      -0.000  -0.000  -0.000  0.00  0.00    +0.187 C 
ATOM     53  C   UNL     1      -0.000  -0.000  -0.000  0.00  0.00    +0.092 C 
ATOM     54  C   UNL     1      -0.000  -0.000  -0.000  0.00  0.00    +0.053 C 
ATOM     55  C   UNL     1      -0.000  -0.000  -0.000  0.00  0.00    +0.120 C 
ATOM     56  C   UNL     1      -0.000  -0.000  -0.000  0.00  0.00    +0.038 C 
ATOM     57  O   UNL     1      -0.000  -0.000  -0.000  0.00  0.00    -0.346 OA
BRANCH  53  58
ATOM     58  N   UNL     1      -0.000  -0.000  -0.000  0.00  0.00    -0.303 NA
ATOM     59  C   UNL     1      -0.000  -0.000  -0.000  0.00  0.00    +0.105 C 
ATOM     60  C   UNL     1      -0.000  -0.000  -0.000  0.00  0.00    +0.105 C 
ENDBRANCH  53  58
BRANCH  52  61
ATOM     61  O   UNL     1      -0.000  -0.000  -0.000  0.00  0.00    -0.385 OA
ATOM     62  H   UNL     1      -0.000  -0.000  -0.000  0.00  0.00    +0.210 HD
ENDBRANCH  52  61
ENDBRANCH  50  51
ENDBRANCH  17  50
TORSDOF 13
