REMARK  Name = 
REMARK  2 active torsions:
REMARK  status: ('A' for Active; 'I' for Inactive)
REMARK    1  A    between atoms: C_2  and  C_4
REMARK    2  A    between atoms: C_4  and  N_5
REMARK                            x       y       z     vdW  Elec       q    Type
REMARK                         _______ _______ _______ _____ _____    ______ ____
ROOT
ATOM      1  N   UNL     1       4.790  -0.923  -0.890  0.00  0.00    -0.254 N 
ATOM      2  C   UNL     1       5.540  -2.066  -0.689  0.00  0.00    +0.409 C 
ATOM      3  O   UNL     1       5.094  -3.090  -0.179  0.00  0.00    -0.226 OA
ATOM      4  O   UNL     1       6.846  -2.043  -1.190  0.00  0.00    -0.411 OA
ATOM      5  C   UNL     1       7.281  -0.967  -1.980  0.00  0.00    +0.138 A 
ATOM      6  C   UNL     1       6.634   0.261  -1.909  0.00  0.00    +0.012 A 
ATOM      7  C   UNL     1       7.157   1.342  -2.622  0.00  0.00    +0.009 A 
ATOM      8  C   UNL     1       8.271   1.160  -3.446  0.00  0.00    +0.001 A 
ATOM      9  C   UNL     1       8.864  -0.100  -3.560  0.00  0.00    +0.004 A 
ATOM     10  C   UNL     1       8.377  -1.170  -2.812  0.00  0.00    +0.047 A 
ATOM     11  C   UNL     1       5.425   0.370  -1.048  0.00  0.00    +0.150 C 
ENDROOT
BRANCH   1  12
ATOM     12  C   UNL     1       3.338  -0.978  -0.732  0.00  0.00    +0.206 C 
BRANCH  12  16
ATOM     13  N   UNL     1       3.399  -1.202  -3.197  0.00  0.00    -0.328 N 
ATOM     14  H   UNL     1       4.399  -1.348  -3.131  0.00  0.00    +0.145 HD
ATOM     15  H   UNL     1       2.940  -1.413  -4.074  0.00  0.00    +0.145 HD
ATOM     16  C   UNL     1       2.619  -1.154  -2.077  0.00  0.00    +0.228 C 
ATOM     17  O   UNL     1       1.396  -1.221  -2.172  0.00  0.00    -0.274 OA
ENDBRANCH  12  16
ENDBRANCH   1  12
TORSDOF 2
