REMARK  Name = 
REMARK  7 active torsions:
REMARK  status: ('A' for Active; 'I' for Inactive)
REMARK    1  A    between atoms: C_5  and  O_6
REMARK    2  A    between atoms: C_5  and  C_7
REMARK    3  A    between atoms: C_7  and  C_9
REMARK    4  A    between atoms: C_9  and  S_10
REMARK    5  A    between atoms: C_11  and  C_12
REMARK    6  A    between atoms: C_14  and  O_16
REMARK    7  A    between atoms: C_29  and  C_30
REMARK                            x       y       z     vdW  Elec       q    Type
REMARK                         _______ _______ _______ _____ _____    ______ ____
ROOT
ATOM      1  C   UNL     1      -0.000  -0.000  -0.140  0.00  0.00    +0.002 C 
ATOM      2  C   UNL     1      -0.000  -0.000  -0.140  0.00  0.00    -0.001 C 
ATOM      3  C   UNL     1      -0.000  -0.000  -0.140  0.00  0.00    +0.008 C 
ATOM      4  C   UNL     1      -0.000  -0.000  -0.140  0.00  0.00    +0.032 C 
ATOM      5  C   UNL     1      -0.000  -0.000  -0.140  0.00  0.00    -0.060 C 
ATOM      6  C   UNL     1      -0.000  -0.000  -0.140  0.00  0.00    -0.005 C 
ATOM      7  C   UNL     1      -0.000  -0.000  -0.140  0.00  0.00    +0.016 C 
ATOM      8  C   UNL     1      -0.000  -0.000  -0.140  0.00  0.00    +0.019 C 
ATOM      9  C   UNL     1      -0.000  -0.000   4.074  0.00  0.00    +0.080 C 
ATOM     10  C   UNL     1      -0.000  -0.000  -0.140  0.00  0.00    +0.156 C 
ATOM     11  O   UNL     1      -0.000  -0.000  -0.140  0.00  0.00    -0.293 OA
ATOM     12  C   UNL     1      -0.000  -0.000  -0.140  0.00  0.00    +0.046 C 
ATOM     13  C   UNL     1      -0.000  -0.000  -0.140  0.00  0.00    +0.031 C 
ATOM     14  C   UNL     1      -0.000  -0.000  -0.140  0.00  0.00    +0.119 C 
ATOM     15  C   UNL     1      -0.000  -0.000  -0.140  0.00  0.00    +0.041 C 
ATOM     16  C   UNL     1      -0.000  -0.000  -0.140  0.00  0.00    +0.009 C 
ATOM     17  C   UNL     1      -0.000  -0.000  -0.140  0.00  0.00    +0.015 C 
ATOM     18  C   UNL     1      -0.000  -0.000  -0.140  0.00  0.00    +0.130 C 
ATOM     19  C   UNL     1      -0.000  -0.000  -0.140  0.00  0.00    +0.043 C 
ATOM     20  C   UNL     1      -0.000  -0.000  -0.140  0.00  0.00    +0.008 C 
ENDROOT
BRANCH  14  21
ATOM     21  O   UNL     1      -0.000  -0.000  -0.140  0.00  0.00    -0.391 OA
ATOM     22  H   UNL     1       0.000   0.000   0.000  0.00  0.00    +0.210 HD
ENDBRANCH  14  21
BRANCH  18  23
ATOM     23  C   UNL     1      -0.000  -0.000  -0.140  0.00  0.00    +0.175 C 
ATOM     24  O   UNL     1      -0.000  -0.000  -0.140  0.00  0.00    -0.293 OA
BRANCH  23  25
ATOM     25  C   UNL     1      -0.000  -0.000  -0.140  0.00  0.00    +0.143 C 
BRANCH  25  26
ATOM     26  S   UNL     1      -0.000  -0.000  -0.140  0.00  0.00    -0.171 S 
ATOM     27  H   UNL     1      -0.000  -0.000  -0.281  0.00  0.00    +0.102 HD
ENDBRANCH  25  26
ENDBRANCH  23  25
ENDBRANCH  18  23
BRANCH  18  28
ATOM     28  O   UNL     1      -0.000  -0.000  -0.140  0.00  0.00    -0.380 OA
ATOM     29  H   UNL     1       0.000   0.000   0.000  0.00  0.00    +0.211 HD
ENDBRANCH  18  28
TORSDOF 5
