REMARK  Name = 
REMARK  4 active torsions:
REMARK  status: ('A' for Active; 'I' for Inactive)
REMARK    1  A    between atoms: N_8  and  C_9
REMARK    2  A    between atoms: C_12  and  C_14
REMARK    3  A    between atoms: C_14  and  O_15
REMARK    4  A    between atoms: N_19  and  C_20
REMARK                            x       y       z     vdW  Elec       q    Type
REMARK                         _______ _______ _______ _____ _____    ______ ____
ROOT
ATOM      1  N   UNL     1       4.373  -1.896   0.207  0.00  0.00    -0.327 N 
ATOM      2  H   UNL     1       4.575  -2.803  -0.190  0.00  0.00    +0.145 HD
ATOM      3  H   UNL     1       3.512  -1.439  -0.054  0.00  0.00    +0.145 HD
ATOM      4  C   UNL     1       5.453  -1.059   0.011  0.00  0.00    +0.216 A 
ATOM      5  N   UNL     1       6.629  -1.660  -0.207  0.00  0.00    -0.198 NA
ATOM      6  C   UNL     1       7.766  -0.915  -0.329  0.00  0.00    +0.152 A 
ATOM      7  N   UNL     1       9.002  -1.566  -0.534  0.00  0.00    -0.324 N 
ATOM      8  H   UNL     1       9.757  -0.894  -0.641  0.00  0.00    +0.148 HD
ATOM      9  C   UNL     1       7.633   0.486  -0.242  0.00  0.00    +0.148 A 
ATOM     10  N   UNL     1       8.535   1.527  -0.317  0.00  0.00    -0.231 NA
ATOM     11  C   UNL     1       7.800   2.622  -0.223  0.00  0.00    +0.202 A 
ATOM     12  N   UNL     1       6.463   2.340  -0.092  0.00  0.00    -0.308 N 
ATOM     13  C   UNL     1       6.346   0.970  -0.082  0.00  0.00    +0.168 A 
ATOM     14  N   UNL     1       5.217   0.258   0.037  0.00  0.00    -0.195 NA
ENDROOT
BRANCH  12  15
ATOM     15  C   UNL     1       5.335   3.257  -0.040  0.00  0.00    +0.113 C 
ATOM     16  C   UNL     1       5.625   4.605   0.545  0.00  0.00    -0.006 C 
ATOM     17  C   UNL     1       5.426   5.595  -0.331  0.00  0.00    -0.023 C 
ATOM     18  C   UNL     1       5.000   5.090  -1.679  0.00  0.00    +0.039 C 
ATOM     19  C   UNL     1       4.742   3.590  -1.422  0.00  0.00    +0.039 C 
BRANCH  18  20
ATOM     20  C   UNL     1       6.054   5.342  -2.763  0.00  0.00    +0.163 C 
BRANCH  20  21
ATOM     21  O   UNL     1       7.272   4.680  -2.451  0.00  0.00    -0.394 OA
ATOM     22  H   UNL     1       7.848   4.735  -3.233  0.00  0.00    +0.209 HD
ENDBRANCH  20  21
ENDBRANCH  18  20
ENDBRANCH  12  15
BRANCH   7  23
ATOM     23  C   UNL     1       8.992  -2.800  -1.322  0.00  0.00    +0.072 C 
ATOM     24  C   UNL     1      10.226  -3.357  -1.972  0.00  0.00    +0.024 C 
ATOM     25  C   UNL     1       9.147  -2.751  -2.820  0.00  0.00    +0.024 C 
ENDBRANCH   7  23
TORSDOF 4
