REMARK  Name = 
REMARK  13 active torsions:
REMARK  status: ('A' for Active; 'I' for Inactive)
REMARK    1  A    between atoms: C_3  and  O_4
REMARK    2  A    between atoms: C_3  and  C_5
REMARK    3  A    between atoms: C_3  and  C_19
REMARK    4  A    between atoms: C_5  and  N_6
REMARK    5  A    between atoms: N_6  and  C_7
REMARK    6  A    between atoms: C_7  and  C_8
REMARK    7  A    between atoms: C_7  and  C_9
REMARK    8  A    between atoms: C_7  and  C_10
REMARK    9  A    between atoms: C_10  and  C_11
REMARK   10  A    between atoms: C_14  and  O_15
REMARK   11  A    between atoms: O_15  and  C_16
REMARK   12  A    between atoms: C_23  and  O_24
REMARK   13  A    between atoms: C_28  and  O_29
REMARK                            x       y       z     vdW  Elec       q    Type
REMARK                         _______ _______ _______ _____ _____    ______ ____
ROOT
ATOM      1 CL   UNL     1       0.193  -2.769  -1.199  0.00  0.00    -0.145 Cl
ATOM      2  H   UNL     1       1.519  -2.466  -1.401  0.00  0.00    +0.145 HD
ENDROOT
TORSDOF 0
REMARK  Name = 
REMARK  13 active torsions:
REMARK  status: ('A' for Active; 'I' for Inactive)
REMARK    1  A    between atoms: C_3  and  O_4
REMARK    2  A    between atoms: C_3  and  C_5
REMARK    3  A    between atoms: C_3  and  C_19
REMARK    4  A    between atoms: C_5  and  N_6
REMARK    5  A    between atoms: N_6  and  C_7
REMARK    6  A    between atoms: C_7  and  C_8
REMARK    7  A    between atoms: C_7  and  C_9
REMARK    8  A    between atoms: C_7  and  C_10
REMARK    9  A    between atoms: C_10  and  C_11
REMARK   10  A    between atoms: C_14  and  O_15
REMARK   11  A    between atoms: O_15  and  C_16
REMARK   12  A    between atoms: C_23  and  O_24
REMARK   13  A    between atoms: C_28  and  O_29
REMARK                            x       y       z     vdW  Elec       q    Type
REMARK                         _______ _______ _______ _____ _____    ______ ____
ROOT
ATOM      1  C   UNL     1       2.003   0.204   0.181  0.00  0.00    +0.162 C 
ENDROOT
BRANCH   1   2
ATOM      2  C   UNL     1       2.429  -0.433   1.501  0.00  0.00    +0.029 A 
ATOM      3  C   UNL     1       3.249  -1.579   1.480  0.00  0.00    +0.055 A 
ATOM      4  C   UNL     1       3.672  -2.182   2.671  0.00  0.00    +0.119 A 
ATOM      5  C   UNL     1       3.280  -1.646   3.903  0.00  0.00    +0.077 A 
ATOM      6  C   UNL     1       2.467  -0.512   3.942  0.00  0.00    +0.113 A 
ATOM      7  N   UNL     1       2.079   0.042   5.187  0.00  0.00    -0.211 NA
ATOM      8  C   UNL     1       1.347   1.101   5.265  0.00  0.00    +0.227 C 
ATOM      9  C   UNL     1       0.858   1.815   4.018  0.00  0.00    +0.324 C 
ATOM     10  O   UNL     1       1.261   1.203   2.841  0.00  0.00    -0.480 OA
ATOM     11  C   UNL     1       2.040   0.097   2.755  0.00  0.00    +0.152 A 
BRANCH   4  12
ATOM     12  O   UNL     1       4.460  -3.276   2.617  0.00  0.00    -0.507 OA
ATOM     13  H   UNL     1       4.778  -3.719   3.417  0.00  0.00    +0.292 HD
ENDBRANCH   4  12
BRANCH   8  14
ATOM     14  O   UNL     1       1.018   1.580   6.482  0.00  0.00    -0.493 OA
ATOM     15  H   UNL     1       0.472   2.373   6.583  0.00  0.00    +0.294 HD
ENDBRANCH   8  14
ENDBRANCH   1   2
BRANCH   1  16
ATOM     16  O   UNL     1       0.605   0.149   0.033  0.00  0.00    -0.386 OA
ATOM     17  H   UNL     1       0.195   0.809   0.646  0.00  0.00    +0.210 HD
ENDBRANCH   1  16
BRANCH   1  18
ATOM     18  C   UNL     1       2.544   1.642   0.060  0.00  0.00    +0.117 C 
BRANCH  18  19
ATOM     19  N   UNL     1       2.184   2.269  -1.227  0.00  0.00    -0.308 NA
ATOM     20  H   UNL     1       1.141   2.260  -1.325  0.00  0.00    +0.123 HD
BRANCH  19  21
ATOM     21  C   UNL     1       2.666   3.670  -1.398  0.00  0.00    +0.018 C 
ATOM     22  C   UNL     1       4.211   3.736  -1.337  0.00  0.00    +0.027 C 
ATOM     23  C   UNL     1       2.079   4.607  -0.312  0.00  0.00    +0.027 C 
BRANCH  21  24
ATOM     24  C   UNL     1       2.187   4.218  -2.774  0.00  0.00    +0.056 C 
BRANCH  24  25
ATOM     25  C   UNL     1       2.684   3.430  -3.962  0.00  0.00    -0.045 A 
ATOM     26  C   UNL     1       3.864   3.807  -4.622  0.00  0.00    +0.007 A 
ATOM     27  C   UNL     1       4.318   3.082  -5.726  0.00  0.00    +0.046 A 
ATOM     28  C   UNL     1       3.594   1.980  -6.197  0.00  0.00    +0.120 A 
ATOM     29  C   UNL     1       2.403   1.607  -5.540  0.00  0.00    +0.046 A 
ATOM     30  C   UNL     1       1.956   2.329  -4.430  0.00  0.00    +0.007 A 
BRANCH  28  31
ATOM     31  O   UNL     1       4.069   1.309  -7.278  0.00  0.00    -0.495 OA
ATOM     32  C   UNL     1       3.478   0.204  -7.857  0.00  0.00    +0.277 C 
ENDBRANCH  28  31
ENDBRANCH  24  25
ENDBRANCH  21  24
ENDBRANCH  19  21
ENDBRANCH  18  19
ENDBRANCH   1  18
TORSDOF 10
