REMARK  Name = 
REMARK  3 active torsions:
REMARK  status: ('A' for Active; 'I' for Inactive)
REMARK    1  A    between atoms: C_3  and  C_5
REMARK    2  A    between atoms: N_15  and  O_16
REMARK    3  A    between atoms: O_16  and  S_17
REMARK                            x       y       z     vdW  Elec       q    Type
REMARK                         _______ _______ _______ _____ _____    ______ ____
ROOT
ATOM      1 NA   UNL     1       0.052   0.191   0.549  0.00  0.00    +0.000 Na
ENDROOT
TORSDOF 0
REMARK  Name = 
REMARK  3 active torsions:
REMARK  status: ('A' for Active; 'I' for Inactive)
REMARK    1  A    between atoms: C_3  and  C_5
REMARK    2  A    between atoms: N_15  and  O_16
REMARK    3  A    between atoms: O_16  and  S_17
REMARK                            x       y       z     vdW  Elec       q    Type
REMARK                         _______ _______ _______ _____ _____    ______ ____
ROOT
ATOM      1  C   UNL     1       3.386  -1.037  -0.774  0.00  0.00    +0.000 C 
ATOM      2  N   UNL     1       4.724  -1.602  -0.568  0.00  0.00    +0.000 N 
ATOM      3  C   UNL     1       5.627  -0.550  -0.102  0.00  0.00    +0.000 C 
ATOM      4  O   UNL     1       5.676  -0.172   1.058  0.00  0.00    +0.000 OA
ATOM      5  N   UNL     1       6.229  -0.002  -1.266  0.00  0.00    +0.000 N 
ATOM      6  C   UNL     1       5.725  -0.733  -2.421  0.00  0.00    +0.000 C 
ATOM      7  C   UNL     1       4.437  -0.009  -2.884  0.00  0.00    +0.000 C 
ATOM      8  C   UNL     1       5.376  -2.061  -1.784  0.00  0.00    +0.000 C 
ATOM      9  C   UNL     1       3.171  -0.601  -2.242  0.00  0.00    +0.000 C 
ENDROOT
BRANCH   1  13
ATOM     10  N   UNL     1       2.492  -3.325  -0.568  0.00  0.00    +0.000 N 
ATOM     11  H   UNL     1       3.455  -3.653  -0.573  0.00  0.00    +0.000 HD
ATOM     12  H   UNL     1       1.786  -4.005  -0.318  0.00  0.00    +0.000 HD
ATOM     13  C   UNL     1       2.256  -1.996  -0.379  0.00  0.00    +0.000 C 
ATOM     14  O   UNL     1       1.132  -1.574  -0.084  0.00  0.00    +0.000 OA
ENDBRANCH   1  13
BRANCH   5  15
ATOM     15  O   UNL     1       7.651  -0.083  -1.186  0.00  0.00    +0.000 OA
BRANCH  15  16
ATOM     16  S   UNL     1       8.428   1.113  -2.031  0.00  0.00    +0.000 S 
ATOM     17  O   UNL     1       9.840   0.853  -1.769  0.00  0.00    -0.330 OA
ATOM     18  O   UNL     1       7.905   2.353  -1.463  0.00  0.00    -0.330 OA
ATOM     19  O   UNL     1       8.025   0.878  -3.415  0.00  0.00    -0.330 OA
ENDBRANCH  15  16
ENDBRANCH   5  15
TORSDOF 3
