REMARK  Name = 
REMARK  3 active torsions:
REMARK  status: ('A' for Active; 'I' for Inactive)
REMARK    1  A    between atoms: O_1  and  C_2
REMARK    2  A    between atoms: C_2  and  C_4
REMARK    3  A    between atoms: C_4  and  N_5
REMARK                            x       y       z     vdW  Elec       q    Type
REMARK                         _______ _______ _______ _____ _____    ______ ____
ROOT
ATOM      1  C   UNL     1       3.270   1.009   0.870  0.00  0.00    +0.202 C 
ENDROOT
BRANCH   1   2
ATOM      2  N   UNL     1       4.684   0.843   0.584  0.00  0.00    -0.293 N 
ATOM      3  C   UNL     1       5.311  -0.381   0.449  0.00  0.00    +0.216 C 
ATOM      4  O   UNL     1       4.827  -1.478   0.669  0.00  0.00    -0.276 OA
ATOM      5  C   UNL     1       6.734  -0.122   0.019  0.00  0.00    +0.097 C 
ATOM      6  C   UNL     1       6.690   1.321  -0.474  0.00  0.00    +0.028 C 
ATOM      7  C   UNL     1       5.564   1.951   0.322  0.00  0.00    +0.109 C 
ENDBRANCH   1   2
BRANCH   1   8
ATOM      8  C   UNL     1       2.453   1.199  -0.397  0.00  0.00    +0.198 C 
ATOM      9  N   UNL     1       2.854   1.792  -1.467  0.00  0.00    -0.270 NA
ATOM     10  H   UNL     1       2.129   1.815  -2.183  0.00  0.00    +0.190 HD
BRANCH   8  11
ATOM     11  O   UNL     1       1.192   0.752  -0.312  0.00  0.00    -0.495 OA
ATOM     12  H   UNL     1       0.708   0.868  -1.142  0.00  0.00    +0.293 HD
ENDBRANCH   8  11
ENDBRANCH   1   8
TORSDOF 3
