REMARK  Name = 
REMARK  11 active torsions:
REMARK  status: ('A' for Active; 'I' for Inactive)
REMARK    1  A    between atoms: C_1  and  O_2
REMARK    2  A    between atoms: O_2  and  C_3
REMARK    3  A    between atoms: C_4  and  C_32
REMARK    4  A    between atoms: C_6  and  N_24
REMARK    5  A    between atoms: C_8  and  C_9
REMARK    6  A    between atoms: C_14  and  N_15
REMARK    7  A    between atoms: N_15  and  S_16
REMARK    8  A    between atoms: S_16  and  C_17
REMARK    9  A    between atoms: C_32  and  C_33
REMARK   10  A    between atoms: C_32  and  C_34
REMARK   11  A    between atoms: C_32  and  C_35
REMARK                            x       y       z     vdW  Elec       q    Type
REMARK                         _______ _______ _______ _____ _____    ______ ____
ROOT
ATOM      1  C   UNL     1       3.010   0.476  -1.127  0.00  0.00    +0.132 A 
ATOM      2  C   UNL     1       3.877  -0.245  -1.991  0.00  0.00    +0.026 A 
ATOM      3  C   UNL     1       4.485   0.464  -3.056  0.00  0.00    +0.038 A 
ATOM      4  C   UNL     1       4.259   1.825  -3.312  0.00  0.00    +0.052 A 
ATOM      5  C   UNL     1       3.449   2.499  -2.387  0.00  0.00    +0.034 A 
ATOM      6  C   UNL     1       2.856   1.878  -1.250  0.00  0.00    +0.002 A 
ENDROOT
BRANCH   2   7
ATOM      7  C   UNL     1       4.163  -1.701  -1.839  0.00  0.00    -0.014 A 
ATOM      8  C   UNL     1       4.263  -2.316  -0.581  0.00  0.00    +0.009 A 
ATOM      9  C   UNL     1       4.207  -3.708  -0.447  0.00  0.00    +0.009 A 
ATOM     10  C   UNL     1       4.205  -4.532  -1.578  0.00  0.00    -0.016 A 
ATOM     11  C   UNL     1       4.327  -3.937  -2.849  0.00  0.00    -0.017 A 
ATOM     12  C   UNL     1       4.484  -4.749  -3.981  0.00  0.00    +0.010 A 
ATOM     13  C   UNL     1       4.449  -6.138  -3.866  0.00  0.00    +0.025 A 
ATOM     14  C   UNL     1       4.196  -6.718  -2.628  0.00  0.00    +0.048 A 
ATOM     15  C   UNL     1       4.090  -5.929  -1.483  0.00  0.00    +0.033 A 
ATOM     16  C   UNL     1       4.258  -2.540  -2.965  0.00  0.00    +0.017 A 
BRANCH  14  17
ATOM     17  N   UNL     1       4.068  -8.138  -2.545  0.00  0.00    -0.221 N 
ATOM     18  H   UNL     1       3.272  -8.466  -1.992  0.00  0.00    +0.173 HD
BRANCH  17  19
ATOM     19  S   UNL     1       5.441  -9.024  -2.124  0.00  0.00    +0.040 S 
ATOM     20  O   UNL     1       4.932 -10.238  -1.518  0.00  0.00    -0.155 OA
ATOM     21  O   UNL     1       6.386  -8.181  -1.433  0.00  0.00    -0.155 OA
ATOM     22  C   UNL     1       6.089  -9.451  -3.724  0.00  0.00    +0.218 C 
ENDBRANCH  17  19
ENDBRANCH  14  17
ENDBRANCH   2   7
BRANCH   4  23
ATOM     23  N   UNL     1       4.870   2.477  -4.467  0.00  0.00    -0.269 N 
ATOM     24  C   UNL     1       5.046   3.883  -4.491  0.00  0.00    +0.334 A 
ATOM     25  O   UNL     1       4.798   4.681  -3.587  0.00  0.00    -0.246 OA
ATOM     26  N   UNL     1       5.613   4.398  -5.636  0.00  0.00    -0.275 N 
ATOM     27  H   UNL     1       5.795   5.390  -5.610  0.00  0.00    +0.173 HD
ATOM     28  C   UNL     1       6.228   3.697  -6.620  0.00  0.00    +0.254 A 
ATOM     29  O   UNL     1       6.950   4.204  -7.468  0.00  0.00    -0.268 OA
ATOM     30  C   UNL     1       5.969   2.263  -6.594  0.00  0.00    +0.088 A 
ATOM     31  C   UNL     1       5.313   1.734  -5.563  0.00  0.00    +0.101 A 
ENDBRANCH   4  23
BRANCH   6  32
ATOM     32  C   UNL     1       2.164   2.809  -0.214  0.00  0.00    -0.009 C 
ATOM     33  C   UNL     1       1.034   3.635  -0.872  0.00  0.00    +0.015 C 
ATOM     34  C   UNL     1       3.224   3.796   0.345  0.00  0.00    +0.015 C 
ATOM     35  C   UNL     1       1.538   2.119   1.016  0.00  0.00    +0.015 C 
ENDBRANCH   6  32
BRANCH   1  37
ATOM     36  C   UNL     1       1.372  -1.106  -0.497  0.00  0.00    +0.277 C 
ATOM     37  O   UNL     1       2.373  -0.167  -0.091  0.00  0.00    -0.494 OA
ENDBRANCH   1  37
TORSDOF 6
