REMARK  Name = 
REMARK  7 active torsions:
REMARK  status: ('A' for Active; 'I' for Inactive)
REMARK    1  A    between atoms: C_5  and  C_6
REMARK    2  A    between atoms: C_6  and  N_7
REMARK    3  A    between atoms: CA_13  and  C_28
REMARK    4  A    between atoms: CA_17  and  N_19
REMARK    5  A    between atoms: C_20  and  O_21
REMARK    6  A    between atoms: C_20  and  C_22
REMARK    7  A    between atoms: C_22  and  C_23
REMARK                            x       y       z     vdW  Elec       q    Type
REMARK                         _______ _______ _______ _____ _____    ______ ____
ROOT
ATOM      1  C   UNL     1       2.064  -0.120  -0.054  0.00  0.00    +0.173 C 
ATOM      2  CA  UNL     1       2.742  -1.512  -0.270  0.00  0.00    +0.225 C 
ATOM      3  C   UNL     1       3.518  -0.760  -1.428  0.00  0.00    +0.248 C 
ATOM      4  O   UNL     1       4.339  -1.069  -2.262  0.00  0.00    -0.273 OA
ATOM      5  N   UNL     1       2.996   0.416  -1.013  0.00  0.00    -0.253 N 
ATOM      6  CA  UNL     1       3.099   1.741  -1.324  0.00  0.00    +0.066 C 
ATOM      7  C   UNL     1       2.676   2.671  -0.431  0.00  0.00    +0.028 C 
ATOM      8  C   UNL     1       2.116   2.369   0.940  0.00  0.00    +0.110 C 
ATOM      9  S   UNL     1       2.309   0.692   1.546  0.00  0.00    -0.131 S 
ENDROOT
BRANCH   6  10
ATOM     10  C   UNL     1       3.699   2.210  -2.704  0.00  0.00    +0.086 C 
ATOM     11  OXT UNL     1       4.360   3.289  -2.645  0.00  0.00    -0.543 OA
ATOM     12  O   UNL     1       3.214   1.610  -3.701  0.00  0.00    -0.543 OA
ENDBRANCH   6  10
BRANCH   2  13
ATOM     13  N   UNL     1       3.633  -1.963   0.807  0.00  0.00    -0.239 NA
ATOM     14  C   UNL     1       3.158  -2.451   1.902  0.00  0.00    +0.188 C 
BRANCH  14  15
ATOM     15  O   UNL     1       1.858  -2.704   2.137  0.00  0.00    -0.495 OA
ATOM     16  H   UNL     1       1.309  -2.587   1.354  0.00  0.00    +0.293 HD
ENDBRANCH  14  15
BRANCH  14  17
ATOM     17  C   UNL     1       4.058  -2.809   3.060  0.00  0.00    +0.137 C 
BRANCH  17  18
ATOM     18  C   UNL     1       4.560  -4.203   2.855  0.00  0.00    -0.001 A 
ATOM     19  S   UNL     1       4.190  -5.436   3.981  0.00  0.00    -0.101 S 
ATOM     20  C   UNL     1       4.971  -6.620   3.028  0.00  0.00    +0.045 A 
ATOM     21  C   UNL     1       5.534  -6.085   1.892  0.00  0.00    +0.008 A 
ATOM     22  C   UNL     1       5.319  -4.682   1.805  0.00  0.00    +0.011 A 
ENDBRANCH  17  18
ENDBRANCH  14  17
ENDBRANCH   2  13
BRANCH   7  23
ATOM     23  C   UNL     1       2.860   4.159  -0.635  0.00  0.00    +0.391 C 
BRANCH  23  24
ATOM     24  N   UNL     1       2.119   4.797  -1.752  0.00  0.00    -0.200 N 
ATOM     25  C   UNL     1       2.671   5.902  -2.310  0.00  0.00    +0.309 A 
ATOM     26  C   UNL     1       1.952   6.687  -3.204  0.00  0.00    +0.070 A 
ATOM     27  C   UNL     1       0.668   6.304  -3.562  0.00  0.00    +0.012 A 
ATOM     28  C   UNL     1       0.143   5.130  -3.039  0.00  0.00    +0.070 A 
ATOM     29  C   UNL     1       0.893   4.381  -2.137  0.00  0.00    +0.309 A 
ENDBRANCH  23  24
ENDBRANCH   7  23
TORSDOF 7
