REMARK  Name = 
REMARK  1 active torsions:
REMARK  status: ('A' for Active; 'I' for Inactive)
REMARK    1  A    between atoms: O_1  and  C_2
REMARK                            x       y       z     vdW  Elec       q    Type
REMARK                         _______ _______ _______ _____ _____    ______ ____
ROOT
ATOM      1  C   UNL     1       2.411  -0.093   0.053  0.00  0.00    +0.156 A 
ATOM      2  C   UNL     1       3.042  -1.335   0.057  0.00  0.00    +0.058 A 
ATOM      3  I   UNL     1       1.968  -3.125   0.049  0.00  0.00    -0.040 I 
ATOM      4  C   UNL     1       4.432  -1.395   0.061  0.00  0.00    +0.033 A 
ATOM      5  C   UNL     1       5.176  -0.209   0.058  0.00  0.00    +0.024 A 
ATOM      6  I   UNL     1       7.273  -0.438   0.074  0.00  0.00    -0.043 I 
ATOM      7  C   UNL     1       4.539   1.062   0.044  0.00  0.00    +0.017 A 
ATOM      8  C   UNL     1       5.193   2.317   0.028  0.00  0.00    +0.012 A 
ATOM      9  C   UNL     1       4.466   3.503   0.009  0.00  0.00    +0.020 A 
ATOM     10  C   UNL     1       3.091   3.419   0.011  0.00  0.00    +0.111 A 
ATOM     11  N   UNL     1       2.416   2.251   0.030  0.00  0.00    -0.251 NA
ATOM     12  C   UNL     1       3.128   1.103   0.043  0.00  0.00    +0.114 A 
ENDROOT
BRANCH   1  13
ATOM     13  O   UNL     1       1.035  -0.008   0.058  0.00  0.00    -0.504 OA
ATOM     14  H   UNL     1       0.853   0.957   0.059  0.00  0.00    +0.292 HD
ENDBRANCH   1  13
TORSDOF 1
