REMARK  Name = 
REMARK  10 active torsions:
REMARK  status: ('A' for Active; 'I' for Inactive)
REMARK    1  A    between atoms: C_1  and  C_2
REMARK    2  A    between atoms: C_2  and  N_3
REMARK    3  A    between atoms: N_3  and  C_4
REMARK    4  A    between atoms: N_3  and  C_6
REMARK    5  A    between atoms: C_4  and  C_5
REMARK    6  A    between atoms: C_6  and  C_7
REMARK    7  A    between atoms: C_7  and  O_9
REMARK    8  A    between atoms: O_9  and  C_10
REMARK    9  A    between atoms: C_13  and  N_14
REMARK   10  A    between atoms: C_15  and  C_16
REMARK                            x       y       z     vdW  Elec       q    Type
REMARK                         _______ _______ _______ _____ _____    ______ ____
ROOT
ATOM      1  C   UNL     1       6.526   3.513  -2.739  0.00  0.00    +0.132 A 
ATOM      2  C   UNL     1       7.785   3.650  -3.318  0.00  0.00    +0.048 A 
ATOM      3  C   UNL     1       8.042   4.762  -4.140  0.00  0.00    +0.027 A 
ATOM      4  C   UNL     1       7.044   5.726  -4.371  0.00  0.00    +0.034 A 
ATOM      5  C   UNL     1       5.819   5.595  -3.725  0.00  0.00    +0.027 A 
ATOM      6  C   UNL     1       5.568   4.511  -2.898  0.00  0.00    +0.048 A 
ENDROOT
BRANCH   4   7
ATOM      7  N   UNL     1       7.304   6.777  -5.282  0.00  0.00    -0.286 N 
ATOM      8  H   UNL     1       8.182   6.737  -5.782  0.00  0.00    +0.155 HD
ATOM      9  C   UNL     1       6.457   7.840  -5.556  0.00  0.00    +0.214 C 
ATOM     10  O   UNL     1       5.442   8.156  -4.943  0.00  0.00    -0.276 OA
ATOM     11  C   UNL     1       6.898   8.667  -6.734  0.00  0.00    +0.109 C 
ENDBRANCH   4   7
BRANCH   1  12
ATOM     12  O   UNL     1       6.238   2.412  -1.925  0.00  0.00    -0.425 OA
BRANCH  12  13
ATOM     13  C   UNL     1       5.044   1.770  -2.265  0.00  0.00    +0.327 C 
ATOM     14  O   UNL     1       4.472   1.828  -3.351  0.00  0.00    -0.249 OA
BRANCH  13  15
ATOM     15  C   UNL     1       4.490   1.002  -1.073  0.00  0.00    +0.206 C 
BRANCH  15  16
ATOM     16  N   UNL     1       3.852   1.888  -0.063  0.00  0.00    -0.293 NA
BRANCH  16  18
ATOM     17  C   UNL     1       2.058   3.611   0.360  0.00  0.00    +0.020 C 
ATOM     18  C   UNL     1       2.715   2.643  -0.625  0.00  0.00    +0.081 C 
ENDBRANCH  16  18
BRANCH  16  19
ATOM     19  C   UNL     1       3.505   1.126   1.149  0.00  0.00    +0.081 C 
ATOM     20  C   UNL     1       2.498  -0.008   0.966  0.00  0.00    +0.020 C 
ENDBRANCH  16  19
ENDBRANCH  15  16
ENDBRANCH  13  15
ENDBRANCH  12  13
ENDBRANCH   1  12
TORSDOF 7
