REMARK  Name = 
REMARK  4 active torsions:
REMARK  status: ('A' for Active; 'I' for Inactive)
REMARK    1  A    between atoms: C_1  and  C_2
REMARK    2  A    between atoms: C_2  and  C_3
REMARK    3  A    between atoms: C_9  and  C_10
REMARK    4  A    between atoms: C_16  and  C_17
REMARK                            x       y       z     vdW  Elec       q    Type
REMARK                         _______ _______ _______ _____ _____    ______ ____
ROOT
ATOM      1  C   UNL     1       2.927  -0.625   1.491  0.00  0.00    -0.008 A 
ATOM      2  S   UNL     1       3.307   0.176   2.949  0.00  0.00    -0.075 S 
ATOM      3  C   UNL     1       3.646  -1.284   3.746  0.00  0.00    +0.097 A 
ATOM      4  N   UNL     1       3.931  -1.279   5.114  0.00  0.00    -0.275 N 
ATOM      5  C   UNL     1       3.618  -2.329   5.957  0.00  0.00    +0.160 A 
ATOM      6  C   UNL     1       2.910  -3.535   5.479  0.00  0.00    +0.218 C 
ATOM      7  N   UNL     1       3.673  -4.263   4.476  0.00  0.00    -0.275 NA
ATOM      8  C   UNL     1       3.877  -3.783   3.300  0.00  0.00    +0.077 C 
ATOM      9  N   UNL     1       3.902  -2.025   7.202  0.00  0.00    -0.132 NA
ATOM     10  N   UNL     1       4.444  -0.776   7.209  0.00  0.00    -0.134 NA
ATOM     11  C   UNL     1       4.491  -0.332   5.967  0.00  0.00    +0.135 A 
ATOM     12  C   UNL     1       5.169   0.933   5.600  0.00  0.00    +0.088 C 
ATOM     13  C   UNL     1       3.518  -2.401   2.928  0.00  0.00    +0.032 A 
ATOM     14  C   UNL     1       3.049  -1.991   1.627  0.00  0.00    +0.023 A 
ENDROOT
BRANCH   8  15
ATOM     15  C   UNL     1       4.530  -4.650   2.257  0.00  0.00    +0.019 A 
ATOM     16  C   UNL     1       4.284  -6.031   2.161  0.00  0.00    +0.050 A 
ATOM     17 CL   UNL     1       3.228  -6.908   3.214  0.00  0.00    -0.083 Cl
ATOM     18  C   UNL     1       4.869  -6.778   1.127  0.00  0.00    +0.020 A 
ATOM     19  C   UNL     1       5.686  -6.165   0.178  0.00  0.00    +0.001 A 
ATOM     20  C   UNL     1       5.957  -4.807   0.279  0.00  0.00    +0.001 A 
ATOM     21  C   UNL     1       5.403  -4.059   1.322  0.00  0.00    +0.011 A 
ENDBRANCH   8  15
BRANCH   1  23
ATOM     22  C   UNL     1       1.015   0.315   0.186  0.00  0.00    +0.009 C 
ATOM     23  C   UNL     1       2.523   0.143   0.269  0.00  0.00    +0.039 C 
ENDBRANCH   1  23
TORSDOF 2
