REMARK  Name = 
REMARK  26 active torsions:
REMARK  status: ('A' for Active; 'I' for Inactive)
REMARK    1  A    between atoms: C_1  and  O_2
REMARK    2  A    between atoms: O_2  and  C_3
REMARK    3  A    between atoms: C_5  and  O_7
REMARK    4  A    between atoms: C_12  and  C_14
REMARK    5  A    between atoms: C_20  and  O_22
REMARK    6  A    between atoms: C_23  and  C_25
REMARK    7  A    between atoms: C_27  and  C_29
REMARK    8  A    between atoms: C_29  and  C_30
REMARK    9  A    between atoms: C_32  and  O_34
REMARK   10  A    between atoms: O_34  and  C_35
REMARK   11  A    between atoms: C_38  and  C_40
REMARK   12  A    between atoms: C_41  and  O_43
REMARK   13  A    between atoms: O_43  and  C_44
REMARK   14  A    between atoms: C_47  and  C_48
REMARK   15  A    between atoms: C_47  and  O_49
REMARK   16  A    between atoms: C_50  and  O_52
REMARK   17  A    between atoms: O_52  and  C_53
REMARK   18  A    between atoms: C_53  and  C_55
REMARK   19  A    between atoms: C_55  and  C_56
REMARK   20  A    between atoms: C_56  and  C_57
REMARK   21  A    between atoms: C_56  and  C_58
REMARK   22  A    between atoms: C_59  and  C_61
REMARK   23  A    between atoms: C_63  and  N_68
REMARK   24  A    between atoms: C_65  and  O_67
REMARK   25  A    between atoms: N_68  and  C_69
REMARK   26  A    between atoms: N_68  and  C_70
REMARK                            x       y       z     vdW  Elec       q    Type
REMARK                         _______ _______ _______ _____ _____    ______ ____
ROOT
ATOM      1  C   UNL     1       3.845  -3.115   4.485  0.00  0.00    +0.281 C 
ATOM      2  C   UNL     1       2.516  -2.990   5.502  0.00  0.00    +0.190 C 
ATOM      3  C   UNL     1       2.952  -3.724   6.892  0.00  0.00    +0.121 C 
ATOM      4  C   UNL     1       3.053  -5.176   5.997  0.00  0.00    +0.169 C 
ATOM      5  C   UNL     1       3.144  -5.152   4.179  0.00  0.00    +0.149 C 
ATOM      6  C   UNL     1       3.039  -6.187   3.058  0.00  0.00    +0.041 C 
ATOM      7  O   UNL     1       3.125  -3.873   3.528  0.00  0.00    -0.343 OA
ENDROOT
BRANCH   3   8
ATOM      8  N   UNL     1       3.344  -3.221   8.550  0.00  0.00    -0.301 NA
ATOM      9  C   UNL     1       2.731  -3.846   9.705  0.00  0.00    +0.105 C 
ATOM     10  C   UNL     1       4.135  -2.032   9.173  0.00  0.00    +0.105 C 
ENDBRANCH   3   8
BRANCH   2  11
ATOM     11  O   UNL     1       1.825  -1.738   5.238  0.00  0.00    -0.385 OA
ATOM     12  H   UNL     1       2.518  -1.062   5.139  0.00  0.00    +0.210 HD
ENDBRANCH   2  11
BRANCH   4  13
ATOM     13  O   UNL     1       4.309  -5.753   6.440  0.00  0.00    -0.344 OA
BRANCH  13  14
ATOM     14  C   UNL     1       4.337  -5.977   7.841  0.00  0.00    +0.254 C 
ATOM     15  O   UNL     1       5.534  -6.457   8.394  0.00  0.00    -0.345 OA
ATOM     16  C   UNL     1       6.083  -7.464   7.587  0.00  0.00    +0.162 C 
ATOM     17  C   UNL     1       7.388  -7.704   8.309  0.00  0.00    +0.042 C 
ATOM     18  C   UNL     1       5.083  -8.622   7.166  0.00  0.00    +0.236 C 
ATOM     19  C   UNL     1       3.625  -8.089   7.027  0.00  0.00    +0.107 C 
ATOM     20  C   UNL     1       2.532  -9.190   7.153  0.00  0.00    +0.045 C 
ATOM     21  C   UNL     1       3.336  -7.020   8.090  0.00  0.00    +0.099 C 
BRANCH  19  22
ATOM     22  O   UNL     1       3.366  -7.670   5.673  0.00  0.00    -0.385 OA
ATOM     23  H   UNL     1       4.182  -7.235   5.364  0.00  0.00    +0.210 HD
ENDBRANCH  19  22
BRANCH  18  24
ATOM     24  O   UNL     1       5.445  -9.488   5.996  0.00  0.00    -0.456 OA
BRANCH  24  25
ATOM     25  C   UNL     1       5.308  -9.187   4.658  0.00  0.00    +0.308 C 
ATOM     26  O   UNL     1       5.030  -8.095   4.170  0.00  0.00    -0.251 OA
BRANCH  25  27
ATOM     27  C   UNL     1       5.564 -10.336   3.744  0.00  0.00    +0.123 C 
BRANCH  27  28
ATOM     28  C   UNL     1       6.320  -9.969   2.435  0.00  0.00    -0.007 C 
ATOM     29  C   UNL     1       5.971 -11.019   1.390  0.00  0.00    +0.008 C 
ATOM     30  C   UNL     1       7.843  -9.936   2.543  0.00  0.00    +0.008 C 
ENDBRANCH  27  28
ENDBRANCH  25  27
ENDBRANCH  24  25
ENDBRANCH  18  24
ENDBRANCH  13  14
ENDBRANCH   4  13
BRANCH   1  31
ATOM     31  O   UNL     1       5.236  -3.928   4.659  0.00  0.00    -0.343 OA
BRANCH  31  33
ATOM     32  C   UNL     1       5.555  -2.111   6.462  0.00  0.00    +0.176 C 
ATOM     33  C   UNL     1       6.192  -3.955   5.853  0.00  0.00    +0.156 C 
ATOM     34  C   UNL     1       7.616  -5.468   5.652  0.00  0.00    +0.028 C 
ATOM     35  C   UNL     1       9.315  -6.169   6.194  0.00  0.00    +0.012 C 
ATOM     36  C   UNL     1      10.368  -7.585   7.007  0.00  0.00    +0.019 C 
ATOM     37  C   UNL     1      10.440  -8.612   8.269  0.00  0.00    +0.010 C 
ATOM     38  C   UNL     1      11.858  -7.110   7.001  0.00  0.00    +0.140 C 
ATOM     39  C   UNL     1      11.799  -5.968   7.975  0.00  0.00    +0.004 C 
ATOM     40  C   UNL     1      11.333  -4.808   7.524  0.00  0.00    -0.002 C 
ATOM     41  C   UNL     1      10.107  -4.288   8.088  0.00  0.00    -0.004 C 
ATOM     42  C   UNL     1       9.363  -3.611   7.217  0.00  0.00    -0.023 C 
ATOM     43  C   UNL     1       8.222  -2.752   7.500  0.00  0.00    +0.071 C 
ATOM     44  C   UNL     1       8.442  -1.599   6.469  0.00  0.00    +0.177 C 
ATOM     45  C   UNL     1       8.068  -1.786   4.952  0.00  0.00    +0.052 C 
ATOM     46  O   UNL     1       8.299  -0.402   7.189  0.00  0.00    -0.461 OA
ATOM     47  C   UNL     1       7.584   0.590   6.699  0.00  0.00    +0.310 C 
ATOM     48  O   UNL     1       7.987   1.494   6.064  0.00  0.00    -0.251 OA
ATOM     49  C   UNL     1       6.167   0.396   7.173  0.00  0.00    +0.154 C 
ATOM     50  C   UNL     1       5.559  -0.471   6.154  0.00  0.00    +0.156 C 
BRANCH  50  51
ATOM     51  O   UNL     1       5.549  -0.054   4.776  0.00  0.00    -0.389 OA
ATOM     52  H   UNL     1       4.613   0.142   4.522  0.00  0.00    +0.210 HD
ENDBRANCH  50  51
BRANCH  32  54
ATOM     53  C   UNL     1       2.760  -0.910   7.336  0.00  0.00    +0.194 C 
ATOM     54  O   UNL     1       3.881  -1.781   6.614  0.00  0.00    -0.375 OA
ENDBRANCH  32  54
BRANCH  38  55
ATOM     55  O   UNL     1      12.205  -6.843   5.655  0.00  0.00    -0.387 OA
ATOM     56  H   UNL     1      12.017  -7.683   5.183  0.00  0.00    +0.210 HD
ENDBRANCH  38  55
BRANCH  34  57
ATOM     57  C   UNL     1       7.460  -7.163   4.984  0.00  0.00    +0.076 C 
BRANCH  57  58
ATOM     58  C   UNL     1       8.167  -8.680   5.457  0.00  0.00    +0.223 C 
ATOM     59  O   UNL     1       9.106  -9.311   4.945  0.00  0.00    -0.301 OA
ENDBRANCH  57  58
ENDBRANCH  34  57
ENDBRANCH  31  33
ENDBRANCH   1  31
TORSDOF 16
