REMARK  Name = 
REMARK  16 active torsions:
REMARK  status: ('A' for Active; 'I' for Inactive)
REMARK    1  A    between atoms: C_1  and  C_2
REMARK    2  A    between atoms: C_2  and  C_3
REMARK    3  A    between atoms: C_3  and  C_4
REMARK    4  A    between atoms: C_3  and  O_5
REMARK    5  A    between atoms: C_3  and  C_32
REMARK    6  A    between atoms: O_5  and  C_6
REMARK    7  A    between atoms: C_9  and  C_12
REMARK    8  A    between atoms: C_12  and  C_18
REMARK    9  A    between atoms: C_20  and  O_21
REMARK   10  A    between atoms: O_21  and  C_22
REMARK   11  A    between atoms: C_22  and  C_23
REMARK   12  A    between atoms: C_22  and  C_24
REMARK   13  A    between atoms: C_22  and  C_26
REMARK   14  A    between atoms: C_24  and  C_25
REMARK   15  A    between atoms: C_26  and  O_27
REMARK   16  A    between atoms: C_32  and  O_33
REMARK                            x       y       z     vdW  Elec       q    Type
REMARK                         _______ _______ _______ _____ _____    ______ ____
ROOT
ATOM      1  C   UNL     1      -3.061  -2.761   1.267  0.00  0.00    +0.021 C 
ATOM      2  C   UNL     1      -3.540  -4.257   1.353  0.00  0.00    +0.016 C 
ATOM      3  C   UNL     1      -2.873  -5.184   0.332  0.00  0.00    +0.001 C 
ATOM      4  C   UNL     1      -3.143  -4.698  -1.084  0.00  0.00    +0.000 C 
ATOM      5  C   UNL     1      -2.674  -3.262  -1.261  0.00  0.00    +0.001 C 
ATOM      6  C   UNL     1      -3.306  -2.335  -0.224  0.00  0.00    +0.016 C 
ENDROOT
BRANCH   1  10
ATOM      7  C   UNL     1       0.939  -2.075   2.956  0.00  0.00    +0.122 A 
ATOM      8  C   UNL     1       0.227  -3.223   3.247  0.00  0.00    +0.046 A 
ATOM      9  C   UNL     1      -1.034  -3.449   2.689  0.00  0.00    +0.008 A 
ATOM     10  C   UNL     1      -1.578  -2.600   1.718  0.00  0.00    -0.037 A 
ATOM     11  C   UNL     1      -0.740  -1.559   1.271  0.00  0.00    +0.008 A 
ATOM     12  C   UNL     1       0.493  -1.288   1.893  0.00  0.00    +0.046 A 
BRANCH   7  13
ATOM     13  O   UNL     1       2.049  -1.656   3.619  0.00  0.00    -0.475 OA
BRANCH  13  14
ATOM     14  C   UNL     1       2.190  -1.845   5.060  0.00  0.00    +0.203 C 
ATOM     15  C   UNL     1       2.596  -3.278   5.433  0.00  0.00    +0.068 C 
BRANCH  14  17
ATOM     16  C   UNL     1      -0.312  -1.889   5.962  0.00  0.00    +0.008 C 
ATOM     17  C   UNL     1       1.057  -1.224   5.928  0.00  0.00    +0.056 C 
ENDBRANCH  14  17
BRANCH  14  18
ATOM     18  C   UNL     1       3.448  -0.994   5.418  0.00  0.00    +0.349 C 
ATOM     19  O   UNL     1       3.911  -0.875   6.540  0.00  0.00    -0.246 OA
BRANCH  18  20
ATOM     20  O   UNL     1       4.012  -0.380   4.347  0.00  0.00    -0.478 OA
ATOM     21  H   UNL     1       3.501  -0.603   3.543  0.00  0.00    +0.295 HD
ENDBRANCH  18  20
ENDBRANCH  14  18
ENDBRANCH  13  14
ENDBRANCH   7  13
ENDBRANCH   1  10
BRANCH   1  22
ATOM     22  C   UNL     1      -3.974  -1.819   2.132  0.00  0.00    -0.033 A 
ATOM     23  C   UNL     1      -5.051  -2.270   2.905  0.00  0.00    +0.005 A 
ATOM     24  C   UNL     1      -5.957  -1.360   3.462  0.00  0.00    +0.004 A 
ATOM     25  C   UNL     1      -5.789   0.016   3.283  0.00  0.00    +0.046 A 
ATOM     26  C   UNL     1      -4.678   0.503   2.601  0.00  0.00    +0.122 A 
ATOM     27  C   UNL     1      -3.793  -0.419   2.048  0.00  0.00    +0.050 A 
BRANCH  26  28
ATOM     28  O   UNL     1      -4.606   1.863   2.445  0.00  0.00    -0.475 OA
BRANCH  28  29
ATOM     29  C   UNL     1      -3.336   2.565   2.447  0.00  0.00    +0.203 C 
ATOM     30  C   UNL     1      -2.457   2.164   3.642  0.00  0.00    +0.068 C 
BRANCH  29  31
ATOM     31  C   UNL     1      -3.678   4.056   2.697  0.00  0.00    +0.349 C 
ATOM     32  O   UNL     1      -2.852   4.956   2.765  0.00  0.00    -0.246 OA
BRANCH  31  33
ATOM     33  O   UNL     1      -5.008   4.296   2.823  0.00  0.00    -0.478 OA
ATOM     34  H   UNL     1      -5.497   3.446   2.723  0.00  0.00    +0.295 HD
ENDBRANCH  31  33
ENDBRANCH  29  31
BRANCH  29  35
ATOM     35  C   UNL     1      -2.586   2.529   1.091  0.00  0.00    +0.056 C 
ATOM     36  C   UNL     1      -3.396   3.043  -0.095  0.00  0.00    +0.008 C 
ENDBRANCH  29  35
ENDBRANCH  28  29
ENDBRANCH  26  28
ENDBRANCH   1  22
TORSDOF 12
