REMARK  Name = 
REMARK  1 active torsions:
REMARK  status: ('A' for Active; 'I' for Inactive)
REMARK    1  A    between atoms: C_1  and  N_2
REMARK                            x       y       z     vdW  Elec       q    Type
REMARK                         _______ _______ _______ _____ _____    ______ ____
ROOT
ATOM      1  C   UNL     1       1.176   0.013  -1.060  0.00  0.00    +0.104 C 
ATOM      2  N   UNL     1       2.609   0.229  -1.223  0.00  0.00    -0.305 NA
ATOM      3  C   UNL     1       2.941   1.148  -2.301  0.00  0.00    +0.093 C 
ATOM      4  C   UNL     1       4.037   2.213  -2.091  0.00  0.00    +0.074 C 
ATOM      5  C   UNL     1       4.940   2.047  -0.867  0.00  0.00    +0.184 C 
ATOM      6  O   UNL     1       4.696   2.827   0.304  0.00  0.00    -0.468 OA
ATOM      7  C   UNL     1       3.721   3.764   0.283  0.00  0.00    +0.127 A 
ATOM      8  C   UNL     1       3.297   4.334  -0.902  0.00  0.00    -0.000 A 
ATOM      9  C   UNL     1       2.533   5.503  -0.793  0.00  0.00    +0.027 A 
ATOM     10  C   UNL     1       2.130   5.963   0.474  0.00  0.00    +0.041 A 
ATOM     11  C   UNL     1       2.434   5.253   1.629  0.00  0.00    +0.023 A 
ATOM     12 CL   UNL     1       1.297   7.460   0.630  0.00  0.00    -0.084 Cl
ATOM     13  C   UNL     1       3.259   4.152   1.535  0.00  0.00    +0.047 A 
ATOM     14  N   UNL     1       6.239   2.496  -1.292  0.00  0.00    -0.278 N 
ATOM     15  H   UNL     1       7.043   2.255  -0.723  0.00  0.00    +0.152 HD
ATOM     16  C   UNL     1       6.361   3.750  -1.878  0.00  0.00    +0.216 C 
ATOM     17  C   UNL     1       5.135   4.338  -2.611  0.00  0.00    +0.104 C 
ATOM     18  O   UNL     1       7.448   4.314  -1.888  0.00  0.00    -0.276 OA
ATOM     19  C   UNL     1       4.808   0.658  -0.261  0.00  0.00    +0.084 C 
ATOM     20  C   UNL     1       3.770   3.727  -2.208  0.00  0.00    +0.041 C 
ATOM     21  C   UNL     1       3.305   0.457   0.034  0.00  0.00    +0.089 C 
ENDROOT
TORSDOF 0
