REMARK  Name = 
REMARK  5 active torsions:
REMARK  status: ('A' for Active; 'I' for Inactive)
REMARK    1  A    between atoms: C_1  and  C_2
REMARK    2  A    between atoms: C_8  and  N_9
REMARK    3  A    between atoms: N_9  and  C_10
REMARK    4  A    between atoms: C_15  and  C_16
REMARK    5  A    between atoms: C_16  and  O_17
REMARK                            x       y       z     vdW  Elec       q    Type
REMARK                         _______ _______ _______ _____ _____    ______ ____
ROOT
ATOM      1  N   UNL     1       2.185  -2.311  -0.190  0.00  0.00    -0.314 N 
ATOM      2  H   UNL     1       2.856  -3.045  -0.421  0.00  0.00    +0.152 HD
ENDROOT
BRANCH   1   5
ATOM      3  C   UNL     1       4.001  -2.445   2.097  0.00  0.00    +0.047 C 
ATOM      4  C   UNL     1       3.621  -1.143   1.449  0.00  0.00    -0.011 A 
ATOM      5  C   UNL     1       2.872  -1.135   0.253  0.00  0.00    +0.036 A 
ATOM      6  C   UNL     1       2.771   0.062  -0.479  0.00  0.00    +0.023 A 
ATOM      7  C   UNL     1       3.210   1.271   0.055  0.00  0.00    +0.003 A 
ATOM      8  C   UNL     1       3.755   1.297   1.322  0.00  0.00    +0.020 A 
ATOM      9  C   UNL     1       3.972   0.097   2.013  0.00  0.00    +0.046 A 
ATOM     10 CL   UNL     1       4.633   0.231   3.606  0.00  0.00    -0.083 Cl
ENDBRANCH   1   5
BRANCH   1  11
ATOM     11  C   UNL     1       1.013  -2.301  -1.000  0.00  0.00    +0.045 A 
ATOM     12  C   UNL     1       0.744  -3.276  -1.976  0.00  0.00    +0.080 A 
ATOM     13  C   UNL     1      -0.301  -3.097  -2.897  0.00  0.00    +0.017 A 
ATOM     14  C   UNL     1      -1.155  -2.000  -2.789  0.00  0.00    +0.001 A 
ATOM     15  C   UNL     1      -1.001  -1.114  -1.731  0.00  0.00    +0.002 A 
ATOM     16  C   UNL     1       0.058  -1.277  -0.837  0.00  0.00    +0.024 A 
BRANCH  12  17
ATOM     17  C   UNL     1       1.519  -4.532  -2.077  0.00  0.00    +0.339 C 
ATOM     18  O   UNL     1       1.821  -5.061  -3.130  0.00  0.00    -0.245 OA
BRANCH  17  19
ATOM     19  O   UNL     1       1.792  -5.065  -0.863  0.00  0.00    -0.477 OA
ATOM     20  H   UNL     1       1.316  -4.629  -0.125  0.00  0.00    +0.295 HD
ENDBRANCH  17  19
ENDBRANCH  12  17
ENDBRANCH   1  11
TORSDOF 4
