REMARK  Name = 
REMARK  12 active torsions:
REMARK  status: ('A' for Active; 'I' for Inactive)
REMARK    1  A    between atoms: C_1  and  O_2
REMARK    2  A    between atoms: O_2  and  C_3
REMARK    3  A    between atoms: C_18  and  O_20
REMARK    4  A    between atoms: O_20  and  C_21
REMARK    5  A    between atoms: C_21  and  C_22
REMARK    6  A    between atoms: C_22  and  C_23
REMARK    7  A    between atoms: C_22  and  C_24
REMARK    8  A    between atoms: C_22  and  O_25
REMARK    9  A    between atoms: C_26  and  O_27
REMARK   10  A    between atoms: O_27  and  C_28
REMARK   11  A    between atoms: C_29  and  O_30
REMARK   12  A    between atoms: O_30  and  C_31
REMARK                            x       y       z     vdW  Elec       q    Type
REMARK                         _______ _______ _______ _____ _____    ______ ____
ROOT
ATOM      1  C   UNL     1       2.364   1.113  -0.960  0.00  0.00    +0.166 A 
ATOM      2  C   UNL     1       2.531   0.734  -2.304  0.00  0.00    +0.206 A 
ATOM      3  C   UNL     1       3.111   1.671  -3.217  0.00  0.00    +0.191 A 
ATOM      4  C   UNL     1       3.540   2.965  -2.800  0.00  0.00    +0.123 A 
ATOM      5  N   UNL     1       4.077   3.887  -3.647  0.00  0.00    -0.210 NA
ATOM      6  C   UNL     1       4.467   5.087  -3.184  0.00  0.00    +0.220 A 
ATOM      7  N   UNL     1       4.964   6.030  -4.045  0.00  0.00    -0.297 N 
ATOM      8  C   UNL     1       5.643   7.230  -3.550  0.00  0.00    +0.127 C 
ATOM      9  C   UNL     1       5.127   8.483  -4.289  0.00  0.00    +0.130 C 
ATOM     10  N   UNL     1       5.109   8.294  -5.745  0.00  0.00    -0.264 N 
ATOM     11  C   UNL     1       5.659   9.167  -6.660  0.00  0.00    +0.403 C 
ATOM     12  O   UNL     1       5.602   9.004  -7.873  0.00  0.00    -0.226 OA
ATOM     13  C   UNL     1       4.448   7.064  -6.203  0.00  0.00    +0.130 C 
ATOM     14  C   UNL     1       5.004   5.812  -5.489  0.00  0.00    +0.127 C 
ATOM     15  N   UNL     1       4.354   5.428  -1.898  0.00  0.00    -0.199 NA
ATOM     16  C   UNL     1       3.822   4.542  -1.060  0.00  0.00    +0.129 A 
ATOM     17  N   UNL     1       3.686   4.997   0.259  0.00  0.00    -0.343 N 
ATOM     18  H   UNL     1       4.139   4.372   0.915  0.00  0.00    +0.144 HD
ATOM     19  H   UNL     1       4.100   5.926   0.287  0.00  0.00    +0.144 HD
ATOM     20  C   UNL     1       3.383   3.280  -1.456  0.00  0.00    +0.047 A 
ATOM     21  C   UNL     1       2.805   2.371  -0.556  0.00  0.00    +0.063 A 
ENDROOT
BRANCH   1  23
ATOM     22  C   UNL     1       1.215   0.794   1.108  0.00  0.00    +0.277 C 
ATOM     23  O   UNL     1       1.817   0.237  -0.059  0.00  0.00    -0.491 OA
ENDBRANCH   1  23
BRANCH   2  24
ATOM     24  O   UNL     1       2.160  -0.479  -2.826  0.00  0.00    -0.488 OA
ATOM     25  C   UNL     1       1.597  -1.496  -2.011  0.00  0.00    +0.277 C 
ENDBRANCH   2  24
BRANCH   3  26
ATOM     26  O   UNL     1       3.324   1.463  -4.571  0.00  0.00    -0.489 OA
ATOM     27  C   UNL     1       2.953   0.239  -5.187  0.00  0.00    +0.277 C 
ENDBRANCH   3  26
BRANCH  11  28
ATOM     28  O   UNL     1       6.329  10.201  -6.076  0.00  0.00    -0.447 OA
BRANCH  28  29
ATOM     29  C   UNL     1       7.275  10.883  -6.917  0.00  0.00    +0.267 C 
BRANCH  29  30
ATOM     30  C   UNL     1       6.899  12.341  -7.250  0.00  0.00    +0.094 C 
ATOM     31  C   UNL     1       6.824  13.198  -5.985  0.00  0.00    +0.044 C 
ATOM     32  C   UNL     1       5.591  12.447  -8.033  0.00  0.00    +0.044 C 
BRANCH  30  33
ATOM     33  O   UNL     1       7.945  12.900  -8.063  0.00  0.00    -0.386 OA
ATOM     34  H   UNL     1       7.934  12.440  -8.921  0.00  0.00    +0.210 HD
ENDBRANCH  30  33
ENDBRANCH  29  30
ENDBRANCH  28  29
ENDBRANCH  11  28
TORSDOF 7
