REMARK  Name = 
REMARK  20 active torsions:
REMARK  status: ('A' for Active; 'I' for Inactive)
REMARK    1  A    between atoms: C_2  and  N_3
REMARK    2  A    between atoms: C_2  and  C_8
REMARK    3  A    between atoms: C_2  and  C_11
REMARK    4  A    between atoms: C_4  and  O_5
REMARK    5  A    between atoms: C_4  and  O_6
REMARK    6  A    between atoms: O_6  and  C_7
REMARK    7  A    between atoms: C_8  and  C_9
REMARK    8  A    between atoms: C_8  and  C_10
REMARK    9  A    between atoms: C_19  and  C_21
REMARK   10  A    between atoms: C_24  and  C_26
REMARK   11  A    between atoms: C_35  and  C_38
REMARK   12  A    between atoms: C_45  and  C_47
REMARK   13  A    between atoms: C_50  and  C_52
REMARK   14  A    between atoms: C_52  and  N_54
REMARK   15  A    between atoms: C_52  and  C_59
REMARK   16  A    between atoms: C_55  and  O_56
REMARK   17  A    between atoms: C_55  and  O_57
REMARK   18  A    between atoms: O_57  and  C_58
REMARK   19  A    between atoms: C_59  and  C_60
REMARK   20  A    between atoms: C_59  and  C_61
REMARK                            x       y       z     vdW  Elec       q    Type
REMARK                         _______ _______ _______ _____ _____    ______ ____
ROOT
ATOM      1  C   UNL     1      16.466 -18.589  -2.770  0.00  0.00    +0.000 A 
ATOM      2  C   UNL     1      16.402 -17.180  -2.815  0.00  0.00    +0.010 A 
ATOM      3  C   UNL     1      16.319 -16.418  -1.642  0.00  0.00    +0.009 A 
ATOM      4  C   UNL     1      16.303 -17.080  -0.427  0.00  0.00    -0.008 A 
ATOM      5  C   UNL     1      16.151 -16.586   0.922  0.00  0.00    -0.008 A 
ATOM      6  C   UNL     1      16.002 -15.301   1.393  0.00  0.00    +0.009 A 
ATOM      7  C   UNL     1      15.820 -15.119   2.770  0.00  0.00    +0.009 A 
ATOM      8  C   UNL     1      15.762 -16.199   3.693  0.00  0.00    -0.017 A 
ATOM      9  C   UNL     1      15.930 -17.500   3.182  0.00  0.00    +0.019 A 
ATOM     10  C   UNL     1      16.133 -17.676   1.816  0.00  0.00    +0.033 A 
ATOM     11  C   UNL     1      16.334 -18.975   1.055  0.00  0.00    +0.300 C 
ATOM     12  F   UNL     1      17.479 -19.622   1.416  0.00  0.00    -0.195 F 
ATOM     13  F   UNL     1      15.322 -19.863   1.260  0.00  0.00    -0.195 F 
ATOM     14  C   UNL     1      16.388 -18.483  -0.379  0.00  0.00    +0.034 A 
ATOM     15  C   UNL     1      16.471 -19.241  -1.533  0.00  0.00    +0.020 A 
ENDROOT
BRANCH   8  16
ATOM     16  C   UNL     1      15.572 -15.927   5.143  0.00  0.00    -0.016 A 
ATOM     17  C   UNL     1      16.178 -16.730   6.129  0.00  0.00    +0.011 A 
ATOM     18  C   UNL     1      16.127 -16.405   7.498  0.00  0.00    +0.030 A 
ATOM     19  C   UNL     1      15.470 -15.236   7.895  0.00  0.00    +0.089 A 
ATOM     20  N   UNL     1      15.316 -14.664   9.133  0.00  0.00    -0.231 NA
ATOM     21  C   UNL     1      14.507 -13.627   8.975  0.00  0.00    +0.129 A 
ATOM     22  N   UNL     1      14.214 -13.463   7.646  0.00  0.00    -0.340 N 
ATOM     23  H   UNL     1      13.583 -12.769   7.271  0.00  0.00    +0.167 HD
ATOM     24  C   UNL     1      14.810 -14.478   6.932  0.00  0.00    +0.067 A 
ATOM     25  C   UNL     1      14.810 -14.818   5.560  0.00  0.00    +0.036 A 
BRANCH  21  26
ATOM     26  C   UNL     1      13.827 -12.900  10.113  0.00  0.00    +0.145 C 
ATOM     27  C   UNL     1      13.162 -14.016  10.995  0.00  0.00    +0.019 C 
ATOM     28  C   UNL     1      11.861 -14.262  10.217  0.00  0.00    +0.028 C 
ATOM     29  C   UNL     1      11.456 -12.802  10.304  0.00  0.00    +0.077 C 
ATOM     30  C   UNL     1      11.440 -12.569  11.829  0.00  0.00    +0.023 C 
ATOM     31  C   UNL     1      12.626 -13.422  12.305  0.00  0.00    +0.007 C 
ATOM     32  N   UNL     1      12.623 -12.108   9.743  0.00  0.00    -0.286 N 
ATOM     33  C   UNL     1      12.448 -10.768   9.450  0.00  0.00    +0.241 C 
ATOM     34  O   UNL     1      11.312 -10.283   9.468  0.00  0.00    -0.273 OA
BRANCH  33  35
ATOM     35  C   UNL     1      13.649  -9.899   9.020  0.00  0.00    +0.200 C 
BRANCH  35  36
ATOM     36  C   UNL     1      13.599  -8.442   9.620  0.00  0.00    +0.017 C 
ATOM     37  C   UNL     1      13.692  -8.474  11.161  0.00  0.00    +0.010 C 
ATOM     38  C   UNL     1      12.403  -7.549   9.253  0.00  0.00    +0.010 C 
ENDBRANCH  35  36
BRANCH  35  39
ATOM     39  N   UNL     1      13.646  -9.938   7.526  0.00  0.00    -0.204 NA
ATOM     40  C   UNL     1      14.739 -10.066   6.872  0.00  0.00    +0.384 C 
BRANCH  40  41
ATOM     41  O   UNL     1      14.882 -10.265   5.544  0.00  0.00    -0.453 OA
ATOM     42  C   UNL     1      13.864 -10.790   4.680  0.00  0.00    +0.282 C 
ENDBRANCH  40  41
BRANCH  40  43
ATOM     43  O   UNL     1      15.968 -10.042   7.400  0.00  0.00    -0.466 OA
ATOM     44  H   UNL     1      15.979  -9.699   8.298  0.00  0.00    +0.297 HD
ENDBRANCH  40  43
ENDBRANCH  35  39
ENDBRANCH  33  35
ENDBRANCH  21  26
ENDBRANCH   8  16
BRANCH   1  48
ATOM     45  C   UNL     1      15.963 -20.965  -5.459  0.00  0.00    +0.128 A 
ATOM     46  N   UNL     1      15.866 -20.583  -4.147  0.00  0.00    -0.340 N 
ATOM     47  H   UNL     1      15.312 -21.060  -3.450  0.00  0.00    +0.167 HD
ATOM     48  C   UNL     1      16.490 -19.366  -3.999  0.00  0.00    +0.066 A 
ATOM     49  C   UNL     1      17.025 -19.114  -5.245  0.00  0.00    +0.139 A 
ATOM     50  N   UNL     1      16.737 -20.124  -6.121  0.00  0.00    -0.238 NA
BRANCH  45  53
ATOM     51  C   UNL     1      13.584 -23.380  -4.492  0.00  0.00    +0.241 C 
ATOM     52  N   UNL     1      13.915 -22.327  -5.321  0.00  0.00    -0.289 N 
ATOM     53  C   UNL     1      15.174 -22.103  -6.059  0.00  0.00    +0.143 C 
ATOM     54  C   UNL     1      14.653 -21.665  -7.439  0.00  0.00    +0.039 C 
ATOM     55  C   UNL     1      13.429 -20.854  -7.074  0.00  0.00    -0.011 C 
ATOM     56  C   UNL     1      13.419 -19.357  -7.314  0.00  0.00    +0.009 C 
ATOM     57  C   UNL     1      12.553 -20.257  -8.148  0.00  0.00    +0.009 C 
ATOM     58  C   UNL     1      12.876 -21.402  -5.779  0.00  0.00    +0.115 C 
ATOM     59  O   UNL     1      12.459 -23.474  -3.988  0.00  0.00    -0.273 OA
BRANCH  51  60
ATOM     60  C   UNL     1      14.680 -24.381  -4.066  0.00  0.00    +0.200 C 
BRANCH  60  61
ATOM     61  C   UNL     1      14.155 -25.754  -3.546  0.00  0.00    +0.017 C 
ATOM     62  C   UNL     1      15.298 -26.640  -3.024  0.00  0.00    +0.010 C 
ATOM     63  C   UNL     1      13.405 -26.522  -4.641  0.00  0.00    +0.010 C 
ENDBRANCH  60  61
BRANCH  60  64
ATOM     64  N   UNL     1      15.524 -23.738  -3.048  0.00  0.00    -0.204 NA
ATOM     65  C   UNL     1      15.078 -23.364  -1.911  0.00  0.00    +0.384 C 
BRANCH  65  66
ATOM     66  O   UNL     1      15.875 -22.888  -0.930  0.00  0.00    -0.453 OA
ATOM     67  C   UNL     1      17.283 -22.972  -1.173  0.00  0.00    +0.282 C 
ENDBRANCH  65  66
BRANCH  65  68
ATOM     68  O   UNL     1      13.804 -23.343  -1.498  0.00  0.00    -0.466 OA
ATOM     69  H   UNL     1      13.162 -23.568  -2.192  0.00  0.00    +0.297 HD
ENDBRANCH  65  68
ENDBRANCH  60  64
ENDBRANCH  51  60
ENDBRANCH  45  53
ENDBRANCH   1  48
TORSDOF 14
