REMARK  Name = 
REMARK  15 active torsions:
REMARK  status: ('A' for Active; 'I' for Inactive)
REMARK    1  A    between atoms: C_1  and  C_2
REMARK    2  A    between atoms: C_3  and  C_27
REMARK    3  A    between atoms: C_4  and  C_5
REMARK    4  A    between atoms: C_9  and  N_11
REMARK    5  A    between atoms: C_14  and  P_18
REMARK    6  A    between atoms: C_15  and  C_16
REMARK    7  A    between atoms: C_22  and  C_23
REMARK    8  A    between atoms: C_22  and  C_24
REMARK    9  A    between atoms: C_27  and  O_29
REMARK   10  A    between atoms: O_29  and  C_30
REMARK   11  A    between atoms: C_30  and  C_31
REMARK   12  A    between atoms: C_31  and  N_32
REMARK   13  A    between atoms: N_32  and  C_33
REMARK   14  A    between atoms: N_32  and  C_40
REMARK   15  A    between atoms: C_33  and  C_34
REMARK                            x       y       z     vdW  Elec       q    Type
REMARK                         _______ _______ _______ _____ _____    ______ ____
ROOT
ATOM      1  C   UNL     1       0.869  -0.450   0.089  0.00  0.00    +0.061 C 
ATOM      2  C   UNL     1       2.349  -0.195   0.258  0.00  0.00    +0.016 C 
ATOM      3  N   UNL     1       3.108  -1.361   0.211  0.00  0.00    -0.321 N 
ATOM      4  H   UNL     1       2.581  -2.198  -0.044  0.00  0.00    +0.152 HD
ATOM      5  C   UNL     1       4.454  -1.392  -0.106  0.00  0.00    +0.017 C 
ATOM      6  C   UNL     1       4.898  -2.678  -0.748  0.00  0.00    +0.061 C 
ATOM      7  C   UNL     1       5.202  -0.274   0.080  0.00  0.00    +0.070 C 
ATOM      8  C   UNL     1       4.509   1.012   0.604  0.00  0.00    +0.097 C 
ATOM      9  C   UNL     1       2.969   1.000   0.424  0.00  0.00    +0.065 C 
ENDROOT
BRANCH   7  10
ATOM     10  P   UNL     1       6.844   0.027  -0.515  0.00  0.00    +0.362 P 
ATOM     11  O   UNL     1       7.658  -1.345  -0.754  0.00  0.00    -0.304 OA
ATOM     12  C   UNL     1       8.020  -2.230   0.282  0.00  0.00    +0.179 C 
ATOM     13  C   UNL     1       8.346  -1.618   1.658  0.00  0.00    +0.013 C 
ATOM     14  C   UNL     1       9.869  -1.569   1.863  0.00  0.00    +0.015 C 
ATOM     15  C   UNL     1       7.744  -2.540   2.749  0.00  0.00    +0.015 C 
ATOM     16  C   UNL     1       7.789  -0.210   1.872  0.00  0.00    +0.179 C 
ATOM     17  O   UNL     1       7.723   0.587   0.717  0.00  0.00    -0.304 OA
ATOM     18  O   UNL     1       7.014   0.919  -1.715  0.00  0.00    -0.253 OA
ENDBRANCH   7  10
BRANCH   8  19
ATOM     19  C   UNL     1       4.829   1.367   2.079  0.00  0.00    -0.029 A 
ATOM     20  C   UNL     1       5.125   2.698   2.424  0.00  0.00    +0.088 A 
ATOM     21  C   UNL     1       5.130   3.084   3.770  0.00  0.00    +0.273 A 
ATOM     22  C   UNL     1       5.027   2.155   4.802  0.00  0.00    +0.084 A 
ATOM     23  C   UNL     1       4.857   0.815   4.472  0.00  0.00    +0.007 A 
ATOM     24  C   UNL     1       4.692   0.436   3.131  0.00  0.00    +0.005 A 
BRANCH  21  25
ATOM     25  N   UNL     1       5.087   4.498   4.098  0.00  0.00    +0.080 N 
ATOM     26  O   UNL     1       5.991   5.207   3.648  0.00  0.00    +0.041 OA
ATOM     27  O   UNL     1       4.136   4.878   4.797  0.00  0.00    -0.576 OA
ENDBRANCH  21  25
ENDBRANCH   8  19
BRANCH   9  28
ATOM     28  C   UNL     1       2.229   2.311   0.531  0.00  0.00    +0.338 C 
ATOM     29  O   UNL     1       1.022   2.417   0.687  0.00  0.00    -0.245 OA
BRANCH  28  30
ATOM     30  O   UNL     1       3.081   3.377   0.515  0.00  0.00    -0.460 OA
BRANCH  30  31
ATOM     31  C   UNL     1       2.632   4.620   1.121  0.00  0.00    +0.251 C 
BRANCH  31  32
ATOM     32  C   UNL     1       3.090   5.846   0.306  0.00  0.00    +0.146 C 
BRANCH  32  33
ATOM     33  N   UNL     1       3.140   7.091   1.119  0.00  0.00    -0.322 N 
BRANCH  33  34
ATOM     34  C   UNL     1       4.344   7.645   1.577  0.00  0.00    +0.030 A 
ATOM     35  C   UNL     1       4.353   8.585   2.628  0.00  0.00    +0.023 A 
ATOM     36  C   UNL     1       5.544   9.142   3.128  0.00  0.00    +0.002 A 
ATOM     37  C   UNL     1       6.756   8.783   2.587  0.00  0.00    +0.000 A 
ATOM     38  C   UNL     1       6.793   7.873   1.536  0.00  0.00    +0.002 A 
ATOM     39  C   UNL     1       5.602   7.319   1.045  0.00  0.00    +0.023 A 
ENDBRANCH  33  34
BRANCH  33  40
ATOM     40  C   UNL     1       1.991   8.018   1.006  0.00  0.00    +0.140 C 
BRANCH  40  41
ATOM     41  C   UNL     1       0.999   7.980   2.157  0.00  0.00    -0.030 A 
ATOM     42  C   UNL     1       0.008   8.976   2.239  0.00  0.00    +0.005 A 
ATOM     43  C   UNL     1      -1.064   8.850   3.128  0.00  0.00    +0.000 A 
ATOM     44  C   UNL     1      -1.170   7.719   3.933  0.00  0.00    +0.000 A 
ATOM     45  C   UNL     1      -0.154   6.769   3.924  0.00  0.00    +0.000 A 
ATOM     46  C   UNL     1       0.940   6.923   3.072  0.00  0.00    +0.005 A 
ENDBRANCH  40  41
ENDBRANCH  33  40
ENDBRANCH  32  33
ENDBRANCH  31  32
ENDBRANCH  30  31
ENDBRANCH  28  30
ENDBRANCH   9  28
TORSDOF 11
