REMARK  Name = 
REMARK  2 active torsions:
REMARK  status: ('A' for Active; 'I' for Inactive)
REMARK    1  A    between atoms: C_3  and  C_4
REMARK    2  A    between atoms: C_4  and  N_5
REMARK                            x       y       z     vdW  Elec       q    Type
REMARK                         _______ _______ _______ _____ _____    ______ ____
ROOT
ATOM      1 CL   UNL     1       4.297   0.895  -2.466  0.00  0.00    -0.076 Cl
ATOM      2  C   UNL     1       3.909   0.207  -0.936  0.00  0.00    +0.128 A 
ATOM      3  C   UNL     1       4.506  -1.127  -0.624  0.00  0.00    +0.273 A 
ATOM      4  O   UNL     1       5.126  -1.792  -1.452  0.00  0.00    -0.266 OA
ATOM      5  N   UNL     1       4.323  -1.586   0.653  0.00  0.00    -0.274 N 
ATOM      6  H   UNL     1       4.719  -2.477   0.890  0.00  0.00    +0.173 HD
ATOM      7  C   UNL     1       3.520  -1.000   1.591  0.00  0.00    +0.327 A 
ATOM      8  O   UNL     1       3.349  -1.502   2.695  0.00  0.00    -0.247 OA
ATOM      9  N   UNL     1       2.939   0.171   1.207  0.00  0.00    -0.307 N 
ATOM     10  H   UNL     1       2.258   0.581   1.860  0.00  0.00    +0.170 HD
ATOM     11  C   UNL     1       3.127   0.796  -0.012  0.00  0.00    +0.084 A 
ENDROOT
BRANCH  11  12
ATOM     12  C   UNL     1       2.472   2.157  -0.156  0.00  0.00    +0.281 C 
BRANCH  12  13
ATOM     13  N   UNL     1       1.013   2.079  -0.071  0.00  0.00    -0.219 N 
ATOM     14  C   UNL     1       0.358   2.021   1.141  0.00  0.00    +0.281 C 
ATOM     15  N   UNL     1       0.737   1.366   2.184  0.00  0.00    -0.104 NA
ATOM     16  H   UNL     1       0.035   1.461   2.930  0.00  0.00    +0.363 HD
ATOM     17  C   UNL     1      -0.904   2.850   1.117  0.00  0.00    +0.131 C 
ATOM     18  C   UNL     1      -0.617   3.761  -0.073  0.00  0.00    +0.056 C 
ATOM     19  C   UNL     1       0.230   2.893  -1.003  0.00  0.00    +0.226 C 
ENDBRANCH  12  13
ENDBRANCH  11  12
TORSDOF 2
