REMARK  Name = 
REMARK  8 active torsions:
REMARK  status: ('A' for Active; 'I' for Inactive)
REMARK    1  A    between atoms: C_1  and  N_2
REMARK    2  A    between atoms: N_2  and  C_3
REMARK    3  A    between atoms: C_4  and  C_6
REMARK    4  A    between atoms: C_10  and  N_12
REMARK    5  A    between atoms: C_13  and  C_15
REMARK    6  A    between atoms: C_25  and  N_28
REMARK    7  A    between atoms: C_29  and  C_31
REMARK    8  A    between atoms: N_36  and  C_37
REMARK                            x       y       z     vdW  Elec       q    Type
REMARK                         _______ _______ _______ _____ _____    ______ ____
ROOT
ATOM      1  C   UNL     1       4.547   0.393  -1.272  0.00  0.00    +0.077 C 
ATOM      2  C   UNL     1       5.054   1.434  -2.291  0.00  0.00    +0.037 C 
ATOM      3  C   UNL     1       4.821   1.049  -3.766  0.00  0.00    +0.094 C 
ATOM      4  C   UNL     1       5.345  -0.383  -4.071  0.00  0.00    +0.094 C 
ATOM      5  C   UNL     1       4.773  -1.397  -3.070  0.00  0.00    +0.025 C 
ATOM      6  C   UNL     1       5.051  -1.013  -1.615  0.00  0.00    +0.014 C 
ENDROOT
BRANCH   1   9
ATOM      7  C   UNL     1       0.975  -0.036   0.068  0.00  0.00    +0.131 C 
ATOM      8  N   UNL     1       2.429   0.016   0.037  0.00  0.00    -0.307 N 
ATOM      9  C   UNL     1       3.013   0.387  -1.169  0.00  0.00    +0.218 C 
ATOM     10  O   UNL     1       2.320   0.629  -2.159  0.00  0.00    -0.275 OA
ATOM     11  C   UNL     1       3.139  -0.028   1.304  0.00  0.00    +0.131 C 
ENDBRANCH   1   9
BRANCH   3  12
ATOM     12  N   UNL     1       5.400   2.054  -4.663  0.00  0.00    -0.305 N 
ATOM     13  H   UNL     1       5.942   2.837  -4.308  0.00  0.00    +0.149 HD
ATOM     14  C   UNL     1       5.062   2.106  -6.012  0.00  0.00    +0.269 C 
ATOM     15  O   UNL     1       4.343   1.249  -6.524  0.00  0.00    -0.268 OA
BRANCH  14  16
ATOM     16  C   UNL     1       5.624   3.250  -6.730  0.00  0.00    +0.163 A 
ATOM     17  S   UNL     1       5.416   3.405  -8.434  0.00  0.00    -0.066 S 
ATOM     18  C   UNL     1       6.268   4.874  -8.384  0.00  0.00    +0.027 A 
ATOM     19  C   UNL     1       6.515   5.758  -9.566  0.00  0.00    +0.128 C 
ATOM     20  N   UNL     1       7.525   6.810  -9.281  0.00  0.00    -0.300 NA
ATOM     21  C   UNL     1       7.319   7.399  -7.935  0.00  0.00    +0.090 C 
ATOM     22  C   UNL     1       7.403   6.399  -6.756  0.00  0.00    +0.071 C 
ATOM     23  C   UNL     1       8.887   6.303  -9.449  0.00  0.00    +0.105 C 
ATOM     24  C   UNL     1       6.649   5.160  -7.090  0.00  0.00    +0.055 A 
ATOM     25  N   UNL     1       6.300   4.223  -6.137  0.00  0.00    -0.239 NA
ENDBRANCH  14  16
ENDBRANCH   3  12
BRANCH   4  26
ATOM     26  N   UNL     1       6.804  -0.418  -4.080  0.00  0.00    -0.303 N 
ATOM     27  H   UNL     1       7.327   0.445  -3.945  0.00  0.00    +0.149 HD
ATOM     28  C   UNL     1       7.540  -1.477  -4.553  0.00  0.00    +0.300 C 
ATOM     29  O   UNL     1       7.123  -2.560  -4.938  0.00  0.00    -0.265 OA
BRANCH  28  30
ATOM     30  C   UNL     1       9.052  -1.196  -4.570  0.00  0.00    +0.304 C 
ATOM     31  N   UNL     1       9.770  -2.265  -5.053  0.00  0.00    -0.263 N 
ATOM     32  H   UNL     1       9.223  -3.072  -5.338  0.00  0.00    +0.157 HD
ATOM     33  C   UNL     1      11.154  -2.280  -5.206  0.00  0.00    +0.125 A 
ATOM     34  C   UNL     1      11.743  -3.411  -5.766  0.00  0.00    +0.045 A 
ATOM     35  C   UNL     1      13.129  -3.427  -5.957  0.00  0.00    +0.025 A 
ATOM     36  C   UNL     1      13.879  -2.322  -5.576  0.00  0.00    +0.059 A 
ATOM     37 CL   UNL     1      15.579  -2.290  -5.800  0.00  0.00    -0.082 Cl
ATOM     38  C   UNL     1      13.216  -1.248  -5.012  0.00  0.00    +0.132 A 
ATOM     39  N   UNL     1      11.879  -1.212  -4.826  0.00  0.00    -0.239 NA
ATOM     40  O   UNL     1       9.428  -0.101  -4.176  0.00  0.00    -0.265 OA
ENDBRANCH  28  30
ENDBRANCH   4  26
TORSDOF 5
