REMARK  Name = 
REMARK  7 active torsions:
REMARK  status: ('A' for Active; 'I' for Inactive)
REMARK    1  A    between atoms: C_1  and  C_2
REMARK    2  A    between atoms: N_6  and  C_7
REMARK    3  A    between atoms: C_7  and  C_8
REMARK    4  A    between atoms: C_8  and  C_9
REMARK    5  A    between atoms: C_9  and  C_10
REMARK    6  A    between atoms: C_9  and  C_13
REMARK    7  A    between atoms: C_9  and  C_19
REMARK                            x       y       z     vdW  Elec       q    Type
REMARK                         _______ _______ _______ _____ _____    ______ ____
ROOT
ATOM      1  C   UNL     1       0.670  -4.048  -0.042  0.00  0.00    +0.098 C 
ENDROOT
BRANCH   1   2
ATOM      2  C   UNL     1      -0.884  -4.014  -0.048  0.00  0.00    -0.028 A 
ATOM      3  C   UNL     1      -1.615  -2.902   0.413  0.00  0.00    +0.005 A 
ATOM      4  C   UNL     1      -3.008  -2.850   0.294  0.00  0.00    +0.000 A 
ATOM      5  C   UNL     1      -3.708  -3.926  -0.242  0.00  0.00    +0.000 A 
ATOM      6  C   UNL     1      -3.018  -5.067  -0.632  0.00  0.00    +0.000 A 
ATOM      7  C   UNL     1      -1.625  -5.114  -0.524  0.00  0.00    +0.005 A 
ENDBRANCH   1   2
BRANCH   1   8
ATOM      8  C   UNL     1       1.149  -4.757   1.272  0.00  0.00    -0.028 A 
ATOM      9  C   UNL     1       1.257  -6.162   1.349  0.00  0.00    +0.005 A 
ATOM     10  C   UNL     1       1.754  -6.794   2.496  0.00  0.00    +0.000 A 
ATOM     11  C   UNL     1       2.110  -6.045   3.611  0.00  0.00    +0.000 A 
ATOM     12  C   UNL     1       1.948  -4.667   3.589  0.00  0.00    +0.000 A 
ATOM     13  C   UNL     1       1.465  -4.032   2.439  0.00  0.00    +0.005 A 
ENDBRANCH   1   8
BRANCH   1  14
ATOM     14  C   UNL     1       1.224  -4.776  -1.333  0.00  0.00    +0.225 C 
ATOM     15  O   UNL     1       0.626  -4.834  -2.403  0.00  0.00    -0.275 OA
ATOM     16  N   UNL     1       2.507  -5.252  -1.303  0.00  0.00    -0.328 N 
ATOM     17  H   UNL     1       2.798  -5.780  -2.117  0.00  0.00    +0.145 HD
ATOM     18  H   UNL     1       2.992  -5.438  -0.433  0.00  0.00    +0.145 HD
ENDBRANCH   1  14
BRANCH   1  19
ATOM     19  C   UNL     1       1.313  -2.611  -0.158  0.00  0.00    +0.047 C 
BRANCH  19  20
ATOM     20  C   UNL     1       0.938  -1.812  -1.420  0.00  0.00    +0.124 C 
BRANCH  20  23
ATOM     21  C   UNL     1       3.563  -0.787  -2.710  0.00  0.00    +0.086 C 
ATOM     22  C   UNL     1       2.607   0.037  -1.927  0.00  0.00    +0.106 A 
ATOM     23  N   UNL     1       1.450  -0.449  -1.363  0.00  0.00    -0.334 N 
ATOM     24  C   UNL     1       0.820   0.600  -0.743  0.00  0.00    +0.107 A 
ATOM     25  C   UNL     1       1.635   1.685  -0.958  0.00  0.00    +0.130 A 
ATOM     26  N   UNL     1       2.739   1.326  -1.680  0.00  0.00    -0.241 NA
ENDBRANCH  20  23
ENDBRANCH  19  20
ENDBRANCH   1  19
TORSDOF 6
