REMARK  Name = 
REMARK  20 active torsions:
REMARK  status: ('A' for Active; 'I' for Inactive)
REMARK    1  A    between atoms: C_3  and  C_4
REMARK    2  A    between atoms: C_5  and  C_28
REMARK    3  A    between atoms: C_6  and  C_7
REMARK    4  A    between atoms: C_9  and  N_13
REMARK    5  A    between atoms: C_16  and  C_17
REMARK    6  A    between atoms: C_17  and  O_19
REMARK    7  A    between atoms: O_19  and  C_20
REMARK    8  A    between atoms: C_20  and  C_21
REMARK    9  A    between atoms: C_21  and  O_22
REMARK   10  A    between atoms: O_22  and  C_23
REMARK   11  A    between atoms: C_23  and  C_24
REMARK   12  A    between atoms: C_24  and  C_25
REMARK   13  A    between atoms: C_26  and  C_27
REMARK   14  A    between atoms: C_28  and  O_30
REMARK   15  A    between atoms: O_30  and  C_31
REMARK   16  A    between atoms: C_31  and  C_32
REMARK   17  A    between atoms: C_32  and  O_33
REMARK   18  A    between atoms: O_33  and  C_34
REMARK   19  A    between atoms: C_34  and  C_35
REMARK   20  A    between atoms: C_35  and  C_36
REMARK                            x       y       z     vdW  Elec       q    Type
REMARK                         _______ _______ _______ _____ _____    ______ ____
ROOT
ATOM      1  H   UNL     1       1.211  -0.047  -0.621  0.00  0.00    +0.152 HD
ATOM      2  N   UNL     1       2.206  -0.043  -0.404  0.00  0.00    -0.321 N 
ATOM      3  C   UNL     1       2.776  -1.272  -0.123  0.00  0.00    +0.016 C 
ATOM      4  C   UNL     1       1.822  -2.426  -0.343  0.00  0.00    +0.061 C 
ATOM      5  C   UNL     1       4.053  -1.322   0.333  0.00  0.00    +0.065 C 
ATOM      6  C   UNL     1       4.890  -0.021   0.469  0.00  0.00    +0.096 C 
ATOM      7  C   UNL     1       4.082   1.268   0.230  0.00  0.00    +0.065 C 
ATOM      8  C   UNL     1       2.789   1.188  -0.176  0.00  0.00    +0.016 C 
ATOM      9  C   UNL     1       1.871   2.369  -0.404  0.00  0.00    +0.061 C 
ENDROOT
BRANCH   6  10
ATOM     10  C   UNL     1       6.149  -0.113  -0.410  0.00  0.00    -0.029 A 
ATOM     11  C   UNL     1       6.066  -0.120  -1.813  0.00  0.00    +0.005 A 
ATOM     12  C   UNL     1       7.215  -0.255  -2.599  0.00  0.00    +0.007 A 
ATOM     13  C   UNL     1       8.469  -0.391  -2.003  0.00  0.00    +0.084 A 
ATOM     14  C   UNL     1       8.566  -0.381  -0.608  0.00  0.00    +0.273 A 
ATOM     15  C   UNL     1       7.419  -0.240   0.187  0.00  0.00    +0.088 A 
BRANCH  14  16
ATOM     16  N   UNL     1       9.882  -0.539   0.029  0.00  0.00    +0.080 N 
ATOM     17  O   UNL     1      10.868  -0.678  -0.708  0.00  0.00    +0.041 OA
ATOM     18  O   UNL     1       9.928  -0.529   1.268  0.00  0.00    -0.576 OA
ENDBRANCH  14  16
ENDBRANCH   6  10
BRANCH   7  19
ATOM     19  C   UNL     1       4.717   2.612   0.416  0.00  0.00    +0.338 C 
ATOM     20  O   UNL     1       4.211   3.664   0.051  0.00  0.00    -0.245 OA
BRANCH  19  21
ATOM     21  O   UNL     1       5.958   2.535   0.964  0.00  0.00    -0.459 OA
BRANCH  21  22
ATOM     22  C   UNL     1       6.806   3.664   0.663  0.00  0.00    +0.260 C 
BRANCH  22  23
ATOM     23  C   UNL     1       7.012   4.632   1.829  0.00  0.00    +0.201 C 
BRANCH  23  24
ATOM     24  O   UNL     1       7.905   5.668   1.391  0.00  0.00    -0.376 OA
BRANCH  24  25
ATOM     25  C   UNL     1       8.209   6.612   2.418  0.00  0.00    +0.159 C 
BRANCH  25  26
ATOM     26  C   UNL     1       9.153   7.673   1.850  0.00  0.00    +0.025 C 
ATOM     27  C   UNL     1       9.542   8.707   2.894  0.00  0.00    +0.006 C 
ENDBRANCH  25  26
ENDBRANCH  24  25
ENDBRANCH  23  24
ENDBRANCH  22  23
ENDBRANCH  21  22
ENDBRANCH  19  21
ENDBRANCH   7  19
BRANCH   5  28
ATOM     28  C   UNL     1       4.652  -2.595   0.841  0.00  0.00    +0.338 C 
ATOM     29  O   UNL     1       4.284  -3.730   0.581  0.00  0.00    -0.245 OA
BRANCH  28  30
ATOM     30  O   UNL     1       5.581  -2.302   1.783  0.00  0.00    -0.459 OA
BRANCH  30  31
ATOM     31  C   UNL     1       5.430  -3.031   3.005  0.00  0.00    +0.260 C 
BRANCH  31  32
ATOM     32  C   UNL     1       6.493  -4.097   3.229  0.00  0.00    +0.201 C 
BRANCH  32  33
ATOM     33  O   UNL     1       6.333  -4.581   4.567  0.00  0.00    -0.376 OA
BRANCH  33  34
ATOM     34  C   UNL     1       7.302  -5.567   4.914  0.00  0.00    +0.159 C 
BRANCH  34  35
ATOM     35  C   UNL     1       7.050  -6.003   6.356  0.00  0.00    +0.025 C 
ATOM     36  C   UNL     1       8.036  -7.067   6.806  0.00  0.00    +0.006 C 
ENDBRANCH  34  35
ENDBRANCH  33  34
ENDBRANCH  32  33
ENDBRANCH  31  32
ENDBRANCH  30  31
ENDBRANCH  28  30
ENDBRANCH   5  28
TORSDOF 16
