REMARK  Name = 
REMARK  3 active torsions:
REMARK  status: ('A' for Active; 'I' for Inactive)
REMARK    1  A    between atoms: C_1  and  C_2
REMARK    2  A    between atoms: C_2  and  O_4
REMARK    3  A    between atoms: O_4  and  C_5
REMARK                            x       y       z     vdW  Elec       q    Type
REMARK                         _______ _______ _______ _____ _____    ______ ____
ROOT
ATOM      1  C   UNL     1       4.548  -0.594  -1.118  0.00  0.00    +0.213 C 
ATOM      2  C   UNL     1       4.837   0.732  -0.420  0.00  0.00    +0.015 A 
ATOM      3  C   UNL     1       5.578   0.904   0.775  0.00  0.00    +0.049 A 
ATOM      4  C   UNL     1       5.909   2.225   1.150  0.00  0.00    +0.024 A 
ATOM      5  C   UNL     1       5.485   3.340   0.423  0.00  0.00    +0.002 A 
ATOM      6  C   UNL     1       4.689   3.169  -0.696  0.00  0.00    +0.000 A 
ATOM      7  N   UNL     1       5.940  -0.171   1.676  0.00  0.00    -0.224 N 
ATOM      8  C   UNL     1       7.100  -0.109   2.463  0.00  0.00    +0.308 C 
ATOM      9  O   UNL     1       8.000   0.725   2.381  0.00  0.00    -0.252 OA
ATOM     10  N   UNL     1       7.279  -1.119   3.366  0.00  0.00    -0.313 N 
ATOM     11  H   UNL     1       8.197  -1.125   3.790  0.00  0.00    +0.147 HD
ATOM     12  H   UNL     1       6.881  -2.024   3.164  0.00  0.00    +0.147 HD
ATOM     13  C   UNL     1       4.899  -1.117   1.934  0.00  0.00    +0.046 A 
ATOM     14  C   UNL     1       4.472  -1.985   0.922  0.00  0.00    -0.022 A 
ATOM     15  C   UNL     1       3.472  -2.931   1.187  0.00  0.00    +0.005 A 
ATOM     16  C   UNL     1       2.903  -3.015   2.457  0.00  0.00    +0.000 A 
ATOM     17  C   UNL     1       3.326  -2.156   3.469  0.00  0.00    +0.002 A 
ATOM     18  C   UNL     1       4.322  -1.213   3.210  0.00  0.00    +0.024 A 
ATOM     19  C   UNL     1       4.370   1.882  -1.110  0.00  0.00    +0.009 A 
ATOM     20  C   UNL     1       5.074  -1.859  -0.444  0.00  0.00    +0.086 C 
ENDROOT
BRANCH   1  21
ATOM     21  O   UNL     1       5.160  -0.494  -2.430  0.00  0.00    -0.456 OA
BRANCH  21  23
ATOM     22  C   UNL     1       5.213  -0.868  -4.743  0.00  0.00    +0.136 C 
ATOM     23  C   UNL     1       4.553  -1.178  -3.434  0.00  0.00    +0.305 C 
ATOM     24  O   UNL     1       3.590  -1.920  -3.303  0.00  0.00    -0.251 OA
ENDBRANCH  21  23
ENDBRANCH   1  21
TORSDOF 2
