REMARK  Name = 
REMARK  17 active torsions:
REMARK  status: ('A' for Active; 'I' for Inactive)
REMARK    1  A    between atoms: C_1  and  C_2
REMARK    2  A    between atoms: C_2  and  C_3
REMARK    3  A    between atoms: C_2  and  O_4
REMARK    4  A    between atoms: O_4  and  C_5
REMARK    5  A    between atoms: C_5  and  C_7
REMARK    6  A    between atoms: C_7  and  C_9
REMARK    7  A    between atoms: C_7  and  N_10
REMARK    8  A    between atoms: N_10  and  P_11
REMARK    9  A    between atoms: P_11  and  C_13
REMARK   10  A    between atoms: P_11  and  O_29
REMARK   11  A    between atoms: C_13  and  O_14
REMARK   12  A    between atoms: O_14  and  C_15
REMARK   13  A    between atoms: C_15  and  C_17
REMARK   14  A    between atoms: C_15  and  C_18
REMARK   15  A    between atoms: C_18  and  N_19
REMARK   16  A    between atoms: C_23  and  N_24
REMARK   17  A    between atoms: O_29  and  C_30
REMARK                            x       y       z     vdW  Elec       q    Type
REMARK                         _______ _______ _______ _____ _____    ______ ____
ROOT
ATOM      1  P   UNL     1      12.109   1.986  -1.824  0.00  0.00    +0.345 P 
ATOM      2  O   UNL     1      12.620   3.232  -1.061  0.00  0.00    -0.257 OA
ENDROOT
BRANCH   1   3
ATOM      3  N   UNL     1      13.303   0.984  -1.133  0.00  0.00    -0.221 NA
ATOM      4  H   UNL     1      13.529   1.337  -0.203  0.00  0.00    +0.133 HD
BRANCH   3   5
ATOM      5  C   UNL     1      14.581   0.754  -1.844  0.00  0.00    +0.169 C 
ATOM      6  C   UNL     1      15.402   2.029  -2.015  0.00  0.00    +0.036 C 
BRANCH   5   7
ATOM      7  C   UNL     1      15.419  -0.246  -1.030  0.00  0.00    +0.325 C 
ATOM      8  O   UNL     1      15.388  -0.338   0.192  0.00  0.00    -0.249 OA
BRANCH   7   9
ATOM      9  O   UNL     1      16.223  -0.998  -1.843  0.00  0.00    -0.461 OA
BRANCH   9  11
ATOM     10  C   UNL     1      16.105  -3.234  -0.923  0.00  0.00    +0.052 C 
ATOM     11  C   UNL     1      16.995  -2.022  -1.182  0.00  0.00    +0.170 C 
ATOM     12  C   UNL     1      18.162  -2.418  -2.082  0.00  0.00    +0.052 C 
ENDBRANCH   9  11
ENDBRANCH   7   9
ENDBRANCH   5   7
ENDBRANCH   3   5
ENDBRANCH   1   3
BRANCH   1  13
ATOM     13  O   UNL     1      11.539   0.593  -2.677  0.00  0.00    -0.431 OA
BRANCH  13  14
ATOM     14  C   UNL     1      11.622   0.331  -4.004  0.00  0.00    +0.129 A 
ATOM     15  C   UNL     1      11.553   1.287  -5.002  0.00  0.00    +0.046 A 
ATOM     16  C   UNL     1      11.440   0.862  -6.331  0.00  0.00    +0.004 A 
ATOM     17  C   UNL     1      11.414  -0.501  -6.648  0.00  0.00    +0.000 A 
ATOM     18  C   UNL     1      11.525  -1.453  -5.640  0.00  0.00    +0.004 A 
ATOM     19  C   UNL     1      11.627  -1.033  -4.319  0.00  0.00    +0.046 A 
ENDBRANCH  13  14
ENDBRANCH   1  13
BRANCH   1  20
ATOM     20  C   UNL     1      10.597   1.730  -0.645  0.00  0.00    +0.286 C 
BRANCH  20  21
ATOM     21  O   UNL     1       9.383   1.967  -1.372  0.00  0.00    -0.363 OA
BRANCH  21  22
ATOM     22  C   UNL     1       9.252   3.262  -1.971  0.00  0.00    +0.136 C 
ATOM     23  C   UNL     1       9.290   4.398  -0.953  0.00  0.00    +0.040 C 
BRANCH  22  24
ATOM     24  C   UNL     1       7.969   3.253  -2.817  0.00  0.00    +0.156 C 
BRANCH  24  25
ATOM     25  N   UNL     1       6.748   3.119  -2.055  0.00  0.00    -0.312 N 
ATOM     26  C   UNL     1       5.985   4.140  -1.562  0.00  0.00    +0.165 A 
ATOM     27  C   UNL     1       4.929   3.512  -0.921  0.00  0.00    +0.147 A 
ATOM     28  C   UNL     1       3.997   4.346  -0.283  0.00  0.00    +0.147 A 
ATOM     29  N   UNL     1       4.173   5.685  -0.353  0.00  0.00    -0.219 NA
ATOM     30  C   UNL     1       5.252   6.158  -1.015  0.00  0.00    +0.225 A 
ATOM     31  N   UNL     1       5.014   2.140  -1.060  0.00  0.00    -0.231 NA
ATOM     32  N   UNL     1       6.211   5.462  -1.659  0.00  0.00    -0.216 NA
ATOM     33  C   UNL     1       6.123   1.941  -1.741  0.00  0.00    +0.201 A 
BRANCH  28  34
ATOM     34  N   UNL     1       2.891   3.862   0.405  0.00  0.00    -0.341 N 
ATOM     35  H   UNL     1       2.153   4.549   0.471  0.00  0.00    +0.144 HD
ATOM     36  H   UNL     1       2.639   2.917   0.137  0.00  0.00    +0.144 HD
ENDBRANCH  28  34
ENDBRANCH  24  25
ENDBRANCH  22  24
ENDBRANCH  21  22
ENDBRANCH  20  21
ENDBRANCH   1  20
TORSDOF 13
