REMARK  Name = 
REMARK  8 active torsions:
REMARK  status: ('A' for Active; 'I' for Inactive)
REMARK    1  A    between atoms: C_1  and  C_2
REMARK    2  A    between atoms: C_2  and  O_4
REMARK    3  A    between atoms: C_2  and  C_23
REMARK    4  A    between atoms: O_4  and  C_5
REMARK    5  A    between atoms: C_5  and  C_6
REMARK    6  A    between atoms: C_6  and  C_17
REMARK    7  A    between atoms: C_25  and  C_33
REMARK    8  A    between atoms: C_27  and  C_29
REMARK                            x       y       z     vdW  Elec       q    Type
REMARK                         _______ _______ _______ _____ _____    ______ ____
ROOT
ATOM      1  C   UNL     1       2.895   2.554   2.425  0.00  0.00    +0.068 C 
ATOM      2  N   UNL     1       1.837   3.453   2.969  0.00  0.00    -0.303 NA
ATOM      3  H   UNL     1       1.008   2.869   3.111  0.00  0.00    +0.123 HD
ATOM      4  C   UNL     1       1.491   4.579   2.102  0.00  0.00    +0.107 C 
ATOM      5  C   UNL     1       2.704   5.462   1.704  0.00  0.00    +0.048 C 
ATOM      6  N   UNL     1       2.315   6.427   0.699  0.00  0.00    -0.309 N 
ATOM      7  H   UNL     1       1.943   6.193  -0.214  0.00  0.00    +0.149 HD
ATOM      8  C   UNL     1       2.033   7.667   1.221  0.00  0.00    +0.214 C 
ATOM      9  O   UNL     1       1.478   8.564   0.611  0.00  0.00    -0.276 OA
ATOM     10  C   UNL     1       2.490   7.707   2.651  0.00  0.00    +0.098 C 
ATOM     11  C   UNL     1       3.164   6.351   2.874  0.00  0.00    +0.036 C 
ATOM     12  C   UNL     1       3.856   4.587   1.179  0.00  0.00    +0.029 C 
ATOM     13  C   UNL     1       4.153   3.402   2.104  0.00  0.00    +0.031 C 
ENDROOT
BRANCH   1  14
ATOM     14  C   UNL     1       3.260   1.508   3.511  0.00  0.00    -0.025 A 
ATOM     15  C   UNL     1       3.184   1.843   4.879  0.00  0.00    +0.005 A 
ATOM     16  C   UNL     1       3.408   0.891   5.879  0.00  0.00    +0.000 A 
ATOM     17  C   UNL     1       3.740  -0.414   5.537  0.00  0.00    +0.000 A 
ATOM     18  C   UNL     1       3.878  -0.759   4.198  0.00  0.00    +0.000 A 
ATOM     19  C   UNL     1       3.652   0.193   3.197  0.00  0.00    +0.005 A 
ENDBRANCH   1  14
BRANCH   1  20
ATOM     20  C   UNL     1       2.379   1.868   1.107  0.00  0.00    +0.187 C 
BRANCH  20  21
ATOM     21  O   UNL     1       1.145   1.177   1.339  0.00  0.00    -0.370 OA
BRANCH  21  23
ATOM     22  C   UNL     1       0.166   1.381  -0.890  0.00  0.00    +0.043 C 
ATOM     23  C   UNL     1       0.679   0.442   0.202  0.00  0.00    +0.145 C 
BRANCH  23  24
ATOM     24  C   UNL     1      -0.430  -0.495   0.646  0.00  0.00    -0.018 A 
ATOM     25  C   UNL     1      -1.314  -0.148   1.680  0.00  0.00    +0.018 A 
ATOM     26  C   UNL     1      -2.365  -0.998   2.063  0.00  0.00    +0.056 A 
ATOM     27  C   UNL     1      -2.534  -2.214   1.383  0.00  0.00    +0.024 A 
ATOM     28  C   UNL     1      -1.673  -2.584   0.339  0.00  0.00    +0.056 A 
ATOM     29  C   UNL     1      -0.626  -1.715  -0.019  0.00  0.00    +0.018 A 
BRANCH  26  30
ATOM     30  C   UNL     1      -3.293  -0.590   3.181  0.00  0.00    +0.417 C 
ATOM     31  F   UNL     1      -3.924   0.593   2.932  0.00  0.00    -0.166 F 
ATOM     32  F   UNL     1      -2.644  -0.427   4.366  0.00  0.00    -0.166 F 
ATOM     33  F   UNL     1      -4.285  -1.494   3.422  0.00  0.00    -0.166 F 
ENDBRANCH  26  30
BRANCH  28  34
ATOM     34  C   UNL     1      -1.881  -3.894  -0.383  0.00  0.00    +0.417 C 
ATOM     35  F   UNL     1      -3.106  -3.971  -0.973  0.00  0.00    -0.166 F 
ATOM     36  F   UNL     1      -1.799  -4.966   0.452  0.00  0.00    -0.166 F 
ATOM     37  F   UNL     1      -0.975  -4.122  -1.373  0.00  0.00    -0.166 F 
ENDBRANCH  28  34
ENDBRANCH  23  24
ENDBRANCH  21  23
ENDBRANCH  20  21
ENDBRANCH   1  20
TORSDOF 7
