REMARK  Name = 
REMARK  5 active torsions:
REMARK  status: ('A' for Active; 'I' for Inactive)
REMARK    1  A    between atoms: C_1  and  C_2
REMARK    2  A    between atoms: C_2  and  N_3
REMARK    3  A    between atoms: C_2  and  C_13
REMARK    4  A    between atoms: N_3  and  N_4
REMARK    5  A    between atoms: C_5  and  C_7
REMARK                            x       y       z     vdW  Elec       q    Type
REMARK                         _______ _______ _______ _____ _____    ______ ____
ROOT
ATOM      1  N   UNL     1       2.889  -0.270  -1.490  0.00  0.00    -0.233 NA
ATOM      2  H   UNL     1       2.545  -1.206  -1.744  0.00  0.00    +0.145 HD
ENDROOT
BRANCH   1   3
ATOM      3  N   UNL     1       2.406   0.623  -2.474  0.00  0.00    -0.246 N 
ATOM      4  H   UNL     1       2.796   1.562  -2.498  0.00  0.00    +0.169 HD
ATOM      5  C   UNL     1       1.587   0.149  -3.489  0.00  0.00    +0.258 C 
ATOM      6  O   UNL     1       1.254  -1.028  -3.597  0.00  0.00    -0.269 OA
BRANCH   5   7
ATOM      7  C   UNL     1       1.131   1.166  -4.473  0.00  0.00    +0.038 A 
ATOM      8  C   UNL     1       0.896   2.493  -4.089  0.00  0.00    +0.013 A 
ATOM      9  C   UNL     1       0.479   3.428  -5.037  0.00  0.00    +0.001 A 
ATOM     10  C   UNL     1       0.289   3.041  -6.363  0.00  0.00    +0.000 A 
ATOM     11  C   UNL     1       0.498   1.715  -6.743  0.00  0.00    +0.001 A 
ATOM     12  C   UNL     1       0.912   0.774  -5.798  0.00  0.00    +0.013 A 
ENDBRANCH   5   7
ENDBRANCH   1   3
BRANCH   1  14
ATOM     13  C   UNL     1       0.871  -0.173  -0.050  0.00  0.00    +0.030 C 
ATOM     14  C   UNL     1       2.386   0.070  -0.138  0.00  0.00    +0.099 C 
BRANCH  14  15
ATOM     15  C   UNL     1       2.862   1.448   0.322  0.00  0.00    -0.029 A 
ATOM     16  C   UNL     1       4.242   1.730   0.322  0.00  0.00    +0.005 A 
ATOM     17  C   UNL     1       4.727   2.971   0.745  0.00  0.00    +0.000 A 
ATOM     18  C   UNL     1       3.843   3.950   1.186  0.00  0.00    +0.000 A 
ATOM     19  C   UNL     1       2.476   3.689   1.204  0.00  0.00    +0.000 A 
ATOM     20  C   UNL     1       1.989   2.450   0.775  0.00  0.00    +0.005 A 
ENDBRANCH  14  15
ENDBRANCH   1  14
TORSDOF 4
