REMARK  Name = 
REMARK  12 active torsions:
REMARK  status: ('A' for Active; 'I' for Inactive)
REMARK    1  A    between atoms: C_3  and  C_4
REMARK    2  A    between atoms: C_5  and  C_40
REMARK    3  A    between atoms: C_6  and  C_7
REMARK    4  A    between atoms: C_9  and  N_13
REMARK    5  A    between atoms: C_16  and  C_17
REMARK    6  A    between atoms: C_17  and  O_19
REMARK    7  A    between atoms: O_19  and  C_20
REMARK    8  A    between atoms: C_20  and  C_21
REMARK    9  A    between atoms: N_27  and  C_30
REMARK   10  A    between atoms: C_38  and  C_39
REMARK   11  A    between atoms: C_40  and  O_42
REMARK   12  A    between atoms: O_42  and  C_43
REMARK                            x       y       z     vdW  Elec       q    Type
REMARK                         _______ _______ _______ _____ _____    ______ ____
ROOT
ATOM      1  H   UNL     1       4.688   1.832   0.882  0.00  0.00    +0.152 HD
ATOM      2  N   UNL     1       4.150   1.043   0.527  0.00  0.00    -0.321 N 
ATOM      3  C   UNL     1       4.588  -0.218   0.888  0.00  0.00    +0.016 C 
ATOM      4  C   UNL     1       5.795  -0.182   1.797  0.00  0.00    +0.061 C 
ATOM      5  C   UNL     1       3.954  -1.313   0.401  0.00  0.00    +0.065 C 
ATOM      6  C   UNL     1       2.724  -1.164  -0.534  0.00  0.00    +0.096 C 
ATOM      7  C   UNL     1       2.397   0.305  -0.885  0.00  0.00    +0.065 C 
ATOM      8  C   UNL     1       3.125   1.318  -0.356  0.00  0.00    +0.016 C 
ATOM      9  C   UNL     1       2.951   2.787  -0.664  0.00  0.00    +0.061 C 
ENDROOT
BRANCH   6  10
ATOM     10  C   UNL     1       1.505  -1.918   0.028  0.00  0.00    -0.029 A 
ATOM     11  C   UNL     1       0.860  -1.500   1.205  0.00  0.00    +0.005 A 
ATOM     12  C   UNL     1      -0.235  -2.206   1.718  0.00  0.00    +0.007 A 
ATOM     13  C   UNL     1      -0.705  -3.350   1.068  0.00  0.00    +0.084 A 
ATOM     14  C   UNL     1      -0.072  -3.780  -0.104  0.00  0.00    +0.273 A 
ATOM     15  C   UNL     1       1.024  -3.071  -0.624  0.00  0.00    +0.088 A 
BRANCH  14  16
ATOM     16  N   UNL     1      -0.552  -4.989  -0.791  0.00  0.00    +0.080 N 
ATOM     17  O   UNL     1      -1.521  -5.586  -0.300  0.00  0.00    +0.041 OA
ATOM     18  O   UNL     1       0.046  -5.337  -1.818  0.00  0.00    -0.576 OA
ENDBRANCH  14  16
ENDBRANCH   6  10
BRANCH   5  19
ATOM     19  C   UNL     1       4.434  -2.671   0.771  0.00  0.00    +0.338 C 
ATOM     20  O   UNL     1       4.945  -2.952   1.844  0.00  0.00    -0.245 OA
BRANCH  19  21
ATOM     21  O   UNL     1       4.282  -3.545  -0.257  0.00  0.00    -0.459 OA
BRANCH  21  22
ATOM     22  C   UNL     1       4.794  -4.873  -0.012  0.00  0.00    +0.266 C 
BRANCH  22  23
ATOM     23  C   UNL     1       6.225  -5.022  -0.532  0.00  0.00    +0.185 C 
ATOM     24  O   UNL     1       6.696  -6.366  -0.395  0.00  0.00    -0.340 OA
ATOM     25  C   UNL     1       7.465  -6.655  -1.580  0.00  0.00    +0.174 C 
ATOM     26  C   UNL     1       6.828  -7.876  -2.250  0.00  0.00    +0.084 C 
ATOM     27  C   UNL     1       7.663  -8.400  -3.415  0.00  0.00    +0.110 C 
ATOM     28  N   UNL     1       9.037  -8.623  -2.955  0.00  0.00    -0.330 N 
ATOM     29  C   UNL     1       9.691  -7.411  -2.442  0.00  0.00    +0.110 C 
ATOM     30  C   UNL     1       8.924  -6.928  -1.214  0.00  0.00    +0.084 C 
ATOM     31  O   UNL     1       7.423  -5.517  -2.457  0.00  0.00    -0.346 OA
ATOM     32  C   UNL     1       6.325  -4.729  -2.010  0.00  0.00    +0.198 C 
BRANCH  28  33
ATOM     33  C   UNL     1       9.754  -9.774  -3.237  0.00  0.00    +0.030 A 
ATOM     34  C   UNL     1       9.374 -10.682  -4.239  0.00  0.00    +0.024 A 
ATOM     35  C   UNL     1      10.091 -11.862  -4.493  0.00  0.00    +0.022 A 
ATOM     36  C   UNL     1      11.221 -12.159  -3.744  0.00  0.00    +0.041 A 
ATOM     37 CL   UNL     1      12.110 -13.598  -4.052  0.00  0.00    -0.084 Cl
ATOM     38  C   UNL     1      11.629 -11.292  -2.741  0.00  0.00    +0.022 A 
ATOM     39  C   UNL     1      10.897 -10.123  -2.493  0.00  0.00    +0.024 A 
ENDBRANCH  28  33
ENDBRANCH  22  23
ENDBRANCH  21  22
ENDBRANCH  19  21
ENDBRANCH   5  19
BRANCH   7  40
ATOM     40  C   UNL     1       1.283   0.653  -1.809  0.00  0.00    +0.337 C 
ATOM     41  O   UNL     1       0.775   1.764  -1.874  0.00  0.00    -0.245 OA
BRANCH  40  42
ATOM     42  O   UNL     1       0.915  -0.391  -2.591  0.00  0.00    -0.465 OA
ATOM     43  C   UNL     1      -0.151  -0.083  -3.505  0.00  0.00    +0.280 C 
ENDBRANCH  40  42
ENDBRANCH   7  40
TORSDOF 9
