REMARK  Name = 
REMARK  8 active torsions:
REMARK  status: ('A' for Active; 'I' for Inactive)
REMARK    1  A    between atoms: C_2  and  C_3
REMARK    2  A    between atoms: C_3  and  N_4
REMARK    3  A    between atoms: C_9  and  C_10
REMARK    4  A    between atoms: C_9  and  C_17
REMARK    5  A    between atoms: C_13  and  C_14
REMARK    6  A    between atoms: C_21  and  C_23
REMARK    7  A    between atoms: C_25  and  C_27
REMARK    8  A    between atoms: C_27  and  O_28
REMARK                            x       y       z     vdW  Elec       q    Type
REMARK                         _______ _______ _______ _____ _____    ______ ____
ROOT
ATOM      1  C   UNL     1       2.193   0.034   0.070  0.00  0.00    -0.001 C 
ATOM      2  C   UNL     1       2.871   0.801  -0.827  0.00  0.00    +0.005 C 
ENDROOT
BRANCH   2   3
ATOM      3  C   UNL     1       4.369   0.842  -0.848  0.00  0.00    -0.016 A 
ATOM      4  C   UNL     1       5.039   2.062  -0.996  0.00  0.00    +0.009 A 
ATOM      5  C   UNL     1       6.423   2.148  -0.798  0.00  0.00    +0.004 A 
ATOM      6  C   UNL     1       7.159   1.019  -0.423  0.00  0.00    -0.050 A 
ATOM      7  C   UNL     1       8.603   1.143  -0.039  0.00  0.00    +0.044 C 
ATOM      8  C   UNL     1       6.520  -0.219  -0.393  0.00  0.00    +0.004 A 
ATOM      9  C   UNL     1       5.153  -0.309  -0.665  0.00  0.00    +0.009 A 
ENDBRANCH   2   3
BRANCH   2  10
ATOM     10  C   UNL     1       2.039   1.598  -1.772  0.00  0.00    +0.072 A 
ATOM     11  N   UNL     1       1.721   2.872  -1.418  0.00  0.00    -0.247 NA
ATOM     12  C   UNL     1       0.986   3.598  -2.301  0.00  0.00    +0.065 A 
ATOM     13  C   UNL     1       0.549   3.088  -3.519  0.00  0.00    +0.028 A 
ATOM     14  C   UNL     1       0.888   1.784  -3.862  0.00  0.00    +0.004 A 
ATOM     15  C   UNL     1       1.648   1.027  -2.978  0.00  0.00    +0.028 A 
BRANCH  12  16
ATOM     16  C   UNL     1       0.676   4.993  -1.956  0.00  0.00    +0.035 C 
ATOM     17  C   UNL     1       1.054   5.584  -0.814  0.00  0.00    +0.093 C 
BRANCH  17  18
ATOM     18  C   UNL     1       0.727   7.005  -0.594  0.00  0.00    +0.330 C 
ATOM     19  O   UNL     1       0.149   7.717  -1.397  0.00  0.00    -0.246 OA
BRANCH  18  20
ATOM     20  O   UNL     1       1.155   7.441   0.607  0.00  0.00    -0.478 OA
ATOM     21  H   UNL     1       1.597   6.768   1.156  0.00  0.00    +0.295 HD
ENDBRANCH  18  20
ENDBRANCH  17  18
ENDBRANCH  12  16
ENDBRANCH   2  10
BRANCH   1  22
ATOM     22  C   UNL     1       2.795  -0.900   1.092  0.00  0.00    +0.112 C 
BRANCH  22  23
ATOM     23  N   UNL     1       2.079  -1.085   2.355  0.00  0.00    -0.299 NA
ATOM     24  C   UNL     1       2.035   0.142   3.160  0.00  0.00    +0.085 C 
ATOM     25  C   UNL     1       2.139  -0.307   4.617  0.00  0.00    +0.017 C 
ATOM     26  C   UNL     1       2.287  -1.817   4.569  0.00  0.00    +0.017 C 
ATOM     27  C   UNL     1       2.814  -2.068   3.175  0.00  0.00    +0.085 C 
ENDBRANCH  22  23
ENDBRANCH   1  22
TORSDOF 7
