REMARK  Name = 
REMARK  12 active torsions:
REMARK  status: ('A' for Active; 'I' for Inactive)
REMARK    1  A    between atoms: C_1  and  C_2
REMARK    2  A    between atoms: C_2  and  N_3
REMARK    3  A    between atoms: N_3  and  C_4
REMARK    4  A    between atoms: N_3  and  C_6
REMARK    5  A    between atoms: C_4  and  C_5
REMARK    6  A    between atoms: C_6  and  C_7
REMARK    7  A    between atoms: C_7  and  N_8
REMARK    8  A    between atoms: C_9  and  O_10
REMARK    9  A    between atoms: C_9  and  C_11
REMARK   10  A    between atoms: C_12  and  O_13
REMARK   11  A    between atoms: O_13  and  C_14
REMARK   12  A    between atoms: C_16  and  N_17
REMARK                            x       y       z     vdW  Elec       q    Type
REMARK                         _______ _______ _______ _____ _____    ______ ____
ROOT
ATOM      1  C   UNL     1       8.592   2.018   2.362  0.00  0.00    +0.079 A 
ATOM      2  C   UNL     1       9.182   3.250   2.676  0.00  0.00    +0.034 A 
ATOM      3  C   UNL     1      10.571   3.368   2.719  0.00  0.00    +0.039 A 
ATOM      4 BR   UNL     1      11.313   5.065   3.147  0.00  0.00    -0.048 Br
ATOM      5  C   UNL     1      11.395   2.256   2.491  0.00  0.00    +0.042 A 
ATOM      6  C   UNL     1      10.795   1.051   2.094  0.00  0.00    +0.070 A 
ATOM      7  C   UNL     1       9.400   0.909   2.046  0.00  0.00    +0.134 A 
ENDROOT
BRANCH   5   8
ATOM      8  N   UNL     1      12.797   2.368   2.432  0.00  0.00    -0.357 N 
ATOM      9  H   UNL     1      13.147   3.161   2.966  0.00  0.00    +0.142 HD
ATOM     10  H   UNL     1      13.292   1.509   2.649  0.00  0.00    +0.142 HD
ENDBRANCH   5   8
BRANCH   1  12
ATOM     11  N   UNL     1       6.477   0.895   2.841  0.00  0.00    -0.249 NA
ATOM     12  C   UNL     1       7.115   1.914   2.408  0.00  0.00    +0.219 C 
BRANCH  12  13
ATOM     13  O   UNL     1       6.539   3.039   1.944  0.00  0.00    -0.492 OA
ATOM     14  H   UNL     1       5.574   2.977   1.946  0.00  0.00    +0.294 HD
ENDBRANCH  12  13
BRANCH  11  15
ATOM     15  C   UNL     1       5.021   0.826   2.874  0.00  0.00    +0.160 C 
BRANCH  15  16
ATOM     16  C   UNL     1       4.474   0.349   1.515  0.00  0.00    +0.107 C 
BRANCH  16  17
ATOM     17  N   UNL     1       2.999   0.273   1.429  0.00  0.00    -0.301 NA
BRANCH  17  19
ATOM     18  C   UNL     1       1.105  -0.143  -0.196  0.00  0.00    +0.020 C 
ATOM     19  C   UNL     1       2.611  -0.082   0.049  0.00  0.00    +0.081 C 
ENDBRANCH  17  19
BRANCH  17  20
ATOM     20  C   UNL     1       2.397  -0.597   2.454  0.00  0.00    +0.081 C 
ATOM     21  C   UNL     1       2.876  -2.046   2.478  0.00  0.00    +0.020 C 
ENDBRANCH  17  20
ENDBRANCH  16  17
ENDBRANCH  15  16
ENDBRANCH  11  15
ENDBRANCH   1  12
BRANCH   7  22
ATOM     22  O   UNL     1       8.765  -0.243   1.664  0.00  0.00    -0.494 OA
ATOM     23  C   UNL     1       9.552  -1.403   1.436  0.00  0.00    +0.277 C 
ENDBRANCH   7  22
TORSDOF 9
