REMARK  Name = 
REMARK  4 active torsions:
REMARK  status: ('A' for Active; 'I' for Inactive)
REMARK    1  A    between atoms: C_1  and  N_2
REMARK    2  A    between atoms: N_2  and  C_3
REMARK    3  A    between atoms: C_7  and  C_10
REMARK    4  A    between atoms: C_15  and  O_16
REMARK                            x       y       z     vdW  Elec       q    Type
REMARK                         _______ _______ _______ _____ _____    ______ ____
ROOT
ATOM      1  C   UNL     1       5.248   4.297   2.536  0.00  0.00    +0.110 A 
ATOM      2  S   UNL     1       6.155   4.071   3.984  0.00  0.00    -0.067 S 
ATOM      3  C   UNL     1       6.646   5.711   3.949  0.00  0.00    +0.043 A 
ATOM      4  C   UNL     1       6.060   6.340   2.852  0.00  0.00    +0.079 A 
ATOM      5  C   UNL     1       6.335   7.709   2.634  0.00  0.00    +0.032 A 
ATOM      6  C   UNL     1       7.182   8.401   3.509  0.00  0.00    +0.047 A 
ATOM      7  C   UNL     1       7.747   7.739   4.592  0.00  0.00    +0.118 A 
ATOM      8  C   UNL     1       7.494   6.392   4.838  0.00  0.00    +0.062 A 
ATOM      9  N   UNL     1       5.251   5.531   2.069  0.00  0.00    -0.239 NA
ENDROOT
BRANCH   1  13
ATOM     10  C   UNL     1       3.065   1.018   0.734  0.00  0.00    +0.063 A 
ATOM     11  C   UNL     1       4.249   0.793   1.449  0.00  0.00    +0.026 A 
ATOM     12  C   UNL     1       4.966   1.846   2.030  0.00  0.00    +0.012 A 
ATOM     13  C   UNL     1       4.515   3.171   1.932  0.00  0.00    +0.010 A 
ATOM     14  C   UNL     1       3.328   3.406   1.231  0.00  0.00    +0.050 A 
ATOM     15  C   UNL     1       2.610   2.345   0.667  0.00  0.00    +0.145 A 
ATOM     16  F   UNL     1       1.467   2.647   0.030  0.00  0.00    -0.204 F 
BRANCH  10  18
ATOM     17  C   UNL     1       1.174   0.048  -0.527  0.00  0.00    +0.125 C 
ATOM     18  N   UNL     1       2.388  -0.108   0.251  0.00  0.00    -0.345 N 
ATOM     19  H   UNL     1       3.028  -0.800  -0.133  0.00  0.00    +0.146 HD
ENDBRANCH  10  18
ENDBRANCH   1  13
BRANCH   7  20
ATOM     20  O   UNL     1       8.578   8.381   5.463  0.00  0.00    -0.507 OA
ATOM     21  H   UNL     1       8.673   9.306   5.184  0.00  0.00    +0.292 HD
ENDBRANCH   7  20
TORSDOF 3
