REMARK  Name = 
REMARK  9 active torsions:
REMARK  status: ('A' for Active; 'I' for Inactive)
REMARK    1  A    between atoms: C_1  and  N_2
REMARK    2  A    between atoms: C_5  and  C_7
REMARK    3  A    between atoms: C_10  and  C_13
REMARK    4  A    between atoms: C_16  and  N_20
REMARK    5  A    between atoms: C_22  and  C_24
REMARK    6  A    between atoms: C_24  and  O_25
REMARK    7  A    between atoms: O_25  and  P_26
REMARK    8  A    between atoms: P_26  and  O_27
REMARK    9  A    between atoms: P_26  and  O_28
REMARK                            x       y       z     vdW  Elec       q    Type
REMARK                         _______ _______ _______ _____ _____    ______ ____
ROOT
ATOM      1  C   UNL     1       8.520  -4.975  -0.801  0.00  0.00    +0.019 A 
ATOM      2  C   UNL     1       8.260  -6.326  -0.541  0.00  0.00    +0.133 A 
ATOM      3  F   UNL     1       7.176  -6.693   0.159  0.00  0.00    -0.205 F 
ATOM      4  C   UNL     1       9.094  -7.352  -0.996  0.00  0.00    +0.062 A 
ATOM      5  C   UNL     1      10.244  -7.064  -1.731  0.00  0.00    +0.042 A 
ATOM      6  C   UNL     1      10.552  -5.721  -1.952  0.00  0.00    +0.024 A 
ATOM      7  C   UNL     1       9.708  -4.697  -1.495  0.00  0.00    +0.013 A 
ENDROOT
BRANCH   1  11
ATOM      8  C   UNL     1       5.674  -1.877  -0.080  0.00  0.00    +0.111 A 
ATOM      9  N   UNL     1       5.244  -3.141  -0.305  0.00  0.00    -0.251 NA
ATOM     10  C   UNL     1       6.185  -4.101  -0.483  0.00  0.00    +0.120 A 
ATOM     11  C   UNL     1       7.567  -3.898  -0.453  0.00  0.00    +0.003 A 
ATOM     12  C   UNL     1       7.971  -2.587  -0.164  0.00  0.00    +0.012 A 
ATOM     13  C   UNL     1       7.026  -1.569   0.017  0.00  0.00    +0.032 A 
BRANCH   8  17
ATOM     14  C   UNL     1       3.327   2.343   0.353  0.00  0.00    +0.199 C 
ATOM     15  N   UNL     1       3.622   0.949   0.170  0.00  0.00    -0.166 N 
ATOM     16  N   UNL     1       4.883   0.477   0.197  0.00  0.00    -0.129 NA
ATOM     17  C   UNL     1       4.646  -0.840   0.014  0.00  0.00    +0.223 A 
ATOM     18  N   UNL     1       3.299  -1.113  -0.113  0.00  0.00    -0.106 NA
ATOM     19  N   UNL     1       2.656   0.041  -0.010  0.00  0.00    -0.046 NA
ENDBRANCH   8  17
ENDBRANCH   1  11
BRANCH   5  20
ATOM     20  N   UNL     1      11.088  -8.099  -2.200  0.00  0.00    -0.234 N 
ATOM     21  C   UNL     1      12.181  -7.989  -3.052  0.00  0.00    +0.408 C 
ATOM     22  O   UNL     1      12.553  -7.028  -3.705  0.00  0.00    -0.226 OA
ATOM     23  O   UNL     1      12.864  -9.188  -3.071  0.00  0.00    -0.443 OA
ATOM     24  C   UNL     1      12.380  -9.950  -1.960  0.00  0.00    +0.222 C 
ATOM     25  C   UNL     1      10.955  -9.472  -1.818  0.00  0.00    +0.164 C 
BRANCH  24  26
ATOM     26  C   UNL     1      13.226  -9.624  -0.727  0.00  0.00    +0.218 C 
BRANCH  26  27
ATOM     27  O   UNL     1      12.678 -10.218   0.446  0.00  0.00    -0.283 OA
BRANCH  27  28
ATOM     28  P   UNL     1      13.602  -9.775   1.840  0.00  0.00    +0.472 P 
ATOM     29  O   UNL     1      14.429  -9.378   3.088  0.00  0.00    -0.228 OA
BRANCH  28  30
ATOM     30  O   UNL     1      12.602 -10.804   2.632  0.00  0.00    -0.303 OA
ATOM     31  H   UNL     1      12.875 -11.730   2.513  0.00  0.00    +0.222 HD
ENDBRANCH  28  30
BRANCH  28  32
ATOM     32  O   UNL     1      12.557  -8.520   1.945  0.00  0.00    -0.303 OA
ATOM     33  H   UNL     1      11.917  -8.764   2.641  0.00  0.00    +0.222 HD
ENDBRANCH  28  32
ENDBRANCH  27  28
ENDBRANCH  26  27
ENDBRANCH  24  26
ENDBRANCH   5  20
TORSDOF 8
