REMARK  Name = 
REMARK  5 active torsions:
REMARK  status: ('A' for Active; 'I' for Inactive)
REMARK    1  A    between atoms: N_2  and  O_4
REMARK    2  A    between atoms: O_4  and  C_5
REMARK    3  A    between atoms: C_5  and  C_6
REMARK    4  A    between atoms: C_6  and  N_7
REMARK    5  A    between atoms: C_8  and  C_10
REMARK                            x       y       z     vdW  Elec       q    Type
REMARK                         _______ _______ _______ _____ _____    ______ ____
ROOT
ATOM      1  N   UNL     1       6.410  -0.750  -2.663  0.00  0.00    -0.308 N 
ATOM      2  H   UNL     1       6.913  -0.478  -1.828  0.00  0.00    +0.149 HD
ATOM      3  C   UNL     1       7.096  -0.817  -3.860  0.00  0.00    +0.246 C 
ATOM      4  O   UNL     1       6.538  -0.840  -4.950  0.00  0.00    -0.270 OA
ENDROOT
BRANCH   3   5
ATOM      5  C   UNL     1       8.573  -0.834  -3.780  0.00  0.00    +0.055 A 
ATOM      6  C   UNL     1       9.305  -0.398  -4.878  0.00  0.00    +0.123 A 
ATOM      7  N   UNL     1      10.660  -0.358  -4.913  0.00  0.00    -0.263 NA
ATOM      8  C   UNL     1      11.309  -0.793  -3.811  0.00  0.00    +0.111 A 
ATOM      9  C   UNL     1      10.668  -1.270  -2.678  0.00  0.00    +0.020 A 
ATOM     10  C   UNL     1       9.275  -1.294  -2.664  0.00  0.00    +0.016 A 
ENDBRANCH   3   5
BRANCH   1  11
ATOM     11  C   UNL     1       4.963  -0.651  -2.642  0.00  0.00    +0.153 C 
BRANCH  11  12
ATOM     12  C   UNL     1       4.260  -1.910  -3.154  0.00  0.00    +0.339 C 
BRANCH  12  13
ATOM     13  O   UNL     1       2.855  -1.721  -3.023  0.00  0.00    -0.215 OA
BRANCH  13  15
ATOM     14  O   UNL     1       0.902  -2.652  -3.433  0.00  0.00    -0.534 OA
ATOM     15  N   UNL     1       2.116  -2.826  -3.506  0.00  0.00    +0.284 N 
ATOM     16  O   UNL     1       2.752  -3.803  -3.903  0.00  0.00    +0.093 OA
ENDBRANCH  13  15
ENDBRANCH  12  13
ENDBRANCH  11  12
ENDBRANCH   1  11
TORSDOF 5
