REMARK  Name = 
REMARK  14 active torsions:
REMARK  status: ('A' for Active; 'I' for Inactive)
REMARK    1  A    between atoms: C_1  and  C_2
REMARK    2  A    between atoms: C_2  and  C_3
REMARK    3  A    between atoms: C_3  and  C_4
REMARK    4  A    between atoms: C_4  and  C_5
REMARK    5  A    between atoms: C_7  and  C_8
REMARK    6  A    between atoms: C_9  and  C_10
REMARK    7  A    between atoms: C_10  and  C_11
REMARK    8  A    between atoms: C_11  and  N_13
REMARK    9  A    between atoms: N_13  and  C_14
REMARK   10  A    between atoms: N_13  and  C_15
REMARK   11  A    between atoms: N_18  and  C_19
REMARK   12  A    between atoms: C_19  and  C_20
REMARK   13  A    between atoms: C_23  and  C_26
REMARK   14  A    between atoms: C_27  and  C_32
REMARK                            x       y       z     vdW  Elec       q    Type
REMARK                         _______ _______ _______ _____ _____    ______ ____
ROOT
ATOM      1  C   UNL     1       5.991   0.363   3.311  0.00  0.00    +0.161 C 
ENDROOT
BRANCH   1   3
ATOM      2  C   UNL     1       4.699   2.201   2.185  0.00  0.00    +0.113 A 
ATOM      3  N   UNL     1       5.523   1.741   3.185  0.00  0.00    -0.292 N 
ATOM      4  C   UNL     1       6.175   2.666   3.985  0.00  0.00    +0.258 A 
ATOM      5  O   UNL     1       7.196   2.429   4.631  0.00  0.00    -0.267 OA
ATOM      6  C   UNL     1       5.640   4.049   3.979  0.00  0.00    +0.044 A 
ATOM      7  C   UNL     1       4.866   4.372   2.931  0.00  0.00    +0.049 A 
ATOM      8  C   UNL     1       4.491   5.795   2.609  0.00  0.00    +0.066 C 
ATOM      9  N   UNL     1       4.388   3.453   2.042  0.00  0.00    -0.238 NA
BRANCH   2  10
ATOM     10  C   UNL     1       4.065   1.241   1.174  0.00  0.00    +0.074 C 
BRANCH  10  11
ATOM     11  C   UNL     1       3.940   1.846  -0.235  0.00  0.00    +0.007 C 
BRANCH  11  13
ATOM     12  C   UNL     1       5.189   2.781  -2.231  0.00  0.00    +0.004 C 
ATOM     13  C   UNL     1       5.306   2.210  -0.827  0.00  0.00    -0.003 C 
ENDBRANCH  11  13
ENDBRANCH  10  11
ENDBRANCH   2  10
BRANCH   6  14
ATOM     14  C   UNL     1       6.105   4.974   5.069  0.00  0.00    +0.101 C 
BRANCH  14  15
ATOM     15  C   UNL     1       5.637   4.728   6.536  0.00  0.00    +0.055 C 
ATOM     16  S   UNL     1       4.670   3.398   6.931  0.00  0.00    -0.040 S 
BRANCH  15  17
ATOM     17  N   UNL     1       6.038   5.702   7.478  0.00  0.00    -0.333 N 
ATOM     18  C   UNL     1       6.928   6.818   7.159  0.00  0.00    +0.129 C 
ATOM     19  C   UNL     1       5.705   5.624   8.905  0.00  0.00    +0.129 C 
ENDBRANCH  15  17
ENDBRANCH  14  15
ENDBRANCH   6  14
ENDBRANCH   1   3
BRANCH   1  20
ATOM     20  C   UNL     1       5.331  -0.432   4.422  0.00  0.00    -0.028 A 
ATOM     21  C   UNL     1       5.893  -0.463   5.711  0.00  0.00    +0.006 A 
ATOM     22  C   UNL     1       5.397  -1.324   6.694  0.00  0.00    +0.009 A 
ATOM     23  C   UNL     1       4.338  -2.210   6.437  0.00  0.00    -0.017 A 
ATOM     24  C   UNL     1       3.733  -2.105   5.168  0.00  0.00    +0.009 A 
ATOM     25  C   UNL     1       4.206  -1.222   4.181  0.00  0.00    +0.006 A 
BRANCH  23  26
ATOM     26  C   UNL     1       3.847  -3.190   7.456  0.00  0.00    -0.007 A 
ATOM     27  C   UNL     1       2.443  -3.346   7.588  0.00  0.00    +0.009 A 
ATOM     28  C   UNL     1       1.861  -4.217   8.513  0.00  0.00    +0.001 A 
ATOM     29  C   UNL     1       2.663  -4.957   9.361  0.00  0.00    +0.001 A 
ATOM     30  C   UNL     1       4.049  -4.836   9.263  0.00  0.00    +0.012 A 
ATOM     31  C   UNL     1       4.666  -3.976   8.319  0.00  0.00    +0.028 A 
BRANCH  31  32
ATOM     32  C   UNL     1       6.137  -4.000   8.269  0.00  0.00    +0.180 A 
ATOM     33  N   UNL     1       6.940  -4.231   9.358  0.00  0.00    -0.239 N 
ATOM     34  H   UNL     1       6.690  -4.405  10.321  0.00  0.00    +0.192 HD
ATOM     35  N   UNL     1       8.231  -4.220   9.006  0.00  0.00    -0.046 NA
ATOM     36  N   UNL     1       8.225  -3.984   7.705  0.00  0.00    -0.023 NA
ATOM     37  N   UNL     1       6.938  -3.858   7.235  0.00  0.00    -0.108 NA
ENDBRANCH  31  32
ENDBRANCH  23  26
ENDBRANCH   1  20
TORSDOF 10
