REMARK  Name = 
REMARK  12 active torsions:
REMARK  status: ('A' for Active; 'I' for Inactive)
REMARK    1  A    between atoms: C_1  and  C_2
REMARK    2  A    between atoms: C_2  and  C_3
REMARK    3  A    between atoms: C_2  and  C_4
REMARK    4  A    between atoms: C_2  and  N_5
REMARK    5  A    between atoms: N_5  and  C_6
REMARK    6  A    between atoms: C_6  and  C_7
REMARK    7  A    between atoms: C_7  and  O_8
REMARK    8  A    between atoms: C_7  and  C_9
REMARK    9  A    between atoms: C_9  and  S_10
REMARK   10  A    between atoms: S_10  and  C_11
REMARK   11  A    between atoms: C_13  and  C_16
REMARK   12  A    between atoms: C_19  and  C_21
REMARK                            x       y       z     vdW  Elec       q    Type
REMARK                         _______ _______ _______ _____ _____    ______ ____
ROOT
ATOM      1  C   UNL     1       8.830  -3.824  -2.349  0.00  0.00    +0.135 A 
ATOM      2  S   UNL     1       9.871  -4.382  -3.586  0.00  0.00    -0.069 S 
ATOM      3  C   UNL     1      11.152  -3.499  -2.873  0.00  0.00    +0.076 A 
ATOM      4  C   UNL     1      10.711  -2.860  -1.730  0.00  0.00    +0.086 A 
ATOM      5  N   UNL     1       9.377  -3.063  -1.426  0.00  0.00    -0.232 NA
ENDROOT
BRANCH   4   6
ATOM      6  C   UNL     1      11.586  -1.973  -0.896  0.00  0.00    +0.039 A 
ATOM      7  S   UNL     1      13.188  -1.569  -1.316  0.00  0.00    -0.082 S 
ATOM      8  C   UNL     1      13.365  -0.524   0.025  0.00  0.00    +0.074 A 
ATOM      9  C   UNL     1      12.233  -0.534   0.816  0.00  0.00    +0.021 A 
ATOM     10  C   UNL     1      11.199  -1.370   0.280  0.00  0.00    +0.018 A 
BRANCH   8  11
ATOM     11  C   UNL     1      14.585   0.240   0.227  0.00  0.00    +0.248 C 
ATOM     12  O   UNL     1      14.784   0.979   1.183  0.00  0.00    -0.270 OA
ATOM     13  N   UNL     1      15.548   0.117  -0.739  0.00  0.00    -0.325 N 
ATOM     14  H   UNL     1      16.398   0.655  -0.643  0.00  0.00    +0.145 HD
ATOM     15  H   UNL     1      15.414  -0.468  -1.550  0.00  0.00    +0.145 HD
ENDBRANCH   8  11
ENDBRANCH   4   6
BRANCH   1  16
ATOM     16  S   UNL     1       7.118  -4.186  -2.347  0.00  0.00    -0.096 S 
BRANCH  16  17
ATOM     17  C   UNL     1       6.519  -2.676  -1.531  0.00  0.00    +0.109 C 
BRANCH  17  18
ATOM     18  C   UNL     1       4.988  -2.595  -1.503  0.00  0.00    +0.138 C 
BRANCH  18  19
ATOM     19  O   UNL     1       4.444  -2.482  -2.828  0.00  0.00    -0.390 OA
ATOM     20  H   UNL     1       4.946  -1.802  -3.307  0.00  0.00    +0.210 HD
ENDBRANCH  18  19
BRANCH  18  21
ATOM     21  C   UNL     1       4.586  -1.347  -0.687  0.00  0.00    +0.113 C 
BRANCH  21  22
ATOM     22  N   UNL     1       3.131  -1.241  -0.553  0.00  0.00    -0.309 NA
ATOM     23  H   UNL     1       2.714  -1.333  -1.484  0.00  0.00    +0.123 HD
BRANCH  22  25
ATOM     24  C   UNL     1       3.059   1.258  -0.598  0.00  0.00    +0.027 C 
ATOM     25  C   UNL     1       2.639  -0.031   0.127  0.00  0.00    +0.011 C 
ATOM     26  C   UNL     1       1.100  -0.110   0.120  0.00  0.00    +0.027 C 
ATOM     27  C   UNL     1       3.112   0.009   1.591  0.00  0.00    +0.027 C 
ENDBRANCH  22  25
ENDBRANCH  21  22
ENDBRANCH  18  21
ENDBRANCH  17  18
ENDBRANCH  16  17
ENDBRANCH   1  16
TORSDOF 9
