REMARK  Name = 
REMARK  4 active torsions:
REMARK  status: ('A' for Active; 'I' for Inactive)
REMARK    1  A    between atoms: C_1  and  C_2
REMARK    2  A    between atoms: C_4  and  N_8
REMARK    3  A    between atoms: C_10  and  C_11
REMARK    4  A    between atoms: C_11  and  O_12
REMARK                            x       y       z     vdW  Elec       q    Type
REMARK                         _______ _______ _______ _____ _____    ______ ____
ROOT
ATOM      1  N   UNL     1       5.304   2.509  -0.520  0.00  0.00    -0.234 N 
ATOM      2  C   UNL     1       6.092   2.864  -1.601  0.00  0.00    +0.408 C 
ATOM      3  O   UNL     1       6.570   2.155  -2.472  0.00  0.00    -0.226 OA
ATOM      4  O   UNL     1       6.289   4.225  -1.600  0.00  0.00    -0.443 OA
ATOM      5  C   UNL     1       5.369   4.796  -0.659  0.00  0.00    +0.221 C 
ATOM      6  C   UNL     1       5.096   3.659   0.306  0.00  0.00    +0.164 C 
ENDROOT
BRANCH   1  12
ATOM      7  C   UNL     1       3.805  -1.909  -2.209  0.00  0.00    +0.044 C 
ATOM      8  C   UNL     1       3.944  -0.924  -1.087  0.00  0.00    -0.049 A 
ATOM      9  C   UNL     1       3.472  -1.234   0.190  0.00  0.00    +0.003 A 
ATOM     10  C   UNL     1       3.607  -0.313   1.228  0.00  0.00    +0.002 A 
ATOM     11  C   UNL     1       4.213   0.924   0.995  0.00  0.00    +0.023 A 
ATOM     12  C   UNL     1       4.711   1.252  -0.274  0.00  0.00    +0.040 A 
ATOM     13  C   UNL     1       4.567   0.313  -1.304  0.00  0.00    +0.027 A 
ENDBRANCH   1  12
BRANCH   5  14
ATOM     14  C   UNL     1       4.124   5.297  -1.405  0.00  0.00    +0.202 C 
BRANCH  14  15
ATOM     15  O   UNL     1       3.421   4.258  -2.081  0.00  0.00    -0.391 OA
ATOM     16  H   UNL     1       4.000   3.920  -2.789  0.00  0.00    +0.210 HD
ENDBRANCH  14  15
ENDBRANCH   5  14
TORSDOF 3
