REMARK  Name = 
REMARK  11 active torsions:
REMARK  status: ('A' for Active; 'I' for Inactive)
REMARK    1  A    between atoms: C_1  and  C_2
REMARK    2  A    between atoms: C_2  and  O_4
REMARK    3  A    between atoms: O_4  and  C_5
REMARK    4  A    between atoms: C_5  and  C_6
REMARK    5  A    between atoms: C_9  and  N_23
REMARK    6  A    between atoms: C_11  and  O_13
REMARK    7  A    between atoms: O_13  and  C_14
REMARK    8  A    between atoms: C_14  and  C_15
REMARK    9  A    between atoms: C_17  and  O_19
REMARK   10  A    between atoms: O_19  and  C_20
REMARK   11  A    between atoms: C_20  and  C_21
REMARK                            x       y       z     vdW  Elec       q    Type
REMARK                         _______ _______ _______ _____ _____    ______ ____
ROOT
ATOM      1  C   UNL     1       5.146  -2.274  -1.039  0.00  0.00    +0.203 C 
ATOM      2  C   UNL     1       4.166  -3.456  -1.085  0.00  0.00    +0.253 C 
ATOM      3  C   UNL     1       5.014  -4.679  -0.695  0.00  0.00    +0.269 C 
ATOM      4  C   UNL     1       6.449  -4.150  -0.810  0.00  0.00    +0.268 C 
ATOM      5  O   UNL     1       6.370  -2.757  -0.466  0.00  0.00    -0.342 OA
ENDROOT
BRANCH   4   6
ATOM      6  N   UNL     1       7.424  -4.812   0.054  0.00  0.00    -0.270 N 
ATOM      7  C   UNL     1       8.114  -5.897  -0.472  0.00  0.00    +0.331 A 
ATOM      8  O   UNL     1       7.907  -6.366  -1.589  0.00  0.00    -0.246 OA
ATOM      9  N   UNL     1       9.089  -6.431   0.332  0.00  0.00    -0.275 N 
ATOM     10  H   UNL     1       9.637  -7.183  -0.055  0.00  0.00    +0.173 HD
ATOM     11  C   UNL     1       9.440  -5.989   1.575  0.00  0.00    +0.254 A 
ATOM     12  O   UNL     1      10.371  -6.458   2.217  0.00  0.00    -0.268 OA
ATOM     13  C   UNL     1       8.621  -4.889   2.111  0.00  0.00    +0.088 A 
ATOM     14  C   UNL     1       7.673  -4.357   1.340  0.00  0.00    +0.098 A 
ENDBRANCH   4   6
BRANCH   1  15
ATOM     15  C   UNL     1       4.657  -1.067  -0.238  0.00  0.00    +0.267 C 
BRANCH  15  16
ATOM     16  O   UNL     1       3.397  -0.574  -0.711  0.00  0.00    -0.462 OA
BRANCH  16  18
ATOM     17  C   UNL     1       2.085   0.727  -2.163  0.00  0.00    +0.136 C 
ATOM     18  C   UNL     1       3.459   0.270  -1.777  0.00  0.00    +0.304 C 
ATOM     19  O   UNL     1       4.479   0.573  -2.378  0.00  0.00    -0.251 OA
ENDBRANCH  16  18
ENDBRANCH  15  16
ENDBRANCH   1  15
BRANCH   2  20
ATOM     20  O   UNL     1       3.685  -3.585  -2.441  0.00  0.00    -0.455 OA
BRANCH  20  21
ATOM     21  C   UNL     1       2.341  -3.657  -2.619  0.00  0.00    +0.304 C 
ATOM     22  O   UNL     1       1.500  -3.565  -1.738  0.00  0.00    -0.251 OA
ATOM     23  C   UNL     1       2.027  -3.921  -4.061  0.00  0.00    +0.136 C 
ENDBRANCH  20  21
ENDBRANCH   2  20
BRANCH   3  24
ATOM     24  O   UNL     1       4.780  -5.780  -1.591  0.00  0.00    -0.453 OA
BRANCH  24  25
ATOM     25  C   UNL     1       4.474  -6.981  -1.040  0.00  0.00    +0.304 C 
ATOM     26  O   UNL     1       4.375  -7.202   0.158  0.00  0.00    -0.251 OA
ATOM     27  C   UNL     1       4.255  -8.016  -2.105  0.00  0.00    +0.136 C 
ENDBRANCH  24  25
ENDBRANCH   3  24
TORSDOF 8
