REMARK  Name = 
REMARK  11 active torsions:
REMARK  status: ('A' for Active; 'I' for Inactive)
REMARK    1  A    between atoms: C_1  and  N_2
REMARK    2  A    between atoms: N_2  and  C_3
REMARK    3  A    between atoms: N_2  and  C_6
REMARK    4  A    between atoms: C_3  and  C_4
REMARK    5  A    between atoms: C_4  and  O_5
REMARK    6  A    between atoms: C_6  and  C_7
REMARK    7  A    between atoms: C_7  and  O_8
REMARK    8  A    between atoms: C_7  and  C_9
REMARK    9  A    between atoms: C_9  and  N_10
REMARK   10  A    between atoms: N_17  and  C_18
REMARK   11  A    between atoms: N_21  and  C_22
REMARK                            x       y       z     vdW  Elec       q    Type
REMARK                         _______ _______ _______ _____ _____    ______ ____
ROOT
ATOM      1  N   UNL     1       6.441   2.106  -2.060  0.00  0.00    -0.322 N 
ATOM      2  C   UNL     1       7.225   2.667  -1.095  0.00  0.00    +0.152 A 
ATOM      3  C   UNL     1       6.905   3.387   0.086  0.00  0.00    +0.282 A 
ATOM      4  N   UNL     1       8.020   3.638   0.887  0.00  0.00    -0.262 N 
ATOM      5  C   UNL     1       9.357   3.343   0.549  0.00  0.00    +0.333 A 
ATOM      6  N   UNL     1       9.577   2.691  -0.666  0.00  0.00    -0.280 N 
ATOM      7  C   UNL     1      10.920   2.324  -1.076  0.00  0.00    +0.155 C 
ATOM      8  O   UNL     1      10.286   3.653   1.301  0.00  0.00    -0.246 OA
ATOM      9  C   UNL     1       7.809   4.296   2.161  0.00  0.00    +0.157 C 
ATOM     10  O   UNL     1       5.761   3.747   0.352  0.00  0.00    -0.265 OA
ATOM     11  C   UNL     1       8.503   2.353  -1.451  0.00  0.00    +0.168 A 
ATOM     12  N   UNL     1       8.553   1.663  -2.623  0.00  0.00    -0.218 NA
ATOM     13  C   UNL     1       7.290   1.515  -2.967  0.00  0.00    +0.202 A 
ENDROOT
BRANCH   1  14
ATOM     14  C   UNL     1       4.991   2.011  -2.084  0.00  0.00    +0.156 C 
BRANCH  14  15
ATOM     15  C   UNL     1       4.492   0.796  -1.282  0.00  0.00    +0.148 C 
BRANCH  15  16
ATOM     16  O   UNL     1       5.083  -0.383  -1.853  0.00  0.00    -0.389 OA
ATOM     17  H   UNL     1       4.736  -0.495  -2.752  0.00  0.00    +0.210 HD
ENDBRANCH  15  16
BRANCH  15  18
ATOM     18  C   UNL     1       2.941   0.707  -1.318  0.00  0.00    +0.117 C 
BRANCH  18  20
ATOM     19  C   UNL     1       0.867  -0.292  -0.556  0.00  0.00    +0.105 C 
ATOM     20  N   UNL     1       2.329  -0.364  -0.504  0.00  0.00    -0.301 NA
BRANCH  20  21
ATOM     21  C   UNL     1       2.793  -1.733  -0.791  0.00  0.00    +0.112 C 
BRANCH  21  22
ATOM     22  C   UNL     1       2.561  -2.267  -2.216  0.00  0.00    +0.171 C 
BRANCH  22  23
ATOM     23  O   UNL     1       3.251  -3.497  -2.420  0.00  0.00    -0.394 OA
ATOM     24  H   UNL     1       4.184  -3.353  -2.179  0.00  0.00    +0.209 HD
ENDBRANCH  22  23
ENDBRANCH  21  22
ENDBRANCH  20  21
ENDBRANCH  18  20
ENDBRANCH  15  18
ENDBRANCH  14  15
ENDBRANCH   1  14
TORSDOF 8
