REMARK  Name = 
REMARK  7 active torsions:
REMARK  status: ('A' for Active; 'I' for Inactive)
REMARK    1  A    between atoms: O_1  and  C_2
REMARK    2  A    between atoms: C_2  and  C_4
REMARK    3  A    between atoms: C_4  and  N_29
REMARK    4  A    between atoms: N_7  and  C_8
REMARK    5  A    between atoms: C_8  and  C_9
REMARK    6  A    between atoms: C_9  and  C_10
REMARK    7  A    between atoms: C_10  and  N_11
REMARK                            x       y       z     vdW  Elec       q    Type
REMARK                         _______ _______ _______ _____ _____    ______ ____
ROOT
ATOM      1  C   UNL     1       1.660  -1.631  -4.144  0.00  0.00    +0.086 C 
ENDROOT
BRANCH   1   5
ATOM      2  C   UNL     1       0.293  -4.119  -1.894  0.00  0.00    +0.100 C 
ATOM      3  C   UNL     1       1.592  -3.319  -1.598  0.00  0.00    +0.047 C 
ATOM      4  C   UNL     1       1.464  -1.798  -1.718  0.00  0.00    +0.086 C 
ATOM      5  N   UNL     1       0.821  -1.353  -2.962  0.00  0.00    -0.302 NA
ATOM      6  C   UNL     1      -0.526  -1.939  -3.006  0.00  0.00    +0.086 C 
ATOM      7  C   UNL     1      -0.516  -3.468  -3.059  0.00  0.00    +0.047 C 
BRANCH   2   8
ATOM      8  N   UNL     1       0.514  -5.588  -2.187  0.00  0.00    -0.289 NA
ATOM      9  C   UNL     1       0.977  -6.436  -1.082  0.00  0.00    +0.085 C 
ATOM     10  C   UNL     1       2.475  -6.339  -0.795  0.00  0.00    +0.015 C 
ATOM     11  C   UNL     1       3.341  -6.502  -2.035  0.00  0.00    +0.002 C 
ATOM     12  C   UNL     1       2.763  -5.933  -3.329  0.00  0.00    +0.015 C 
ATOM     13  C   UNL     1       1.235  -5.967  -3.409  0.00  0.00    +0.085 C 
ENDBRANCH   2   8
BRANCH   2  14
ATOM     14  C   UNL     1      -0.635  -4.031  -0.644  0.00  0.00    +0.201 C 
ATOM     15  N   UNL     1      -0.312  -3.498   0.483  0.00  0.00    -0.270 NA
ATOM     16  H   UNL     1      -1.061  -3.565   1.166  0.00  0.00    +0.190 HD
BRANCH  14  17
ATOM     17  O   UNL     1      -1.844  -4.599  -0.770  0.00  0.00    -0.495 OA
ATOM     18  H   UNL     1      -2.348  -4.575   0.056  0.00  0.00    +0.293 HD
ENDBRANCH  14  17
ENDBRANCH   2  14
ENDBRANCH   1   5
BRANCH   1  19
ATOM     19  C   UNL     1       1.075  -1.166  -5.481  0.00  0.00    +0.035 C 
BRANCH  19  20
ATOM     20  C   UNL     1       0.870   0.349  -5.589  0.00  0.00    +0.112 C 
BRANCH  20  21
ATOM     21  N   UNL     1       0.171   0.702  -6.854  0.00  0.00    -0.300 N 
ATOM     22  C   UNL     1       0.911   0.636  -8.055  0.00  0.00    +0.039 A 
ATOM     23  C   UNL     1       2.085   1.418  -8.144  0.00  0.00    +0.043 A 
ATOM     24  C   UNL     1       2.843   1.482  -9.314  0.00  0.00    +0.043 A 
ATOM     25  C   UNL     1       2.464   0.762 -10.434  0.00  0.00    +0.020 A 
ATOM     26  C   UNL     1       1.304  -0.003 -10.379  0.00  0.00    +0.007 A 
ATOM     27 CL   UNL     1       4.238   2.488  -9.381  0.00  0.00    -0.083 Cl
ATOM     28  C   UNL     1       0.509  -0.074  -9.210  0.00  0.00    -0.026 A 
ATOM     29  C   UNL     1      -0.748  -0.907  -9.355  0.00  0.00    +0.042 C 
ATOM     30  C   UNL     1      -1.465  -1.362  -8.096  0.00  0.00    +0.042 C 
ATOM     31  C   UNL     1      -2.065  -0.200  -7.358  0.00  0.00    -0.026 A 
ATOM     32  C   UNL     1      -3.461  -0.057  -7.292  0.00  0.00    +0.005 A 
ATOM     33  C   UNL     1      -4.033   1.017  -6.613  0.00  0.00    +0.000 A 
ATOM     34  C   UNL     1      -3.218   1.945  -5.975  0.00  0.00    +0.002 A 
ATOM     35  C   UNL     1      -1.831   1.806  -6.036  0.00  0.00    +0.024 A 
ATOM     36  C   UNL     1      -1.235   0.746  -6.742  0.00  0.00    +0.037 A 
ENDBRANCH  20  21
ENDBRANCH  19  20
ENDBRANCH   1  19
TORSDOF 7
