REMARK  Name = 
REMARK  15 active torsions:
REMARK  status: ('A' for Active; 'I' for Inactive)
REMARK    1  A    between atoms: C_2  and  C_3
REMARK    2  A    between atoms: C_2  and  C_16
REMARK    3  A    between atoms: C_2  and  N_25
REMARK    4  A    between atoms: C_3  and  C_4
REMARK    5  A    between atoms: C_7  and  C_10
REMARK    6  A    between atoms: C_16  and  C_17
REMARK    7  A    between atoms: C_17  and  C_19
REMARK    8  A    between atoms: C_17  and  C_20
REMARK    9  A    between atoms: C_20  and  O_22
REMARK   10  A    between atoms: O_22  and  C_23
REMARK   11  A    between atoms: C_23  and  C_24
REMARK   12  A    between atoms: C_26  and  C_28
REMARK   13  A    between atoms: C_28  and  C_29
REMARK   14  A    between atoms: C_29  and  C_30
REMARK   15  A    between atoms: C_30  and  O_31
REMARK                            x       y       z     vdW  Elec       q    Type
REMARK                         _______ _______ _______ _____ _____    ______ ____
ROOT
ATOM      1  C   UNL     1       2.266   0.007   0.028  0.00  0.00    +0.078 C 
ENDROOT
BRANCH   1   2
ATOM      2  N   UNL     1       2.790   1.352  -0.233  0.00  0.00    -0.312 N 
ATOM      3  H   UNL     1       3.329   1.500  -1.079  0.00  0.00    +0.149 HD
ATOM      4  C   UNL     1       2.565   2.412   0.601  0.00  0.00    +0.214 C 
ATOM      5  O   UNL     1       1.864   2.376   1.610  0.00  0.00    -0.276 OA
BRANCH   4   6
ATOM      6  C   UNL     1       3.131   3.727   0.143  0.00  0.00    +0.107 C 
BRANCH   6   7
ATOM      7  C   UNL     1       2.127   4.420  -0.759  0.00  0.00    +0.129 C 
BRANCH   7   8
ATOM      8  C   UNL     1       0.815   4.881  -0.158  0.00  0.00    +0.305 C 
ATOM      9  O   UNL     1       0.017   5.530  -0.827  0.00  0.00    -0.251 OA
BRANCH   8  10
ATOM     10  O   UNL     1       0.540   4.566   1.117  0.00  0.00    -0.481 OA
ATOM     11  H   UNL     1       1.092   3.888   1.571  0.00  0.00    +0.295 HD
ENDBRANCH   8  10
ENDBRANCH   7   8
ENDBRANCH   6   7
ENDBRANCH   4   6
ENDBRANCH   1   2
BRANCH   1  12
ATOM     12  C   UNL     1       2.522  -0.886  -1.204  0.00  0.00    +0.037 C 
BRANCH  12  13
ATOM     13  C   UNL     1       1.949  -2.312  -1.168  0.00  0.00    +0.096 C 
ATOM     14  C   UNL     1       0.421  -2.281  -1.172  0.00  0.00    +0.019 C 
BRANCH  13  15
ATOM     15  C   UNL     1       2.445  -3.056  -2.402  0.00  0.00    +0.310 C 
ATOM     16  O   UNL     1       3.174  -2.575  -3.260  0.00  0.00    -0.251 OA
BRANCH  15  17
ATOM     17  O   UNL     1       1.907  -4.305  -2.453  0.00  0.00    -0.465 OA
BRANCH  17  18
ATOM     18  C   UNL     1       1.892  -4.890  -3.762  0.00  0.00    +0.229 C 
ATOM     19  C   UNL     1       0.665  -4.368  -4.492  0.00  0.00    +0.048 C 
ENDBRANCH  17  18
ENDBRANCH  15  17
ENDBRANCH  13  15
ENDBRANCH  12  13
ENDBRANCH   1  12
BRANCH   1  20
ATOM     20  C   UNL     1       2.775  -0.577   1.372  0.00  0.00    +0.057 C 
BRANCH  20  21
ATOM     21  C   UNL     1       4.254  -0.840   1.555  0.00  0.00    -0.046 A 
ATOM     22  C   UNL     1       4.677  -1.448   2.742  0.00  0.00    +0.004 A 
ATOM     23  C   UNL     1       6.019  -1.803   2.929  0.00  0.00    +0.009 A 
ATOM     24  C   UNL     1       6.981  -1.600   1.927  0.00  0.00    -0.018 A 
ATOM     25  C   UNL     1       6.554  -0.936   0.769  0.00  0.00    +0.009 A 
ATOM     26  C   UNL     1       5.229  -0.530   0.607  0.00  0.00    +0.004 A 
BRANCH  24  27
ATOM     27  C   UNL     1       8.375  -2.081   2.058  0.00  0.00    -0.018 A 
ATOM     28  C   UNL     1       8.680  -3.233   2.806  0.00  0.00    +0.008 A 
ATOM     29  C   UNL     1       9.992  -3.713   2.903  0.00  0.00    +0.001 A 
ATOM     30  C   UNL     1      11.025  -3.058   2.247  0.00  0.00    +0.000 A 
ATOM     31  C   UNL     1      10.755  -1.923   1.491  0.00  0.00    +0.001 A 
ATOM     32  C   UNL     1       9.446  -1.437   1.409  0.00  0.00    +0.008 A 
ENDBRANCH  24  27
ENDBRANCH  20  21
ENDBRANCH   1  20
TORSDOF 13
