REMARK  Name = 
REMARK  12 active torsions:
REMARK  status: ('A' for Active; 'I' for Inactive)
REMARK    1  A    between atoms: C_1  and  C_2
REMARK    2  A    between atoms: C_2  and  N_3
REMARK    3  A    between atoms: N_3  and  C_4
REMARK    4  A    between atoms: N_3  and  C_6
REMARK    5  A    between atoms: C_4  and  C_5
REMARK    6  A    between atoms: C_6  and  C_7
REMARK    7  A    between atoms: C_7  and  O_8
REMARK    8  A    between atoms: O_8  and  C_9
REMARK    9  A    between atoms: C_9  and  C_11
REMARK   10  A    between atoms: C_11  and  O_12
REMARK   11  A    between atoms: C_11  and  C_13
REMARK   12  A    between atoms: C_11  and  C_19
REMARK                            x       y       z     vdW  Elec       q    Type
REMARK                         _______ _______ _______ _____ _____    ______ ____
ROOT
ATOM      1  C   UNL     1       8.551   3.657   2.007  0.00  0.00    +0.213 C 
ENDROOT
BRANCH   1   2
ATOM      2  C   UNL     1       9.039   4.876   2.823  0.00  0.00    -0.001 A 
ATOM      3  C   UNL     1       8.264   6.042   2.982  0.00  0.00    +0.007 A 
ATOM      4  C   UNL     1       8.705   7.113   3.765  0.00  0.00    +0.000 A 
ATOM      5  C   UNL     1       9.942   7.053   4.395  0.00  0.00    +0.000 A 
ATOM      6  C   UNL     1      10.744   5.929   4.230  0.00  0.00    +0.000 A 
ATOM      7  C   UNL     1      10.301   4.856   3.448  0.00  0.00    +0.007 A 
ENDBRANCH   1   2
BRANCH   1   8
ATOM      8  C   UNL     1       9.089   3.651   0.564  0.00  0.00    -0.001 A 
ATOM      9  C   UNL     1       9.924   2.624   0.085  0.00  0.00    +0.007 A 
ATOM     10  C   UNL     1      10.324   2.583  -1.254  0.00  0.00    +0.000 A 
ATOM     11  C   UNL     1       9.902   3.570  -2.140  0.00  0.00    +0.000 A 
ATOM     12  C   UNL     1       9.097   4.609  -1.684  0.00  0.00    +0.000 A 
ATOM     13  C   UNL     1       8.702   4.654  -0.346  0.00  0.00    +0.007 A 
ENDBRANCH   1   8
BRANCH   1  14
ATOM     14  C   UNL     1       6.977   3.577   1.977  0.00  0.00    +0.349 C 
ATOM     15  O   UNL     1       6.232   4.381   1.423  0.00  0.00    -0.247 OA
BRANCH  14  16
ATOM     16  O   UNL     1       6.519   2.491   2.674  0.00  0.00    -0.461 OA
BRANCH  16  17
ATOM     17  C   UNL     1       5.089   2.438   2.803  0.00  0.00    +0.247 C 
BRANCH  17  18
ATOM     18  C   UNL     1       4.403   1.905   1.529  0.00  0.00    +0.125 C 
BRANCH  18  19
ATOM     19  N   UNL     1       4.758   0.517   1.153  0.00  0.00    -0.300 NA
BRANCH  19  21
ATOM     20  C   UNL     1       4.740  -1.893   1.904  0.00  0.00    +0.020 C 
ATOM     21  C   UNL     1       4.381  -0.442   2.203  0.00  0.00    +0.081 C 
ENDBRANCH  19  21
BRANCH  19  22
ATOM     22  C   UNL     1       4.236   0.182  -0.185  0.00  0.00    +0.081 C 
ATOM     23  C   UNL     1       2.720   0.246  -0.361  0.00  0.00    +0.020 C 
ENDBRANCH  19  22
ENDBRANCH  18  19
ENDBRANCH  17  18
ENDBRANCH  16  17
ENDBRANCH  14  16
ENDBRANCH   1  14
BRANCH   1  24
ATOM     24  O   UNL     1       9.066   2.490   2.690  0.00  0.00    -0.370 OA
ATOM     25  H   UNL     1       8.439   1.771   2.488  0.00  0.00    +0.212 HD
ENDBRANCH   1  24
TORSDOF 10
