REMARK  Name = 
REMARK  7 active torsions:
REMARK  status: ('A' for Active; 'I' for Inactive)
REMARK    1  A    between atoms: N_2  and  C_3
REMARK    2  A    between atoms: N_2  and  N_10
REMARK    3  A    between atoms: C_3  and  C_4
REMARK    4  A    between atoms: C_12  and  C_14
REMARK    5  A    between atoms: C_14  and  C_15
REMARK    6  A    between atoms: C_14  and  C_16
REMARK    7  A    between atoms: C_14  and  C_17
REMARK                            x       y       z     vdW  Elec       q    Type
REMARK                         _______ _______ _______ _____ _____    ______ ____
ROOT
ATOM      1  H   UNL     1       2.907  -0.495   0.310  0.00  0.00    +0.145 HD
ATOM      2  N   UNL     1       2.137   0.122   0.015  0.00  0.00    -0.236 NA
ENDROOT
BRANCH   2   3
ATOM      3  N   UNL     1       2.651   0.977  -0.989  0.00  0.00    -0.250 N 
ATOM      4  C   UNL     1       4.023   1.183  -1.082  0.00  0.00    +0.232 C 
ATOM      5  O   UNL     1       4.815   0.660  -0.297  0.00  0.00    -0.274 OA
ATOM      6  H   UNL     1       2.005   1.369  -1.667  0.00  0.00    +0.169 HD
BRANCH   4   7
ATOM      7  C   UNL     1       4.464   2.103  -2.236  0.00  0.00    +0.040 C 
ATOM      8  C   UNL     1       4.060   1.475  -3.578  0.00  0.00    +0.020 C 
ATOM      9  C   UNL     1       5.993   2.268  -2.206  0.00  0.00    +0.020 C 
ATOM     10  C   UNL     1       3.818   3.489  -2.087  0.00  0.00    +0.020 C 
ENDBRANCH   4   7
ENDBRANCH   2   3
BRANCH   2  11
ATOM     11  C   UNL     1       1.743   0.906   1.194  0.00  0.00    +0.137 C 
BRANCH  11  12
ATOM     12  C   UNL     1       1.212   0.063   2.335  0.00  0.00    -0.032 A 
ATOM     13  C   UNL     1       0.451  -1.096   2.122  0.00  0.00    +0.005 A 
ATOM     14  C   UNL     1      -0.062  -1.818   3.204  0.00  0.00    +0.000 A 
ATOM     15  C   UNL     1       0.164  -1.381   4.507  0.00  0.00    +0.000 A 
ATOM     16  C   UNL     1       0.899  -0.222   4.733  0.00  0.00    +0.000 A 
ATOM     17  C   UNL     1       1.417   0.498   3.654  0.00  0.00    +0.005 A 
ENDBRANCH  11  12
ENDBRANCH   2  11
TORSDOF 4
