REMARK  Name = 
REMARK  7 active torsions:
REMARK  status: ('A' for Active; 'I' for Inactive)
REMARK    1  A    between atoms: C_1  and  C_2
REMARK    2  A    between atoms: C_2  and  C_3
REMARK    3  A    between atoms: C_8  and  N_9
REMARK    4  A    between atoms: C_12  and  N_15
REMARK    5  A    between atoms: C_21  and  C_22
REMARK    6  A    between atoms: C_21  and  C_23
REMARK    7  A    between atoms: C_30  and  C_33
REMARK                            x       y       z     vdW  Elec       q    Type
REMARK                         _______ _______ _______ _____ _____    ______ ____
ROOT
ATOM      1  C   UNL     1       2.799   0.984   0.793  0.00  0.00    -0.026 A 
ATOM      2  C   UNL     1       2.404   2.208   0.205  0.00  0.00    +0.033 A 
ATOM      3  C   UNL     1       2.787   3.386   0.903  0.00  0.00    +0.028 A 
ATOM      4  C   UNL     1       3.569   3.402   2.087  0.00  0.00    -0.023 A 
ATOM      5  C   UNL     1       3.896   4.731   2.808  0.00  0.00    +0.032 C 
ATOM      6  C   UNL     1       4.740   4.466   4.040  0.00  0.00    +0.038 A 
ATOM      7  N   UNL     1       5.189   5.410   4.934  0.00  0.00    -0.357 N 
ATOM      8  H   UNL     1       5.009   6.402   4.884  0.00  0.00    +0.166 HD
ATOM      9  C   UNL     1       5.943   4.804   5.921  0.00  0.00    +0.049 A 
ATOM     10  C   UNL     1       6.601   5.355   7.027  0.00  0.00    +0.045 A 
ATOM     11  C   UNL     1       7.302   4.478   7.876  0.00  0.00    +0.054 A 
ATOM     12  C   UNL     1       7.330   3.105   7.624  0.00  0.00    +0.019 A 
ATOM     13  C   UNL     1       6.661   2.573   6.519  0.00  0.00    +0.012 A 
ATOM     14  C   UNL     1       5.956   3.436   5.653  0.00  0.00    +0.011 A 
ATOM     15  C   UNL     1       5.191   3.238   4.474  0.00  0.00    +0.051 A 
ATOM     16  C   UNL     1       4.883   2.016   3.773  0.00  0.00    +0.196 C 
ATOM     17  O   UNL     1       5.295   0.918   4.133  0.00  0.00    -0.287 OA
ATOM     18  C   UNL     1       2.582   5.417   3.243  0.00  0.00    +0.022 C 
ATOM     19  C   UNL     1       4.684   5.658   1.861  0.00  0.00    +0.022 C 
ATOM     20  C   UNL     1       4.015   2.162   2.571  0.00  0.00    +0.027 A 
ATOM     21  C   UNL     1       3.623   0.985   1.937  0.00  0.00    +0.017 A 
ENDROOT
BRANCH   2  22
ATOM     22  N   UNL     1       1.721   2.320  -0.998  0.00  0.00    -0.330 N 
ATOM     23  C   UNL     1       0.627   1.442  -1.421  0.00  0.00    +0.106 C 
ATOM     24  C   UNL     1       0.957   0.901  -2.811  0.00  0.00    +0.038 C 
ATOM     25  C   UNL     1       1.006   2.065  -3.818  0.00  0.00    +0.060 C 
ATOM     26  C   UNL     1       2.118   3.018  -3.316  0.00  0.00    +0.038 C 
ATOM     27  C   UNL     1       1.880   3.492  -1.877  0.00  0.00    +0.106 C 
BRANCH  25  28
ATOM     28  N   UNL     1      -0.322   2.724  -3.962  0.00  0.00    -0.295 NA
ATOM     29  C   UNL     1      -1.388   1.803  -4.435  0.00  0.00    +0.113 C 
ATOM     30  C   UNL     1      -1.201   1.362  -5.896  0.00  0.00    +0.175 C 
ATOM     31  O   UNL     1      -1.131   2.491  -6.778  0.00  0.00    -0.377 OA
ATOM     32  C   UNL     1      -0.120   3.422  -6.369  0.00  0.00    +0.175 C 
ATOM     33  C   UNL     1      -0.319   3.861  -4.910  0.00  0.00    +0.113 C 
ENDBRANCH  25  28
ENDBRANCH   2  22
BRANCH   1  35
ATOM     34  C   UNL     1       1.128  -0.838   1.108  0.00  0.00    +0.009 C 
ATOM     35  C   UNL     1       2.380  -0.399   0.347  0.00  0.00    +0.033 C 
ENDBRANCH   1  35
BRANCH  11  36
ATOM     36  C   UNL     1       7.997   5.000   9.016  0.00  0.00    +0.099 C 
ATOM     37  N   UNL     1       8.559   5.430   9.936  0.00  0.00    -0.191 NA
ENDBRANCH  11  36
TORSDOF 4
