REMARK  Name = 
REMARK  5 active torsions:
REMARK  status: ('A' for Active; 'I' for Inactive)
REMARK    1  A    between atoms: C_1  and  N_2
REMARK    2  A    between atoms: N_2  and  C_18
REMARK    3  A    between atoms: C_3  and  C_5
REMARK    4  A    between atoms: C_6  and  O_7
REMARK    5  A    between atoms: N_14  and  C_15
REMARK                            x       y       z     vdW  Elec       q    Type
REMARK                         _______ _______ _______ _____ _____    ______ ____
ROOT
ATOM      1  C   UNL     1       2.392  -0.634   2.341  0.00  0.00    +0.143 A 
ATOM      2  C   UNL     1       1.420   0.315   2.956  0.00  0.00    +0.267 A 
ATOM      3  O   UNL     1       0.929   1.233   2.300  0.00  0.00    -0.267 OA
ATOM      4  N   UNL     1       1.074   0.103   4.291  0.00  0.00    -0.310 N 
ATOM      5  C   UNL     1       0.497   1.233   4.996  0.00  0.00    +0.152 C 
ATOM      6  C   UNL     1       1.031  -1.229   4.798  0.00  0.00    +0.055 A 
ATOM      7  C   UNL     1       0.302  -1.574   5.944  0.00  0.00    +0.026 A 
ATOM      8  C   UNL     1       0.179  -2.914   6.337  0.00  0.00    +0.002 A 
ATOM      9  C   UNL     1       0.793  -3.912   5.596  0.00  0.00    +0.001 A 
ATOM     10  C   UNL     1       1.540  -3.577   4.466  0.00  0.00    +0.013 A 
ATOM     11  C   UNL     1       1.661  -2.242   4.053  0.00  0.00    +0.041 A 
ATOM     12  C   UNL     1       2.445  -1.879   2.855  0.00  0.00    +0.143 A 
ENDROOT
BRANCH   1  15
ATOM     13  C   UNL     1       4.099   1.315  -0.514  0.00  0.00    +0.138 C 
ATOM     14  N   UNL     1       3.569   0.992   0.807  0.00  0.00    -0.270 N 
ATOM     15  C   UNL     1       3.208  -0.320   1.109  0.00  0.00    +0.259 C 
ATOM     16  O   UNL     1       3.533  -1.263   0.374  0.00  0.00    -0.269 OA
BRANCH  14  17
ATOM     17  C   UNL     1       3.642   2.028   1.772  0.00  0.00    +0.036 A 
ATOM     18  C   UNL     1       2.873   3.184   1.596  0.00  0.00    +0.023 A 
ATOM     19  C   UNL     1       2.737   4.091   2.647  0.00  0.00    +0.002 A 
ATOM     20  C   UNL     1       3.435   3.890   3.837  0.00  0.00    +0.000 A 
ATOM     21  C   UNL     1       4.279   2.787   3.976  0.00  0.00    +0.002 A 
ATOM     22  C   UNL     1       4.374   1.848   2.949  0.00  0.00    +0.023 A 
ENDBRANCH  14  17
ENDBRANCH   1  15
BRANCH  12  23
ATOM     23  O   UNL     1       3.194  -2.916   2.315  0.00  0.00    -0.505 OA
ATOM     24  H   UNL     1       3.511  -2.634   1.427  0.00  0.00    +0.292 HD
ENDBRANCH  12  23
TORSDOF 3
