REMARK  Name = 
REMARK  8 active torsions:
REMARK  status: ('A' for Active; 'I' for Inactive)
REMARK    1  A    between atoms: C_5  and  O_6
REMARK    2  A    between atoms: O_6  and  C_7
REMARK    3  A    between atoms: CA_8  and  C_26
REMARK    4  A    between atoms: CA_12  and  N_14
REMARK    5  A    between atoms: C_15  and  CA_17
REMARK    6  A    between atoms: CA_17  and  N_19
REMARK    7  A    between atoms: CA_17  and  C_20
REMARK    8  A    between atoms: C_26  and  O_27
REMARK                            x       y       z     vdW  Elec       q    Type
REMARK                         _______ _______ _______ _____ _____    ______ ____
ROOT
ATOM      1  C   UNL     1       9.002  -1.197   5.096  0.00  0.00    +0.169 C 
ATOM      2  CA  UNL     1       8.444  -1.233   3.633  0.00  0.00    +0.191 C 
ATOM      3  C   UNL     1       9.696  -2.147   3.370  0.00  0.00    +0.244 C 
ATOM      4  O   UNL     1      10.249  -2.700   2.449  0.00  0.00    -0.273 OA
ATOM      5  N   UNL     1       9.942  -2.228   4.694  0.00  0.00    -0.246 N 
ATOM      6  CA  UNL     1      10.709  -2.968   5.554  0.00  0.00    +0.161 C 
ATOM      7  C   UNL     1      10.403  -2.990   6.883  0.00  0.00    +0.135 C 
ATOM      8  C   UNL     1       9.229  -2.258   7.506  0.00  0.00    +0.146 C 
ATOM      9  S   UNL     1       7.892  -1.854   6.366  0.00  0.00    -0.128 S 
ENDROOT
BRANCH   2  10
ATOM     10  N   UNL     1       7.130  -1.890   3.473  0.00  0.00    -0.300 N 
ATOM     11  H   UNL     1       6.701  -2.394   4.254  0.00  0.00    +0.150 HD
ATOM     12  C   UNL     1       6.423  -1.984   2.295  0.00  0.00    +0.235 C 
ATOM     13  O   UNL     1       6.789  -1.467   1.246  0.00  0.00    -0.274 OA
BRANCH  12  14
ATOM     14  CA  UNL     1       5.131  -2.846   2.445  0.00  0.00    +0.164 C 
BRANCH  14  15
ATOM     15  C   UNL     1       5.456  -4.271   2.054  0.00  0.00    -0.044 C 
ATOM     16  C   UNL     1       5.329  -4.566   0.570  0.00  0.00    +0.059 C 
ATOM     17  C   UNL     1       5.834  -5.923   0.168  0.00  0.00    -0.026 C 
ATOM     18  C   UNL     1       6.237  -6.850   1.050  0.00  0.00    -0.027 C 
ATOM     19  C   UNL     1       6.222  -6.628   2.532  0.00  0.00    +0.054 C 
ATOM     20  C   UNL     1       5.845  -5.229   2.924  0.00  0.00    -0.021 C 
ENDBRANCH  14  15
BRANCH  14  21
ATOM     21  N   UNL     1       4.645  -2.747   3.847  0.00  0.00    -0.317 NA
ATOM     22  H1  UNL     1       4.379  -1.778   4.018  0.00  0.00    +0.119 HD
ATOM     23  H2  UNL     1       3.781  -3.283   3.905  0.00  0.00    +0.119 HD
ENDBRANCH  14  21
ENDBRANCH  12  14
ENDBRANCH   2  10
BRANCH   6  24
ATOM     24  C   UNL     1      11.884  -3.800   5.064  0.00  0.00    +0.355 C 
ATOM     25  OXT UNL     1      12.626  -4.443   5.794  0.00  0.00    -0.244 OA
BRANCH  24  26
ATOM     26  O   UNL     1      12.166  -3.737   3.747  0.00  0.00    -0.476 OA
ATOM     27  H   UNL     1      11.491  -3.359   3.143  0.00  0.00    +0.295 HD
ENDBRANCH  24  26
ENDBRANCH   6  24
BRANCH   7  28
ATOM     28  O   UNL     1      11.086  -3.835   7.749  0.00  0.00    -0.496 OA
ATOM     29  C   UNL     1      11.322  -3.366   9.072  0.00  0.00    +0.276 C 
ENDBRANCH   7  28
TORSDOF 7
