REMARK  Name = 
REMARK  15 active torsions:
REMARK  status: ('A' for Active; 'I' for Inactive)
REMARK    1  A    between atoms: C_7  and  O_8
REMARK    2  A    between atoms: C_10  and  C_57
REMARK    3  A    between atoms: C_19  and  C_21
REMARK    4  A    between atoms: C_21  and  O_22
REMARK    5  A    between atoms: N_23  and  C_24
REMARK    6  A    between atoms: C_24  and  C_30
REMARK    7  A    between atoms: C_26  and  C_28
REMARK    8  A    between atoms: C_30  and  O_31
REMARK    9  A    between atoms: N_32  and  S_33
REMARK   10  A    between atoms: S_33  and  C_36
REMARK   11  A    between atoms: C_51  and  O_52
REMARK   12  A    between atoms: O_52  and  C_53
REMARK   13  A    between atoms: C_57  and  C_58
REMARK   14  A    between atoms: C_57  and  C_59
REMARK   15  A    between atoms: C_57  and  C_60
REMARK                            x       y       z     vdW  Elec       q    Type
REMARK                         _______ _______ _______ _____ _____    ______ ____
ROOT
ATOM      1  C   UNL     1      -0.000  -0.000  -0.000  0.00  0.00    +0.033 C 
ATOM      2  C   UNL     1      -0.000  -0.000  -0.000  0.00  0.00    +0.007 C 
ATOM      3  C   UNL     1      -0.000  -0.000  -0.000  0.00  0.00    +0.000 C 
ATOM      4  C   UNL     1      -0.000   0.000   0.000  0.00  0.00    +0.000 C 
ATOM      5  C   UNL     1      -0.000  -0.000  -0.000  0.00  0.00    +0.006 C 
ATOM      6  C   UNL     1      -0.000  -0.000  -0.000  0.00  0.00    +0.061 C 
ATOM      7  C   UNL     1      -0.000  -0.000  -0.000  0.00  0.00    +0.103 A 
ATOM      8  N   UNL     1      -0.000  -0.000  -0.000  0.00  0.00    -0.245 NA
ATOM      9  C   UNL     1      -0.000  -0.000  -0.000  0.00  0.00    +0.090 A 
ATOM     10  C   UNL     1       0.000   0.000  -0.000  0.00  0.00    +0.096 A 
ATOM     11  N   UNL     1      -0.000  -0.000  -0.000  0.00  0.00    -0.210 NA
ATOM     12  C   UNL     1      -0.000  -0.000  -0.000  0.00  0.00    +0.075 A 
ATOM     13  C   UNL     1      -0.000  -0.000  -0.000  0.00  0.00    +0.122 A 
ATOM     14  C   UNL     1      -0.000  -0.000  -0.000  0.00  0.00    +0.048 A 
ATOM     15  C   UNL     1      -0.000  -0.000  -0.000  0.00  0.00    +0.033 A 
ATOM     16  C   UNL     1      -0.000  -0.000  -0.000  0.00  0.00    +0.238 A 
ATOM     17  O   UNL     1      -0.000  -0.000  -0.000  0.00  0.00    -0.470 OA
ATOM     18  C   UNL     1      -0.000  -0.000  -0.000  0.00  0.00    +0.195 C 
ATOM     19  C   UNL     1      -0.000  -0.000  -0.000  0.00  0.00    +0.078 C 
ATOM     20  C   UNL     1      -0.000  -0.000  -0.000  0.00  0.00    +0.165 C 
ATOM     21  N   UNL     1      -0.000  -0.000  -0.000  0.00  0.00    -0.284 N 
ATOM     22  C   UNL     1      -0.000  -0.000  -0.000  0.00  0.00    +0.242 C 
ATOM     23  O   UNL     1      -0.000  -0.000  -0.000  0.00  0.00    -0.273 OA
ATOM     24  C   UNL     1      -0.000  -0.000  -0.000  0.00  0.00    +0.203 C 
ATOM     25  N   UNL     1      -0.000  -0.000  -0.000  0.00  0.00    -0.203 NA
ATOM     26  C   UNL     1      -0.000  -0.000  -0.000  0.00  0.00    +0.384 C 
ATOM     27  O   UNL     1      -0.000  -0.000  -0.000  0.00  0.00    -0.446 OA
ATOM     28  C   UNL     1      -0.000  -0.000  -0.000  0.00  0.00    +0.153 C 
ATOM     29  C   UNL     1      -0.000  -0.000  -0.000  0.00  0.00    +0.182 C 
ATOM     30  C   UNL     1      -0.000  -0.000  -0.000  0.00  0.00    +0.052 C 
ENDROOT
BRANCH  24  31
ATOM     31  C   UNL     1      -0.000  -0.000  -0.000  0.00  0.00    -0.007 C 
ATOM     32  C   UNL     1      -0.000  -0.000  -0.000  0.00  0.00    +0.013 C 
ATOM     33  C   UNL     1      -0.000  -0.000  -0.000  0.00  0.00    +0.013 C 
ATOM     34  C   UNL     1      -0.000  -0.000  -0.000  0.00  0.00    +0.013 C 
ENDBRANCH  24  31
BRANCH  13  35
ATOM     35  O   UNL     1      -0.000  -0.000  -0.000  0.00  0.00    -0.495 OA
ATOM     36  C   UNL     1      -0.000  -0.000  -0.000  0.00  0.00    +0.277 C 
ENDBRANCH  13  35
BRANCH  20  37
ATOM     37  C   UNL     1      -0.000  -0.000  -0.000  0.00  0.00    +0.205 C 
ATOM     38  N   UNL     1      -0.000  -0.000  -0.000  0.00  0.00    -0.236 NA
BRANCH  38  39
ATOM     39  C   UNL     1      -0.000  -0.000  -0.000  0.00  0.00    +0.148 C 
ATOM     40  C   UNL     1      -0.000  -0.000  -0.000  0.00  0.00    +0.051 C 
ATOM     41  C   UNL     1      -0.000  -0.000  -0.000  0.00  0.00    +0.051 C 
BRANCH  39  42
ATOM     42  C   UNL     1      -0.000  -0.000  -0.000  0.00  0.00    +0.235 C 
ATOM     43  N   UNL     1      -0.000  -0.000  -0.000  0.00  0.00    -0.098 NA
BRANCH  43  44
ATOM     44  S   UNL     1      -0.000  -0.000  -0.000  0.00  0.00    +0.075 S 
ATOM     45  O   UNL     1      -0.000  -0.000  -0.000  0.00  0.00    -0.151 OA
ATOM     46  O   UNL     1      -0.000  -0.000  -0.000  0.00  0.00    -0.151 OA
BRANCH  44  47
ATOM     47  C   UNL     1      -0.000  -0.000  -0.000  0.00  0.00    +0.156 C 
ATOM     48  C   UNL     1      -0.000  -0.000  -0.000  0.00  0.00    +0.030 C 
ATOM     49  C   UNL     1      -0.000  -0.000  -0.000  0.00  0.00    +0.030 C 
ENDBRANCH  44  47
ENDBRANCH  43  44
BRANCH  42  50
ATOM     50  O   UNL     1      -0.000  -0.000  -0.000  0.00  0.00    -0.493 OA
ATOM     51  H   UNL     1      -0.000  -0.000  -0.000  0.00  0.00    +0.294 HD
ENDBRANCH  42  50
ENDBRANCH  39  42
BRANCH  40  52
ATOM     52  C   UNL     1      -0.000  -0.000  -0.000  0.00  0.00    -0.028 C 
ATOM     53  C   UNL     1      -0.000  -0.000  -0.000  0.00  0.00    +0.004 C 
ENDBRANCH  40  52
ENDBRANCH  38  39
BRANCH  37  54
ATOM     54  O   UNL     1      -0.000  -0.000  -0.000  0.00  0.00    -0.494 OA
ATOM     55  H   UNL     1      -0.000  -0.000  -0.000  0.00  0.00    +0.293 HD
ENDBRANCH  37  54
ENDBRANCH  20  37
BRANCH  26  56
ATOM     56  O   UNL     1      -0.000  -0.000  -0.000  0.00  0.00    -0.466 OA
ATOM     57  H   UNL     1       0.000   0.000   0.000  0.00  0.00    +0.297 HD
ENDBRANCH  26  56
TORSDOF 11
