REMARK  Name = 
REMARK  2 active torsions:
REMARK  status: ('A' for Active; 'I' for Inactive)
REMARK    1  A    between atoms: C_2  and  C_15
REMARK    2  A    between atoms: N_17  and  C_18
REMARK                            x       y       z     vdW  Elec       q    Type
REMARK                         _______ _______ _______ _____ _____    ______ ____
ROOT
ATOM      1  C   UNL     1       0.600  -0.123  -0.056  0.00  0.00    +0.133 C 
ATOM      2  C   UNL     1       0.126   0.765  -1.236  0.00  0.00    -0.020 A 
ATOM      3  C   UNL     1      -0.430   0.198  -2.414  0.00  0.00    -0.038 A 
ATOM      4  C   UNL     1      -0.853   1.005  -3.487  0.00  0.00    +0.053 A 
ATOM      5  C   UNL     1      -0.683   2.364  -3.380  0.00  0.00    +0.167 A 
ATOM      6  O   UNL     1      -1.002   3.282  -4.327  0.00  0.00    -0.453 OA
ATOM      7  C   UNL     1      -0.500   4.486  -3.710  0.00  0.00    +0.466 C 
ATOM      8  O   UNL     1      -0.045   4.283  -2.355  0.00  0.00    -0.453 OA
ATOM      9  C   UNL     1      -0.131   2.928  -2.260  0.00  0.00    +0.167 A 
ATOM     10  C   UNL     1      -0.587  -1.290  -2.532  0.00  0.00    +0.051 C 
ATOM     11  C   UNL     1       0.431  -2.002  -1.658  0.00  0.00    +0.089 C 
ATOM     12  C   UNL     1       0.286   2.167  -1.185  0.00  0.00    +0.055 A 
ATOM     13  N   UNL     1       0.331  -1.592  -0.247  0.00  0.00    -0.295 NA
ATOM     14  C   UNL     1       1.267  -2.449   0.498  0.00  0.00    +0.105 C 
ENDROOT
BRANCH   1  15
ATOM     15  C   UNL     1       0.051   0.446   1.319  0.00  0.00    +0.229 C 
ATOM     16  C   UNL     1      -1.392   0.188   1.602  0.00  0.00    +0.012 A 
ATOM     17  C   UNL     1      -2.444   0.773   0.911  0.00  0.00    +0.012 A 
ATOM     18  C   UNL     1      -3.706   0.377   1.298  0.00  0.00    +0.050 A 
ATOM     19  C   UNL     1      -3.753  -0.554   2.319  0.00  0.00    +0.167 A 
ATOM     20  O   UNL     1      -4.955  -1.060   2.762  0.00  0.00    -0.453 OA
ATOM     21  C   UNL     1      -4.517  -1.982   3.793  0.00  0.00    +0.466 C 
ATOM     22  O   UNL     1      -3.085  -1.991   3.992  0.00  0.00    -0.452 OA
ATOM     23  C   UNL     1      -2.712  -1.102   3.031  0.00  0.00    +0.181 A 
ATOM     24  C   UNL     1      -1.449  -0.678   2.693  0.00  0.00    +0.111 A 
ATOM     25  C   UNL     1      -0.162  -0.959   3.225  0.00  0.00    +0.344 C 
ATOM     26  O   UNL     1       0.222  -1.655   4.153  0.00  0.00    -0.245 OA
ATOM     27  O   UNL     1       0.710  -0.201   2.453  0.00  0.00    -0.451 OA
ENDBRANCH   1  15
TORSDOF 1
