REMARK  Name = 
REMARK  14 active torsions:
REMARK  status: ('A' for Active; 'I' for Inactive)
REMARK    1  A    between atoms: C_1  and  C_2
REMARK    2  A    between atoms: C_2  and  C_3
REMARK    3  A    between atoms: C_2  and  N_4
REMARK    4  A    between atoms: N_4  and  C_5
REMARK    5  A    between atoms: C_5  and  C_6
REMARK    6  A    between atoms: C_6  and  C_7
REMARK    7  A    between atoms: C_7  and  C_8
REMARK    8  A    between atoms: C_8  and  O_9
REMARK    9  A    between atoms: O_9  and  C_10
REMARK   10  A    between atoms: C_10  and  C_11
REMARK   11  A    between atoms: N_13  and  S_14
REMARK   12  A    between atoms: S_14  and  C_15
REMARK   13  A    between atoms: C_20  and  C_21
REMARK   14  A    between atoms: C_27  and  C_30
REMARK                            x       y       z     vdW  Elec       q    Type
REMARK                         _______ _______ _______ _____ _____    ______ ____
ROOT
ATOM      1  N   UNL     1       3.104  -1.026   0.596  0.00  0.00    -0.311 N 
ATOM      2  C   UNL     1       4.482  -1.245   0.673  0.00  0.00    +0.140 A 
ATOM      3  C   UNL     1       5.055  -2.426   1.139  0.00  0.00    +0.155 A 
ATOM      4  N   UNL     1       6.391  -2.651   1.273  0.00  0.00    -0.249 NA
ATOM      5  C   UNL     1       7.234  -1.637   0.901  0.00  0.00    +0.097 A 
ATOM      6  C   UNL     1       6.698  -0.445   0.373  0.00  0.00    +0.099 A 
ATOM      7  N   UNL     1       5.336  -0.273   0.279  0.00  0.00    -0.228 NA
ENDROOT
BRANCH   5   8
ATOM      8  C   UNL     1       8.681  -1.926   1.164  0.00  0.00    +0.002 A 
ATOM      9  C   UNL     1       9.218  -3.213   0.937  0.00  0.00    +0.010 A 
ATOM     10  C   UNL     1      10.570  -3.501   1.165  0.00  0.00    +0.001 A 
ATOM     11  C   UNL     1      11.442  -2.493   1.561  0.00  0.00    +0.000 A 
ATOM     12  C   UNL     1      10.940  -1.228   1.838  0.00  0.00    +0.001 A 
ATOM     13  C   UNL     1       9.568  -0.975   1.712  0.00  0.00    +0.010 A 
ENDBRANCH   5   8
BRANCH   6  14
ATOM     14  C   UNL     1       7.475   0.752  -0.058  0.00  0.00    +0.003 A 
ATOM     15  C   UNL     1       8.780   0.678  -0.579  0.00  0.00    +0.010 A 
ATOM     16  C   UNL     1       9.588   1.813  -0.702  0.00  0.00    +0.001 A 
ATOM     17  C   UNL     1       9.057   3.071  -0.456  0.00  0.00    +0.000 A 
ATOM     18  C   UNL     1       7.717   3.192  -0.107  0.00  0.00    +0.001 A 
ATOM     19  C   UNL     1       6.944   2.046   0.105  0.00  0.00    +0.010 A 
ENDBRANCH   6  14
BRANCH   1  21
ATOM     20  C   UNL     1       1.281   0.260  -0.585  0.00  0.00    +0.028 C 
ATOM     21  C   UNL     1       2.683   0.278   0.030  0.00  0.00    +0.069 C 
ATOM     22  C   UNL     1       2.772   1.399   1.069  0.00  0.00    +0.028 C 
ENDBRANCH   1  21
BRANCH   1  23
ATOM     23  C   UNL     1       2.131  -1.971   1.171  0.00  0.00    +0.107 C 
BRANCH  23  24
ATOM     24  C   UNL     1       1.963  -1.809   2.686  0.00  0.00    +0.021 C 
BRANCH  24  25
ATOM     25  C   UNL     1       1.091  -2.904   3.331  0.00  0.00    +0.030 C 
BRANCH  25  26
ATOM     26  C   UNL     1       1.660  -4.317   3.229  0.00  0.00    +0.160 C 
BRANCH  26  27
ATOM     27  O   UNL     1       3.021  -4.305   3.651  0.00  0.00    -0.371 OA
BRANCH  27  28
ATOM     28  C   UNL     1       3.567  -5.622   3.706  0.00  0.00    +0.257 C 
BRANCH  28  29
ATOM     29  C   UNL     1       4.888  -5.645   4.471  0.00  0.00    +0.257 C 
ATOM     30  N   UNL     1       5.806  -4.647   4.106  0.00  0.00    -0.188 N 
ATOM     31  H   UNL     1       5.557  -3.957   3.401  0.00  0.00    +0.176 HD
ATOM     32  O   UNL     1       5.128  -6.504   5.306  0.00  0.00    -0.272 OA
BRANCH  30  33
ATOM     33  S   UNL     1       7.272  -4.463   4.876  0.00  0.00    +0.042 S 
ATOM     34  O   UNL     1       8.129  -5.555   4.494  0.00  0.00    -0.155 OA
ATOM     35  O   UNL     1       7.029  -4.099   6.260  0.00  0.00    -0.155 OA
ATOM     36  C   UNL     1       7.870  -3.022   4.066  0.00  0.00    +0.218 C 
ENDBRANCH  30  33
ENDBRANCH  28  29
ENDBRANCH  27  28
ENDBRANCH  26  27
ENDBRANCH  25  26
ENDBRANCH  24  25
ENDBRANCH  23  24
ENDBRANCH   1  23
TORSDOF 11
