MODEL 1
REMARK VINA RESULT:      -7.5      0.000      0.000
REMARK  Name = 
REMARK  17 active torsions:
REMARK  status: ('A' for Active; 'I' for Inactive)
REMARK    1  A    between atoms: C_1  and  C_2
REMARK    2  A    between atoms: C_4  and  O_53
REMARK    3  A    between atoms: C_6  and  O_52
REMARK    4  A    between atoms: C_8  and  O_51
REMARK    5  A    between atoms: C_10  and  O_13
REMARK    6  A    between atoms: O_13  and  C_14
REMARK    7  A    between atoms: C_16  and  C_49
REMARK    8  A    between atoms: C_19  and  O_27
REMARK    9  A    between atoms: C_21  and  O_26
REMARK   10  A    between atoms: C_23  and  O_25
REMARK   11  A    between atoms: O_27  and  C_28
REMARK   12  A    between atoms: C_29  and  C_41
REMARK   13  A    between atoms: C_33  and  O_40
REMARK   14  A    between atoms: C_35  and  O_39
REMARK   15  A    between atoms: C_43  and  O_48
REMARK   16  A    between atoms: C_44  and  O_47
REMARK   17  A    between atoms: C_49  and  O_50
REMARK                            x       y       z     vdW  Elec       q    Type
REMARK                         _______ _______ _______ _____ _____    ______ ____
ROOT
ATOM      1  C   UNL     1       6.606  -5.244  24.082  0.00  0.00    +0.184 C 
ATOM      2  C   UNL     1       7.811  -5.620  24.970  0.00  0.00    +0.180 C 
ATOM      3  C   UNL     1       8.923  -4.527  25.092  0.00  0.00    +0.214 C 
ATOM      4  C   UNL     1       8.877  -3.325  24.097  0.00  0.00    +0.340 C 
ATOM      5  O   UNL     1       7.692  -3.292  23.306  0.00  0.00    -0.331 OA
ATOM      6  C   UNL     1       7.216  -4.554  22.859  0.00  0.00    +0.179 C 
ENDROOT
BRANCH   3   7
ATOM      7  O   UNL     1      10.178  -5.227  24.862  0.00  0.00    -0.383 OA
ATOM      8  H   UNL     1      10.147  -5.569  23.950  0.00  0.00    +0.210 HD
ENDBRANCH   3   7
BRANCH   2   9
ATOM      9  O   UNL     1       7.374  -5.998  26.291  0.00  0.00    -0.386 OA
ATOM     10  H   UNL     1       7.131  -6.945  26.245  0.00  0.00    +0.210 HD
ENDBRANCH   2   9
BRANCH   6  11
ATOM     11  C   UNL     1       6.221  -4.288  21.722  0.00  0.00    +0.190 C 
BRANCH  11  12
ATOM     12  O   UNL     1       5.979  -5.505  20.990  0.00  0.00    -0.392 OA
ATOM     13  H   UNL     1       6.587  -5.496  20.229  0.00  0.00    +0.210 HD
ENDBRANCH  11  12
ENDBRANCH   6  11
BRANCH   4  14
ATOM     14  O   UNL     1       8.910  -2.042  24.774  0.00  0.00    -0.453 OA
BRANCH  14  15
ATOM     15  C   UNL     1       8.085  -1.046  24.272  0.00  0.00    +0.214 A 
ATOM     16  C   UNL     1       8.753  -0.064  23.338  0.00  0.00    +0.238 A 
ATOM     17  O   UNL     1       9.853  -0.329  22.865  0.00  0.00    -0.283 OA
ATOM     18  C   UNL     1       8.033   1.195  23.019  0.00  0.00    +0.109 A 
ATOM     19  C   UNL     1       6.696   1.258  23.388  0.00  0.00    +0.147 A 
ATOM     20  C   UNL     1       5.891   2.344  23.042  0.00  0.00    +0.092 A 
ATOM     21  C   UNL     1       6.442   3.403  22.328  0.00  0.00    +0.124 A 
ATOM     22  C   UNL     1       7.789   3.395  21.996  0.00  0.00    +0.091 A 
ATOM     23  O   UNL     1       6.083   0.272  24.105  0.00  0.00    -0.451 OA
ATOM     24  C   UNL     1       8.586   2.293  22.343  0.00  0.00    +0.135 A 
ATOM     25  C   UNL     1       6.834  -0.742  24.704  0.00  0.00    +0.181 A 
BRANCH  25  26
ATOM     26  C   UNL     1       6.049  -1.344  25.841  0.00  0.00    +0.025 A 
ATOM     27  C   UNL     1       5.073  -0.548  26.497  0.00  0.00    +0.015 A 
ATOM     28  C   UNL     1       4.384  -0.985  27.635  0.00  0.00    +0.050 A 
ATOM     29  C   UNL     1       4.637  -2.249  28.129  0.00  0.00    +0.158 A 
ATOM     30  C   UNL     1       5.522  -3.088  27.469  0.00  0.00    +0.159 A 
ATOM     31  C   UNL     1       6.234  -2.633  26.357  0.00  0.00    +0.060 A 
BRANCH  30  32
ATOM     32  O   UNL     1       5.680  -4.361  27.947  0.00  0.00    -0.503 OA
ATOM     33  H   UNL     1       5.279  -4.993  27.308  0.00  0.00    +0.292 HD
ENDBRANCH  30  32
BRANCH  29  34
ATOM     34  O   UNL     1       4.023  -2.656  29.276  0.00  0.00    -0.503 OA
ATOM     35  H   UNL     1       4.194  -3.619  29.314  0.00  0.00    +0.292 HD
ENDBRANCH  29  34
ENDBRANCH  25  26
BRANCH  24  36
ATOM     36  O   UNL     1       9.912   2.330  22.012  0.00  0.00    -0.506 OA
ATOM     37  H   UNL     1      10.047   1.952  21.126  0.00  0.00    +0.292 HD
ENDBRANCH  24  36
BRANCH  21  38
ATOM     38  O   UNL     1       5.691   4.472  21.943  0.00  0.00    -0.507 OA
ATOM     39  H   UNL     1       4.754   4.215  21.901  0.00  0.00    +0.292 HD
ENDBRANCH  21  38
ENDBRANCH  14  15
ENDBRANCH   4  14
BRANCH   1  40
ATOM     40  O   UNL     1       5.819  -6.350  23.630  0.00  0.00    -0.340 OA
BRANCH  40  44
ATOM     41  C   UNL     1       1.596  -6.625  22.755  0.00  0.00    +0.041 C 
ATOM     42  C   UNL     1       2.332  -5.425  23.337  0.00  0.00    +0.149 C 
ATOM     43  O   UNL     1       3.751  -5.537  23.173  0.00  0.00    -0.343 OA
ATOM     44  C   UNL     1       4.446  -6.461  24.031  0.00  0.00    +0.282 C 
ATOM     45  C   UNL     1       4.179  -6.104  25.522  0.00  0.00    +0.201 C 
ATOM     46  C   UNL     1       2.668  -6.001  25.797  0.00  0.00    +0.179 C 
ATOM     47  C   UNL     1       1.970  -5.084  24.790  0.00  0.00    +0.174 C 
BRANCH  47  48
ATOM     48  O   UNL     1       2.377  -3.732  25.059  0.00  0.00    -0.387 OA
ATOM     49  H   UNL     1       1.584  -3.163  25.024  0.00  0.00    +0.210 HD
ENDBRANCH  47  48
BRANCH  46  50
ATOM     50  O   UNL     1       2.075  -7.308  25.859  0.00  0.00    -0.386 OA
ATOM     51  H   UNL     1       1.210  -7.276  26.300  0.00  0.00    +0.210 HD
ENDBRANCH  46  50
BRANCH  45  52
ATOM     52  O   UNL     1       4.732  -7.066  26.441  0.00  0.00    -0.384 OA
ATOM     53  H   UNL     1       5.220  -6.549  27.116  0.00  0.00    +0.210 HD
ENDBRANCH  45  52
ENDBRANCH  40  44
ENDBRANCH   1  40
TORSDOF 16
ENDMDL
MODEL 2
REMARK VINA RESULT:      -7.5      1.820      3.653
REMARK  Name = 
REMARK  17 active torsions:
REMARK  status: ('A' for Active; 'I' for Inactive)
REMARK    1  A    between atoms: C_1  and  C_2
REMARK    2  A    between atoms: C_4  and  O_53
REMARK    3  A    between atoms: C_6  and  O_52
REMARK    4  A    between atoms: C_8  and  O_51
REMARK    5  A    between atoms: C_10  and  O_13
REMARK    6  A    between atoms: O_13  and  C_14
REMARK    7  A    between atoms: C_16  and  C_49
REMARK    8  A    between atoms: C_19  and  O_27
REMARK    9  A    between atoms: C_21  and  O_26
REMARK   10  A    between atoms: C_23  and  O_25
REMARK   11  A    between atoms: O_27  and  C_28
REMARK   12  A    between atoms: C_29  and  C_41
REMARK   13  A    between atoms: C_33  and  O_40
REMARK   14  A    between atoms: C_35  and  O_39
REMARK   15  A    between atoms: C_43  and  O_48
REMARK   16  A    between atoms: C_44  and  O_47
REMARK   17  A    between atoms: C_49  and  O_50
REMARK                            x       y       z     vdW  Elec       q    Type
REMARK                         _______ _______ _______ _____ _____    ______ ____
ROOT
ATOM      1  C   UNL     1       6.889  -3.221  26.388  0.00  0.00    +0.184 C 
ATOM      2  C   UNL     1       7.059  -1.743  26.795  0.00  0.00    +0.180 C 
ATOM      3  C   UNL     1       8.332  -1.031  26.229  0.00  0.00    +0.214 C 
ATOM      4  C   UNL     1       9.441  -1.922  25.589  0.00  0.00    +0.340 C 
ATOM      5  O   UNL     1       9.054  -3.286  25.441  0.00  0.00    -0.331 OA
ATOM      6  C   UNL     1       8.289  -3.828  26.509  0.00  0.00    +0.179 C 
ENDROOT
BRANCH   3   7
ATOM      7  O   UNL     1       8.931  -0.350  27.367  0.00  0.00    -0.383 OA
ATOM      8  H   UNL     1       9.448   0.395  27.010  0.00  0.00    +0.210 HD
ENDBRANCH   3   7
BRANCH   2   9
ATOM      9  O   UNL     1       5.892  -0.976  26.436  0.00  0.00    -0.386 OA
ATOM     10  H   UNL     1       5.668  -1.222  25.515  0.00  0.00    +0.210 HD
ENDBRANCH   2   9
BRANCH   6  11
ATOM     11  C   UNL     1       8.331  -5.355  26.369  0.00  0.00    +0.190 C 
BRANCH  11  12
ATOM     12  O   UNL     1       7.881  -5.969  27.592  0.00  0.00    -0.392 OA
ATOM     13  H   UNL     1       7.466  -5.264  28.121  0.00  0.00    +0.210 HD
ENDBRANCH  11  12
ENDBRANCH   6  11
BRANCH   4  14
ATOM     14  O   UNL     1       9.799  -1.489  24.251  0.00  0.00    -0.453 OA
BRANCH  14  15
ATOM     15  C   UNL     1       8.945  -0.588  23.633  0.00  0.00    +0.214 A 
ATOM     16  C   UNL     1       9.245   0.870  23.894  0.00  0.00    +0.238 A 
ATOM     17  O   UNL     1      10.327   1.189  24.376  0.00  0.00    -0.283 OA
ATOM     18  C   UNL     1       8.207   1.871  23.540  0.00  0.00    +0.109 A 
ATOM     19  C   UNL     1       7.151   1.421  22.757  0.00  0.00    +0.147 A 
ATOM     20  C   UNL     1       6.177   2.293  22.271  0.00  0.00    +0.092 A 
ATOM     21  C   UNL     1       6.247   3.645  22.593  0.00  0.00    +0.124 A 
ATOM     22  C   UNL     1       7.257   4.114  23.421  0.00  0.00    +0.091 A 
ATOM     23  O   UNL     1       6.997   0.111  22.411  0.00  0.00    -0.451 OA
ATOM     24  C   UNL     1       8.236   3.227  23.898  0.00  0.00    +0.135 A 
ATOM     25  C   UNL     1       7.767  -0.881  23.024  0.00  0.00    +0.181 A 
BRANCH  25  26
ATOM     26  C   UNL     1       7.064  -2.208  22.906  0.00  0.00    +0.025 A 
ATOM     27  C   UNL     1       5.694  -2.292  23.269  0.00  0.00    +0.015 A 
ATOM     28  C   UNL     1       4.996  -3.507  23.303  0.00  0.00    +0.050 A 
ATOM     29  C   UNL     1       5.650  -4.668  22.944  0.00  0.00    +0.158 A 
ATOM     30  C   UNL     1       6.964  -4.616  22.504  0.00  0.00    +0.159 A 
ATOM     31  C   UNL     1       7.666  -3.409  22.508  0.00  0.00    +0.060 A 
BRANCH  30  32
ATOM     32  O   UNL     1       7.547  -5.781  22.080  0.00  0.00    -0.503 OA
ATOM     33  H   UNL     1       6.926  -6.526  22.246  0.00  0.00    +0.292 HD
ENDBRANCH  30  32
BRANCH  29  34
ATOM     34  O   UNL     1       5.000  -5.862  23.042  0.00  0.00    -0.503 OA
ATOM     35  H   UNL     1       5.081  -6.105  23.987  0.00  0.00    +0.292 HD
ENDBRANCH  29  34
ENDBRANCH  25  26
BRANCH  24  36
ATOM     36  O   UNL     1       9.205   3.725  24.723  0.00  0.00    -0.506 OA
ATOM     37  H   UNL     1      10.085   3.576  24.336  0.00  0.00    +0.292 HD
ENDBRANCH  24  36
BRANCH  21  38
ATOM     38  O   UNL     1       5.337   4.541  22.121  0.00  0.00    -0.507 OA
ATOM     39  H   UNL     1       5.090   5.161  22.829  0.00  0.00    +0.292 HD
ENDBRANCH  21  38
ENDBRANCH  14  15
ENDBRANCH   4  14
BRANCH   1  40
ATOM     40  O   UNL     1       5.998  -3.977  27.214  0.00  0.00    -0.340 OA
BRANCH  40  44
ATOM     41  C   UNL     1       1.981  -3.258  25.789  0.00  0.00    +0.041 C 
ATOM     42  C   UNL     1       2.380  -3.903  27.110  0.00  0.00    +0.149 C 
ATOM     43  O   UNL     1       3.759  -3.671  27.422  0.00  0.00    -0.343 OA
ATOM     44  C   UNL     1       4.741  -4.424  26.685  0.00  0.00    +0.282 C 
ATOM     45  C   UNL     1       4.477  -5.948  26.854  0.00  0.00    +0.201 C 
ATOM     46  C   UNL     1       3.020  -6.294  26.499  0.00  0.00    +0.179 C 
ATOM     47  C   UNL     1       2.028  -5.392  27.238  0.00  0.00    +0.174 C 
BRANCH  47  48
ATOM     48  O   UNL     1       2.049  -5.750  28.630  0.00  0.00    -0.387 OA
ATOM     49  H   UNL     1       1.131  -5.931  28.912  0.00  0.00    +0.210 HD
ENDBRANCH  47  48
BRANCH  46  50
ATOM     50  O   UNL     1       2.829  -6.276  25.075  0.00  0.00    -0.386 OA
ATOM     51  H   UNL     1       3.427  -6.905  24.637  0.00  0.00    +0.210 HD
ENDBRANCH  46  50
BRANCH  45  52
ATOM     52  O   UNL     1       5.337  -6.764  26.036  0.00  0.00    -0.384 OA
ATOM     53  H   UNL     1       4.777  -7.493  25.694  0.00  0.00    +0.210 HD
ENDBRANCH  45  52
ENDBRANCH  40  44
ENDBRANCH   1  40
TORSDOF 16
ENDMDL
MODEL 3
REMARK VINA RESULT:      -7.2      1.986      7.800
REMARK  Name = 
REMARK  17 active torsions:
REMARK  status: ('A' for Active; 'I' for Inactive)
REMARK    1  A    between atoms: C_1  and  C_2
REMARK    2  A    between atoms: C_4  and  O_53
REMARK    3  A    between atoms: C_6  and  O_52
REMARK    4  A    between atoms: C_8  and  O_51
REMARK    5  A    between atoms: C_10  and  O_13
REMARK    6  A    between atoms: O_13  and  C_14
REMARK    7  A    between atoms: C_16  and  C_49
REMARK    8  A    between atoms: C_19  and  O_27
REMARK    9  A    between atoms: C_21  and  O_26
REMARK   10  A    between atoms: C_23  and  O_25
REMARK   11  A    between atoms: O_27  and  C_28
REMARK   12  A    between atoms: C_29  and  C_41
REMARK   13  A    between atoms: C_33  and  O_40
REMARK   14  A    between atoms: C_35  and  O_39
REMARK   15  A    between atoms: C_43  and  O_48
REMARK   16  A    between atoms: C_44  and  O_47
REMARK   17  A    between atoms: C_49  and  O_50
REMARK                            x       y       z     vdW  Elec       q    Type
REMARK                         _______ _______ _______ _____ _____    ______ ____
ROOT
ATOM      1  C   UNL     1       7.898  -0.399  23.111  0.00  0.00    +0.184 C 
ATOM      2  C   UNL     1       6.441  -0.893  22.986  0.00  0.00    +0.180 C 
ATOM      3  C   UNL     1       6.243  -2.440  23.108  0.00  0.00    +0.214 C 
ATOM      4  C   UNL     1       7.511  -3.346  23.030  0.00  0.00    +0.340 C 
ATOM      5  O   UNL     1       8.732  -2.610  23.039  0.00  0.00    -0.331 OA
ATOM      6  C   UNL     1       8.725  -1.398  22.298  0.00  0.00    +0.179 C 
ENDROOT
BRANCH   3   7
ATOM      7  O   UNL     1       5.384  -2.807  21.991  0.00  0.00    -0.383 OA
ATOM      8  H   UNL     1       5.400  -3.780  21.932  0.00  0.00    +0.210 HD
ENDBRANCH   3   7
BRANCH   2   9
ATOM      9  O   UNL     1       5.593  -0.233  23.947  0.00  0.00    -0.386 OA
ATOM     10  H   UNL     1       5.418   0.665  23.596  0.00  0.00    +0.210 HD
ENDBRANCH   2   9
BRANCH   6  11
ATOM     11  C   UNL     1      10.188  -0.985  22.088  0.00  0.00    +0.190 C 
BRANCH  11  12
ATOM     12  O   UNL     1      10.677  -0.307  23.261  0.00  0.00    -0.392 OA
ATOM     13  H   UNL     1      11.004  -0.999  23.864  0.00  0.00    +0.210 HD
ENDBRANCH  11  12
ENDBRANCH   6  11
BRANCH   4  14
ATOM     14  O   UNL     1       7.615  -4.254  24.157  0.00  0.00    -0.453 OA
BRANCH  14  15
ATOM     15  C   UNL     1       6.453  -4.503  24.872  0.00  0.00    +0.214 A 
ATOM     16  C   UNL     1       5.547  -5.561  24.286  0.00  0.00    +0.238 A 
ATOM     17  O   UNL     1       5.975  -6.311  23.416  0.00  0.00    -0.283 OA
ATOM     18  C   UNL     1       4.159  -5.656  24.805  0.00  0.00    +0.109 A 
ATOM     19  C   UNL     1       3.879  -4.947  25.966  0.00  0.00    +0.147 A 
ATOM     20  C   UNL     1       2.643  -5.049  26.606  0.00  0.00    +0.092 A 
ATOM     21  C   UNL     1       1.655  -5.863  26.060  0.00  0.00    +0.124 A 
ATOM     22  C   UNL     1       1.885  -6.538  24.869  0.00  0.00    +0.091 A 
ATOM     23  O   UNL     1       4.783  -4.114  26.556  0.00  0.00    -0.451 OA
ATOM     24  C   UNL     1       3.136  -6.432  24.239  0.00  0.00    +0.135 A 
ATOM     25  C   UNL     1       5.956  -3.752  25.889  0.00  0.00    +0.181 A 
BRANCH  25  26
ATOM     26  C   UNL     1       6.481  -2.460  26.460  0.00  0.00    +0.025 A 
ATOM     27  C   UNL     1       5.567  -1.553  27.056  0.00  0.00    +0.015 A 
ATOM     28  C   UNL     1       5.949  -0.281  27.503  0.00  0.00    +0.050 A 
ATOM     29  C   UNL     1       7.271   0.101  27.391  0.00  0.00    +0.158 A 
ATOM     30  C   UNL     1       8.210  -0.788  26.891  0.00  0.00    +0.159 A 
ATOM     31  C   UNL     1       7.817  -2.040  26.411  0.00  0.00    +0.060 A 
BRANCH  30  32
ATOM     32  O   UNL     1       9.522  -0.396  26.875  0.00  0.00    -0.503 OA
ATOM     33  H   UNL     1       9.752  -0.089  25.969  0.00  0.00    +0.292 HD
ENDBRANCH  30  32
BRANCH  29  34
ATOM     34  O   UNL     1       7.638   1.361  27.759  0.00  0.00    -0.503 OA
ATOM     35  H   UNL     1       8.489   1.238  28.227  0.00  0.00    +0.292 HD
ENDBRANCH  29  34
ENDBRANCH  25  26
BRANCH  24  36
ATOM     36  O   UNL     1       3.318  -7.100  23.060  0.00  0.00    -0.506 OA
ATOM     37  H   UNL     1       3.542  -8.030  23.233  0.00  0.00    +0.292 HD
ENDBRANCH  24  36
BRANCH  21  38
ATOM     38  O   UNL     1       0.443  -6.017  26.662  0.00  0.00    -0.507 OA
ATOM     39  H   UNL     1       0.571  -6.225  27.604  0.00  0.00    +0.292 HD
ENDBRANCH  21  38
ENDBRANCH  14  15
ENDBRANCH   4  14
BRANCH   1  40
ATOM     40  O   UNL     1       8.138   0.912  22.593  0.00  0.00    -0.340 OA
BRANCH  40  44
ATOM     41  C   UNL     1       5.604   4.233  23.703  0.00  0.00    +0.041 C 
ATOM     42  C   UNL     1       6.934   4.306  22.963  0.00  0.00    +0.149 C 
ATOM     43  O   UNL     1       7.331   3.028  22.450  0.00  0.00    -0.343 OA
ATOM     44  C   UNL     1       7.836   2.064  23.394  0.00  0.00    +0.282 C 
ATOM     45  C   UNL     1       9.055   2.656  24.156  0.00  0.00    +0.201 C 
ATOM     46  C   UNL     1       8.702   4.021  24.776  0.00  0.00    +0.179 C 
ATOM     47  C   UNL     1       8.077   4.966  23.747  0.00  0.00    +0.174 C 
BRANCH  47  48
ATOM     48  O   UNL     1       9.103   5.358  22.819  0.00  0.00    -0.387 OA
ATOM     49  H   UNL     1       9.232   6.323  22.898  0.00  0.00    +0.210 HD
ENDBRANCH  47  48
BRANCH  46  50
ATOM     50  O   UNL     1       7.879   3.849  25.941  0.00  0.00    -0.386 OA
ATOM     51  H   UNL     1       8.250   4.329  26.701  0.00  0.00    +0.210 HD
ENDBRANCH  46  50
BRANCH  45  52
ATOM     52  O   UNL     1       9.531   1.801  25.213  0.00  0.00    -0.384 OA
ATOM     53  H   UNL     1       9.379   0.881  24.908  0.00  0.00    +0.210 HD
ENDBRANCH  45  52
ENDBRANCH  40  44
ENDBRANCH   1  40
TORSDOF 16
ENDMDL
MODEL 4
REMARK VINA RESULT:      -7.0      1.798      3.867
REMARK  Name = 
REMARK  17 active torsions:
REMARK  status: ('A' for Active; 'I' for Inactive)
REMARK    1  A    between atoms: C_1  and  C_2
REMARK    2  A    between atoms: C_4  and  O_53
REMARK    3  A    between atoms: C_6  and  O_52
REMARK    4  A    between atoms: C_8  and  O_51
REMARK    5  A    between atoms: C_10  and  O_13
REMARK    6  A    between atoms: O_13  and  C_14
REMARK    7  A    between atoms: C_16  and  C_49
REMARK    8  A    between atoms: C_19  and  O_27
REMARK    9  A    between atoms: C_21  and  O_26
REMARK   10  A    between atoms: C_23  and  O_25
REMARK   11  A    between atoms: O_27  and  C_28
REMARK   12  A    between atoms: C_29  and  C_41
REMARK   13  A    between atoms: C_33  and  O_40
REMARK   14  A    between atoms: C_35  and  O_39
REMARK   15  A    between atoms: C_43  and  O_48
REMARK   16  A    between atoms: C_44  and  O_47
REMARK   17  A    between atoms: C_49  and  O_50
REMARK                            x       y       z     vdW  Elec       q    Type
REMARK                         _______ _______ _______ _____ _____    ______ ____
ROOT
ATOM      1  C   UNL     1       5.701  -4.306  25.981  0.00  0.00    +0.184 C 
ATOM      2  C   UNL     1       5.370  -2.802  26.081  0.00  0.00    +0.180 C 
ATOM      3  C   UNL     1       6.605  -1.844  26.134  0.00  0.00    +0.214 C 
ATOM      4  C   UNL     1       8.008  -2.476  26.393  0.00  0.00    +0.340 C 
ATOM      5  O   UNL     1       7.999  -3.901  26.366  0.00  0.00    -0.331 OA
ATOM      6  C   UNL     1       6.864  -4.520  26.955  0.00  0.00    +0.179 C 
ENDROOT
BRANCH   3   7
ATOM      7  O   UNL     1       6.337  -0.930  27.235  0.00  0.00    -0.383 OA
ATOM      8  H   UNL     1       6.363  -0.029  26.866  0.00  0.00    +0.210 HD
ENDBRANCH   3   7
BRANCH   2   9
ATOM      9  O   UNL     1       4.506  -2.396  25.000  0.00  0.00    -0.386 OA
ATOM     10  H   UNL     1       4.927  -2.708  24.173  0.00  0.00    +0.210 HD
ENDBRANCH   2   9
BRANCH   6  11
ATOM     11  C   UNL     1       7.222  -5.992  27.198  0.00  0.00    +0.190 C 
BRANCH  11  12
ATOM     12  O   UNL     1       6.620  -6.445  28.425  0.00  0.00    -0.392 OA
ATOM     13  H   UNL     1       6.085  -5.703  28.762  0.00  0.00    +0.210 HD
ENDBRANCH  11  12
ENDBRANCH   6  11
BRANCH   4  14
ATOM     14  O   UNL     1       8.984  -2.091  25.391  0.00  0.00    -0.453 OA
BRANCH  14  15
ATOM     15  C   UNL     1       8.599  -1.118  24.479  0.00  0.00    +0.214 A 
ATOM     16  C   UNL     1       8.769   0.309  24.946  0.00  0.00    +0.238 A 
ATOM     17  O   UNL     1       9.457   0.546  25.933  0.00  0.00    -0.283 OA
ATOM     18  C   UNL     1       8.092   1.381  24.173  0.00  0.00    +0.109 A 
ATOM     19  C   UNL     1       7.577   1.023  22.934  0.00  0.00    +0.147 A 
ATOM     20  C   UNL     1       7.019   1.969  22.072  0.00  0.00    +0.092 A 
ATOM     21  C   UNL     1       6.956   3.301  22.468  0.00  0.00    +0.124 A 
ATOM     22  C   UNL     1       7.411   3.679  23.723  0.00  0.00    +0.091 A 
ATOM     23  O   UNL     1       7.581  -0.262  22.478  0.00  0.00    -0.451 OA
ATOM     24  C   UNL     1       7.976   2.719  24.578  0.00  0.00    +0.135 A 
ATOM     25  C   UNL     1       7.894  -1.319  23.337  0.00  0.00    +0.181 A 
BRANCH  25  26
ATOM     26  C   UNL     1       7.310  -2.598  22.793  0.00  0.00    +0.025 A 
ATOM     27  C   UNL     1       6.064  -2.548  22.115  0.00  0.00    +0.015 A 
ATOM     28  C   UNL     1       5.393  -3.700  21.684  0.00  0.00    +0.050 A 
ATOM     29  C   UNL     1       5.973  -4.934  21.897  0.00  0.00    +0.158 A 
ATOM     30  C   UNL     1       7.227  -5.020  22.482  0.00  0.00    +0.159 A 
ATOM     31  C   UNL     1       7.874  -3.871  22.944  0.00  0.00    +0.060 A 
BRANCH  30  32
ATOM     32  O   UNL     1       7.799  -6.259  22.599  0.00  0.00    -0.503 OA
ATOM     33  H   UNL     1       8.649  -6.172  23.087  0.00  0.00    +0.292 HD
ENDBRANCH  30  32
BRANCH  29  34
ATOM     34  O   UNL     1       5.296  -6.063  21.544  0.00  0.00    -0.503 OA
ATOM     35  H   UNL     1       5.283  -6.042  20.566  0.00  0.00    +0.292 HD
ENDBRANCH  29  34
ENDBRANCH  25  26
BRANCH  24  36
ATOM     36  O   UNL     1       8.398   3.128  25.812  0.00  0.00    -0.506 OA
ATOM     37  H   UNL     1       9.328   2.879  25.949  0.00  0.00    +0.292 HD
ENDBRANCH  24  36
BRANCH  21  38
ATOM     38  O   UNL     1       6.448   4.265  21.652  0.00  0.00    -0.507 OA
ATOM     39  H   UNL     1       5.480   4.300  21.751  0.00  0.00    +0.292 HD
ENDBRANCH  21  38
ENDBRANCH  14  15
ENDBRANCH   4  14
BRANCH   1  40
ATOM     40  O   UNL     1       4.636  -5.185  26.352  0.00  0.00    -0.340 OA
BRANCH  40  44
ATOM     41  C   UNL     1       0.900  -4.737  24.225  0.00  0.00    +0.041 C 
ATOM     42  C   UNL     1       1.234  -5.790  25.274  0.00  0.00    +0.149 C 
ATOM     43  O   UNL     1       2.406  -5.447  26.022  0.00  0.00    -0.343 OA
ATOM     44  C   UNL     1       3.679  -5.604  25.367  0.00  0.00    +0.282 C 
ATOM     45  C   UNL     1       3.851  -7.073  24.886  0.00  0.00    +0.201 C 
ATOM     46  C   UNL     1       2.646  -7.514  24.036  0.00  0.00    +0.179 C 
ATOM     47  C   UNL     1       1.319  -7.229  24.744  0.00  0.00    +0.174 C 
BRANCH  47  48
ATOM     48  O   UNL     1       1.200  -8.135  25.855  0.00  0.00    -0.387 OA
ATOM     49  H   UNL     1       0.313  -8.541  25.823  0.00  0.00    +0.210 HD
ENDBRANCH  47  48
BRANCH  46  50
ATOM     50  O   UNL     1       2.710  -6.930  22.726  0.00  0.00    -0.386 OA
ATOM     51  H   UNL     1       3.057  -7.567  22.078  0.00  0.00    +0.210 HD
ENDBRANCH  46  50
BRANCH  45  52
ATOM     52  O   UNL     1       5.042  -7.275  24.102  0.00  0.00    -0.384 OA
ATOM     53  H   UNL     1       5.745  -7.531  24.736  0.00  0.00    +0.210 HD
ENDBRANCH  45  52
ENDBRANCH  40  44
ENDBRANCH   1  40
TORSDOF 16
ENDMDL
MODEL 5
REMARK VINA RESULT:      -7.0      2.040      7.605
REMARK  Name = 
REMARK  17 active torsions:
REMARK  status: ('A' for Active; 'I' for Inactive)
REMARK    1  A    between atoms: C_1  and  C_2
REMARK    2  A    between atoms: C_4  and  O_53
REMARK    3  A    between atoms: C_6  and  O_52
REMARK    4  A    between atoms: C_8  and  O_51
REMARK    5  A    between atoms: C_10  and  O_13
REMARK    6  A    between atoms: O_13  and  C_14
REMARK    7  A    between atoms: C_16  and  C_49
REMARK    8  A    between atoms: C_19  and  O_27
REMARK    9  A    between atoms: C_21  and  O_26
REMARK   10  A    between atoms: C_23  and  O_25
REMARK   11  A    between atoms: O_27  and  C_28
REMARK   12  A    between atoms: C_29  and  C_41
REMARK   13  A    between atoms: C_33  and  O_40
REMARK   14  A    between atoms: C_35  and  O_39
REMARK   15  A    between atoms: C_43  and  O_48
REMARK   16  A    between atoms: C_44  and  O_47
REMARK   17  A    between atoms: C_49  and  O_50
REMARK                            x       y       z     vdW  Elec       q    Type
REMARK                         _______ _______ _______ _____ _____    ______ ____
ROOT
ATOM      1  C   UNL     1       8.452   0.424  23.763  0.00  0.00    +0.184 C 
ATOM      2  C   UNL     1       7.781  -0.577  22.799  0.00  0.00    +0.180 C 
ATOM      3  C   UNL     1       7.956  -2.087  23.169  0.00  0.00    +0.214 C 
ATOM      4  C   UNL     1       9.015  -2.454  24.254  0.00  0.00    +0.340 C 
ATOM      5  O   UNL     1       9.569  -1.316  24.911  0.00  0.00    -0.331 OA
ATOM      6  C   UNL     1       9.818  -0.189  24.082  0.00  0.00    +0.179 C 
ENDROOT
BRANCH   3   7
ATOM      7  O   UNL     1       8.363  -2.741  21.934  0.00  0.00    -0.383 OA
ATOM      8  H   UNL     1       8.282  -3.701  22.083  0.00  0.00    +0.210 HD
ENDBRANCH   3   7
BRANCH   2   9
ATOM      9  O   UNL     1       6.376  -0.287  22.657  0.00  0.00    -0.386 OA
ATOM     10  H   UNL     1       6.268   0.669  22.839  0.00  0.00    +0.210 HD
ENDBRANCH   2   9
BRANCH   6  11
ATOM     11  C   UNL     1      10.765   0.741  24.851  0.00  0.00    +0.190 C 
BRANCH  11  12
ATOM     12  O   UNL     1      11.252   1.775  23.975  0.00  0.00    -0.392 OA
ATOM     13  H   UNL     1      12.195   1.583  23.817  0.00  0.00    +0.210 HD
ENDBRANCH  11  12
ENDBRANCH   6  11
BRANCH   4  14
ATOM     14  O   UNL     1       8.458  -3.265  25.321  0.00  0.00    -0.453 OA
BRANCH  14  15
ATOM     15  C   UNL     1       7.094  -3.514  25.275  0.00  0.00    +0.214 A 
ATOM     16  C   UNL     1       6.687  -4.732  24.478  0.00  0.00    +0.238 A 
ATOM     17  O   UNL     1       7.534  -5.560  24.160  0.00  0.00    -0.283 OA
ATOM     18  C   UNL     1       5.254  -4.882  24.117  0.00  0.00    +0.109 A 
ATOM     19  C   UNL     1       4.359  -4.036  24.759  0.00  0.00    +0.147 A 
ATOM     20  C   UNL     1       2.981  -4.160  24.584  0.00  0.00    +0.092 A 
ATOM     21  C   UNL     1       2.485  -5.139  23.728  0.00  0.00    +0.124 A 
ATOM     22  C   UNL     1       3.357  -5.961  23.028  0.00  0.00    +0.091 A 
ATOM     23  O   UNL     1       4.761  -3.039  25.599  0.00  0.00    -0.451 OA
ATOM     24  C   UNL     1       4.742  -5.831  23.219  0.00  0.00    +0.135 A 
ATOM     25  C   UNL     1       6.107  -2.670  25.669  0.00  0.00    +0.181 A 
BRANCH  25  26
ATOM     26  C   UNL     1       6.215  -1.262  26.195  0.00  0.00    +0.025 A 
ATOM     27  C   UNL     1       5.407  -0.250  25.614  0.00  0.00    +0.015 A 
ATOM     28  C   UNL     1       5.529   1.103  25.958  0.00  0.00    +0.050 A 
ATOM     29  C   UNL     1       6.447   1.471  26.919  0.00  0.00    +0.158 A 
ATOM     30  C   UNL     1       7.197   0.503  27.571  0.00  0.00    +0.159 A 
ATOM     31  C   UNL     1       7.098  -0.839  27.197  0.00  0.00    +0.060 A 
BRANCH  30  32
ATOM     32  O   UNL     1       8.035   0.906  28.575  0.00  0.00    -0.503 OA
ATOM     33  H   UNL     1       8.964   0.722  28.308  0.00  0.00    +0.292 HD
ENDBRANCH  30  32
BRANCH  29  34
ATOM     34  O   UNL     1       6.621   2.791  27.210  0.00  0.00    -0.503 OA
ATOM     35  H   UNL     1       5.853   3.234  26.796  0.00  0.00    +0.292 HD
ENDBRANCH  29  34
ENDBRANCH  25  26
BRANCH  24  36
ATOM     36  O   UNL     1       5.568  -6.648  22.499  0.00  0.00    -0.506 OA
ATOM     37  H   UNL     1       6.029  -7.265  23.093  0.00  0.00    +0.292 HD
ENDBRANCH  24  36
BRANCH  21  38
ATOM     38  O   UNL     1       1.147  -5.317  23.545  0.00  0.00    -0.507 OA
ATOM     39  H   UNL     1       0.677  -5.132  24.376  0.00  0.00    +0.292 HD
ENDBRANCH  21  38
ENDBRANCH  14  15
ENDBRANCH   4  14
BRANCH   1  40
ATOM     40  O   UNL     1       8.660   1.733  23.227  0.00  0.00    -0.340 OA
BRANCH  40  44
ATOM     41  C   UNL     1       4.717   3.417  22.684  0.00  0.00    +0.041 C 
ATOM     42  C   UNL     1       6.013   3.903  22.049  0.00  0.00    +0.149 C 
ATOM     43  O   UNL     1       7.057   2.928  22.153  0.00  0.00    -0.343 OA
ATOM     44  C   UNL     1       7.679   2.758  23.441  0.00  0.00    +0.282 C 
ATOM     45  C   UNL     1       8.260   4.114  23.933  0.00  0.00    +0.201 C 
ATOM     46  C   UNL     1       7.187   5.217  23.890  0.00  0.00    +0.179 C 
ATOM     47  C   UNL     1       6.494   5.281  22.527  0.00  0.00    +0.174 C 
BRANCH  47  48
ATOM     48  O   UNL     1       7.435   5.795  21.570  0.00  0.00    -0.387 OA
ATOM     49  H   UNL     1       7.703   6.689  21.858  0.00  0.00    +0.210 HD
ENDBRANCH  47  48
BRANCH  46  50
ATOM     50  O   UNL     1       6.259   5.061  24.976  0.00  0.00    -0.386 OA
ATOM     51  H   UNL     1       5.360   5.311  24.702  0.00  0.00    +0.210 HD
ENDBRANCH  46  50
BRANCH  45  52
ATOM     52  O   UNL     1       8.778   4.054  25.275  0.00  0.00    -0.384 OA
ATOM     53  H   UNL     1       9.230   4.910  25.432  0.00  0.00    +0.210 HD
ENDBRANCH  45  52
ENDBRANCH  40  44
ENDBRANCH   1  40
TORSDOF 16
ENDMDL
MODEL 6
REMARK VINA RESULT:      -6.9      2.301      8.219
REMARK  Name = 
REMARK  17 active torsions:
REMARK  status: ('A' for Active; 'I' for Inactive)
REMARK    1  A    between atoms: C_1  and  C_2
REMARK    2  A    between atoms: C_4  and  O_53
REMARK    3  A    between atoms: C_6  and  O_52
REMARK    4  A    between atoms: C_8  and  O_51
REMARK    5  A    between atoms: C_10  and  O_13
REMARK    6  A    between atoms: O_13  and  C_14
REMARK    7  A    between atoms: C_16  and  C_49
REMARK    8  A    between atoms: C_19  and  O_27
REMARK    9  A    between atoms: C_21  and  O_26
REMARK   10  A    between atoms: C_23  and  O_25
REMARK   11  A    between atoms: O_27  and  C_28
REMARK   12  A    between atoms: C_29  and  C_41
REMARK   13  A    between atoms: C_33  and  O_40
REMARK   14  A    between atoms: C_35  and  O_39
REMARK   15  A    between atoms: C_43  and  O_48
REMARK   16  A    between atoms: C_44  and  O_47
REMARK   17  A    between atoms: C_49  and  O_50
REMARK                            x       y       z     vdW  Elec       q    Type
REMARK                         _______ _______ _______ _____ _____    ______ ____
ROOT
ATOM      1  C   UNL     1       8.506   1.991  23.218  0.00  0.00    +0.184 C 
ATOM      2  C   UNL     1       7.831   0.782  22.538  0.00  0.00    +0.180 C 
ATOM      3  C   UNL     1       8.324  -0.623  23.020  0.00  0.00    +0.214 C 
ATOM      4  C   UNL     1       9.625  -0.683  23.878  0.00  0.00    +0.340 C 
ATOM      5  O   UNL     1      10.103   0.601  24.271  0.00  0.00    -0.331 OA
ATOM      6  C   UNL     1       9.991   1.624  23.292  0.00  0.00    +0.179 C 
ENDROOT
BRANCH   3   7
ATOM      7  O   UNL     1       8.577  -1.380  21.802  0.00  0.00    -0.383 OA
ATOM      8  H   UNL     1       7.889  -2.069  21.751  0.00  0.00    +0.210 HD
ENDBRANCH   3   7
BRANCH   2   9
ATOM      9  O   UNL     1       6.397   0.851  22.679  0.00  0.00    -0.386 OA
ATOM     10  H   UNL     1       6.040   1.083  21.798  0.00  0.00    +0.210 HD
ENDBRANCH   2   9
BRANCH   6  11
ATOM     11  C   UNL     1      10.906   2.775  23.730  0.00  0.00    +0.190 C 
BRANCH  11  12
ATOM     12  O   UNL     1      11.202   3.620  22.601  0.00  0.00    -0.392 OA
ATOM     13  H   UNL     1      11.526   3.035  21.894  0.00  0.00    +0.210 HD
ENDBRANCH  11  12
ENDBRANCH   6  11
BRANCH   4  14
ATOM     14  O   UNL     1       9.437  -1.407  25.122  0.00  0.00    -0.453 OA
BRANCH  14  15
ATOM     15  C   UNL     1       8.326  -2.233  25.206  0.00  0.00    +0.214 A 
ATOM     16  C   UNL     1       8.383  -3.481  24.355  0.00  0.00    +0.238 A 
ATOM     17  O   UNL     1       9.453  -3.838  23.873  0.00  0.00    -0.283 OA
ATOM     18  C   UNL     1       7.124  -4.240  24.144  0.00  0.00    +0.109 A 
ATOM     19  C   UNL     1       6.049  -3.898  24.954  0.00  0.00    +0.147 A 
ATOM     20  C   UNL     1       4.852  -4.615  24.923  0.00  0.00    +0.092 A 
ATOM     21  C   UNL     1       4.719  -5.686  24.044  0.00  0.00    +0.124 A 
ATOM     22  C   UNL     1       5.755  -6.014  23.182  0.00  0.00    +0.091 A 
ATOM     23  O   UNL     1       6.089  -2.852  25.828  0.00  0.00    -0.451 OA
ATOM     24  C   UNL     1       6.957  -5.290  23.229  0.00  0.00    +0.135 A 
ATOM     25  C   UNL     1       7.134  -1.927  25.781  0.00  0.00    +0.181 A 
BRANCH  25  26
ATOM     26  C   UNL     1       6.690  -0.633  26.413  0.00  0.00    +0.025 A 
ATOM     27  C   UNL     1       5.530   0.012  25.911  0.00  0.00    +0.015 A 
ATOM     28  C   UNL     1       5.115   1.273  26.358  0.00  0.00    +0.050 A 
ATOM     29  C   UNL     1       5.840   1.908  27.346  0.00  0.00    +0.158 A 
ATOM     30  C   UNL     1       6.932   1.275  27.921  0.00  0.00    +0.159 A 
ATOM     31  C   UNL     1       7.363   0.034  27.445  0.00  0.00    +0.060 A 
BRANCH  30  32
ATOM     32  O   UNL     1       7.571   1.906  28.954  0.00  0.00    -0.503 OA
ATOM     33  H   UNL     1       6.934   2.506  29.403  0.00  0.00    +0.292 HD
ENDBRANCH  30  32
BRANCH  29  34
ATOM     34  O   UNL     1       5.484   3.164  27.737  0.00  0.00    -0.503 OA
ATOM     35  H   UNL     1       5.189   3.600  26.912  0.00  0.00    +0.292 HD
ENDBRANCH  29  34
ENDBRANCH  25  26
BRANCH  24  36
ATOM     36  O   UNL     1       7.948  -5.634  22.352  0.00  0.00    -0.506 OA
ATOM     37  H   UNL     1       7.571  -5.820  21.475  0.00  0.00    +0.292 HD
ENDBRANCH  24  36
BRANCH  21  38
ATOM     38  O   UNL     1       3.581  -6.433  23.997  0.00  0.00    -0.507 OA
ATOM     39  H   UNL     1       3.190  -6.375  23.108  0.00  0.00    +0.292 HD
ENDBRANCH  21  38
ENDBRANCH  14  15
ENDBRANCH   4  14
BRANCH   1  40
ATOM     40  O   UNL     1       8.383   3.229  22.512  0.00  0.00    -0.340 OA
BRANCH  40  44
ATOM     41  C   UNL     1       5.144   4.963  24.789  0.00  0.00    +0.041 C 
ATOM     42  C   UNL     1       5.403   5.129  23.297  0.00  0.00    +0.149 C 
ATOM     43  O   UNL     1       6.332   4.156  22.805  0.00  0.00    -0.343 OA
ATOM     44  C   UNL     1       7.722   4.342  23.132  0.00  0.00    +0.282 C 
ATOM     45  C   UNL     1       8.203   5.735  22.632  0.00  0.00    +0.201 C 
ATOM     46  C   UNL     1       7.277   6.850  23.151  0.00  0.00    +0.179 C 
ATOM     47  C   UNL     1       5.805   6.546  22.862  0.00  0.00    +0.174 C 
BRANCH  47  48
ATOM     48  O   UNL     1       5.593   6.668  21.445  0.00  0.00    -0.387 OA
ATOM     49  H   UNL     1       6.262   7.283  21.089  0.00  0.00    +0.210 HD
ENDBRANCH  47  48
BRANCH  46  50
ATOM     50  O   UNL     1       7.526   7.108  24.542  0.00  0.00    -0.386 OA
ATOM     51  H   UNL     1       7.533   6.280  25.052  0.00  0.00    +0.210 HD
ENDBRANCH  46  50
BRANCH  45  52
ATOM     52  O   UNL     1       9.547   6.050  23.043  0.00  0.00    -0.384 OA
ATOM     53  H   UNL     1       9.481   6.855  23.598  0.00  0.00    +0.210 HD
ENDBRANCH  45  52
ENDBRANCH  40  44
ENDBRANCH   1  40
TORSDOF 16
ENDMDL
MODEL 7
REMARK VINA RESULT:      -6.8      1.306      2.048
REMARK  Name = 
REMARK  17 active torsions:
REMARK  status: ('A' for Active; 'I' for Inactive)
REMARK    1  A    between atoms: C_1  and  C_2
REMARK    2  A    between atoms: C_4  and  O_53
REMARK    3  A    between atoms: C_6  and  O_52
REMARK    4  A    between atoms: C_8  and  O_51
REMARK    5  A    between atoms: C_10  and  O_13
REMARK    6  A    between atoms: O_13  and  C_14
REMARK    7  A    between atoms: C_16  and  C_49
REMARK    8  A    between atoms: C_19  and  O_27
REMARK    9  A    between atoms: C_21  and  O_26
REMARK   10  A    between atoms: C_23  and  O_25
REMARK   11  A    between atoms: O_27  and  C_28
REMARK   12  A    between atoms: C_29  and  C_41
REMARK   13  A    between atoms: C_33  and  O_40
REMARK   14  A    between atoms: C_35  and  O_39
REMARK   15  A    between atoms: C_43  and  O_48
REMARK   16  A    between atoms: C_44  and  O_47
REMARK   17  A    between atoms: C_49  and  O_50
REMARK                            x       y       z     vdW  Elec       q    Type
REMARK                         _______ _______ _______ _____ _____    ______ ____
ROOT
ATOM      1  C   UNL     1       5.987  -5.355  25.100  0.00  0.00    +0.184 C 
ATOM      2  C   UNL     1       7.101  -5.743  26.095  0.00  0.00    +0.180 C 
ATOM      3  C   UNL     1       8.322  -4.767  26.153  0.00  0.00    +0.214 C 
ATOM      4  C   UNL     1       8.457  -3.701  25.021  0.00  0.00    +0.340 C 
ATOM      5  O   UNL     1       7.320  -3.641  24.163  0.00  0.00    -0.331 OA
ATOM      6  C   UNL     1       6.726  -4.891  23.841  0.00  0.00    +0.179 C 
ENDROOT
BRANCH   3   7
ATOM      7  O   UNL     1       9.500  -5.620  26.081  0.00  0.00    -0.383 OA
ATOM      8  H   UNL     1       9.440  -6.245  26.827  0.00  0.00    +0.210 HD
ENDBRANCH   3   7
BRANCH   2   9
ATOM      9  O   UNL     1       6.565  -5.905  27.424  0.00  0.00    -0.386 OA
ATOM     10  H   UNL     1       7.252  -5.586  28.044  0.00  0.00    +0.210 HD
ENDBRANCH   2   9
BRANCH   6  11
ATOM     11  C   UNL     1       5.820  -4.664  22.624  0.00  0.00    +0.190 C 
BRANCH  11  12
ATOM     12  O   UNL     1       5.512  -5.927  22.003  0.00  0.00    -0.392 OA
ATOM     13  H   UNL     1       5.078  -6.472  22.685  0.00  0.00    +0.210 HD
ENDBRANCH  11  12
ENDBRANCH   6  11
BRANCH   4  14
ATOM     14  O   UNL     1       8.602  -2.354  25.542  0.00  0.00    -0.453 OA
BRANCH  14  15
ATOM     15  C   UNL     1       7.893  -1.352  24.898  0.00  0.00    +0.214 A 
ATOM     16  C   UNL     1       8.624  -0.666  23.768  0.00  0.00    +0.238 A 
ATOM     17  O   UNL     1       9.640  -1.175  23.306  0.00  0.00    -0.283 OA
ATOM     18  C   UNL     1       8.068   0.610  23.249  0.00  0.00    +0.109 A 
ATOM     19  C   UNL     1       6.782   0.939  23.657  0.00  0.00    +0.147 A 
ATOM     20  C   UNL     1       6.116   2.055  23.148  0.00  0.00    +0.092 A 
ATOM     21  C   UNL     1       6.759   2.873  22.224  0.00  0.00    +0.124 A 
ATOM     22  C   UNL     1       8.065   2.602  21.841  0.00  0.00    +0.091 A 
ATOM     23  O   UNL     1       6.089   0.202  24.572  0.00  0.00    -0.451 OA
ATOM     24  C   UNL     1       8.722   1.473  22.355  0.00  0.00    +0.135 A 
ATOM     25  C   UNL     1       6.730  -0.789  25.318  0.00  0.00    +0.181 A 
BRANCH  25  26
ATOM     26  C   UNL     1       5.951  -1.051  26.581  0.00  0.00    +0.025 A 
ATOM     27  C   UNL     1       5.445  -2.357  26.815  0.00  0.00    +0.015 A 
ATOM     28  C   UNL     1       4.612  -2.660  27.900  0.00  0.00    +0.050 A 
ATOM     29  C   UNL     1       4.288  -1.662  28.797  0.00  0.00    +0.158 A 
ATOM     30  C   UNL     1       4.829  -0.393  28.650  0.00  0.00    +0.159 A 
ATOM     31  C   UNL     1       5.628  -0.088  27.546  0.00  0.00    +0.060 A 
BRANCH  30  32
ATOM     32  O   UNL     1       4.547   0.542  29.609  0.00  0.00    -0.503 OA
ATOM     33  H   UNL     1       4.661   1.439  29.223  0.00  0.00    +0.292 HD
ENDBRANCH  30  32
BRANCH  29  34
ATOM     34  O   UNL     1       3.423  -1.931  29.815  0.00  0.00    -0.503 OA
ATOM     35  H   UNL     1       2.682  -2.404  29.385  0.00  0.00    +0.292 HD
ENDBRANCH  29  34
ENDBRANCH  25  26
BRANCH  24  36
ATOM     36  O   UNL     1      10.013   1.248  21.966  0.00  0.00    -0.506 OA
ATOM     37  H   UNL     1      10.144   0.306  21.766  0.00  0.00    +0.292 HD
ENDBRANCH  24  36
BRANCH  21  38
ATOM     38  O   UNL     1       6.141   3.956  21.678  0.00  0.00    -0.507 OA
ATOM     39  H   UNL     1       6.570   4.771  21.994  0.00  0.00    +0.292 HD
ENDBRANCH  21  38
ENDBRANCH  14  15
ENDBRANCH   4  14
BRANCH   1  40
ATOM     40  O   UNL     1       5.103  -6.419  24.737  0.00  0.00    -0.340 OA
BRANCH  40  44
ATOM     41  C   UNL     1       1.699  -4.373  26.444  0.00  0.00    +0.041 C 
ATOM     42  C   UNL     1       2.447  -5.559  27.041  0.00  0.00    +0.149 C 
ATOM     43  O   UNL     1       3.716  -5.763  26.409  0.00  0.00    -0.343 OA
ATOM     44  C   UNL     1       3.714  -6.346  25.092  0.00  0.00    +0.282 C 
ATOM     45  C   UNL     1       2.984  -7.720  25.121  0.00  0.00    +0.201 C 
ATOM     46  C   UNL     1       1.588  -7.584  25.753  0.00  0.00    +0.179 C 
ATOM     47  C   UNL     1       1.644  -6.867  27.104  0.00  0.00    +0.174 C 
BRANCH  47  48
ATOM     48  O   UNL     1       2.275  -7.746  28.051  0.00  0.00    -0.387 OA
ATOM     49  H   UNL     1       2.855  -8.358  27.559  0.00  0.00    +0.210 HD
ENDBRANCH  47  48
BRANCH  46  50
ATOM     50  O   UNL     1       0.675  -6.960  24.834  0.00  0.00    -0.386 OA
ATOM     51  H   UNL     1       0.599  -6.008  25.014  0.00  0.00    +0.210 HD
ENDBRANCH  46  50
BRANCH  45  52
ATOM     52  O   UNL     1       2.823  -8.302  23.814  0.00  0.00    -0.384 OA
ATOM     53  H   UNL     1       2.144  -7.762  23.357  0.00  0.00    +0.210 HD
ENDBRANCH  45  52
ENDBRANCH  40  44
ENDBRANCH   1  40
TORSDOF 16
ENDMDL
MODEL 8
REMARK VINA RESULT:      -6.8      2.423      8.781
REMARK  Name = 
REMARK  17 active torsions:
REMARK  status: ('A' for Active; 'I' for Inactive)
REMARK    1  A    between atoms: C_1  and  C_2
REMARK    2  A    between atoms: C_4  and  O_53
REMARK    3  A    between atoms: C_6  and  O_52
REMARK    4  A    between atoms: C_8  and  O_51
REMARK    5  A    between atoms: C_10  and  O_13
REMARK    6  A    between atoms: O_13  and  C_14
REMARK    7  A    between atoms: C_16  and  C_49
REMARK    8  A    between atoms: C_19  and  O_27
REMARK    9  A    between atoms: C_21  and  O_26
REMARK   10  A    between atoms: C_23  and  O_25
REMARK   11  A    between atoms: O_27  and  C_28
REMARK   12  A    between atoms: C_29  and  C_41
REMARK   13  A    between atoms: C_33  and  O_40
REMARK   14  A    between atoms: C_35  and  O_39
REMARK   15  A    between atoms: C_43  and  O_48
REMARK   16  A    between atoms: C_44  and  O_47
REMARK   17  A    between atoms: C_49  and  O_50
REMARK                            x       y       z     vdW  Elec       q    Type
REMARK                         _______ _______ _______ _____ _____    ______ ____
ROOT
ATOM      1  C   UNL     1       6.120   2.858  26.199  0.00  0.00    +0.184 C 
ATOM      2  C   UNL     1       6.343   2.474  27.677  0.00  0.00    +0.180 C 
ATOM      3  C   UNL     1       6.373   0.939  27.976  0.00  0.00    +0.214 C 
ATOM      4  C   UNL     1       5.878  -0.031  26.858  0.00  0.00    +0.340 C 
ATOM      5  O   UNL     1       5.628   0.620  25.615  0.00  0.00    -0.331 OA
ATOM      6  C   UNL     1       5.028   1.905  25.704  0.00  0.00    +0.179 C 
ENDROOT
BRANCH   3   7
ATOM      7  O   UNL     1       5.498   0.753  29.124  0.00  0.00    -0.383 OA
ATOM      8  H   UNL     1       4.719   0.259  28.808  0.00  0.00    +0.210 HD
ENDBRANCH   3   7
BRANCH   2   9
ATOM      9  O   UNL     1       7.552   3.075  28.184  0.00  0.00    -0.386 OA
ATOM     10  H   UNL     1       7.451   3.130  29.156  0.00  0.00    +0.210 HD
ENDBRANCH   2   9
BRANCH   6  11
ATOM     11  C   UNL     1       4.474   2.246  24.315  0.00  0.00    +0.190 C 
BRANCH  11  12
ATOM     12  O   UNL     1       5.493   2.039  23.318  0.00  0.00    -0.392 OA
ATOM     13  H   UNL     1       5.341   2.706  22.624  0.00  0.00    +0.210 HD
ENDBRANCH  11  12
ENDBRANCH   6  11
BRANCH   4  14
ATOM     14  O   UNL     1       6.849  -1.064  26.549  0.00  0.00    -0.453 OA
BRANCH  14  15
ATOM     15  C   UNL     1       6.693  -1.733  25.344  0.00  0.00    +0.214 A 
ATOM     16  C   UNL     1       5.945  -3.043  25.423  0.00  0.00    +0.238 A 
ATOM     17  O   UNL     1       5.300  -3.312  26.431  0.00  0.00    -0.283 OA
ATOM     18  C   UNL     1       6.015  -3.959  24.257  0.00  0.00    +0.109 A 
ATOM     19  C   UNL     1       6.540  -3.432  23.083  0.00  0.00    +0.147 A 
ATOM     20  C   UNL     1       6.553  -4.163  21.895  0.00  0.00    +0.092 A 
ATOM     21  C   UNL     1       6.049  -5.460  21.884  0.00  0.00    +0.124 A 
ATOM     22  C   UNL     1       5.571  -6.033  23.053  0.00  0.00    +0.091 A 
ATOM     23  O   UNL     1       7.070  -2.178  23.013  0.00  0.00    -0.451 OA
ATOM     24  C   UNL     1       5.557  -5.285  24.241  0.00  0.00    +0.135 A 
ATOM     25  C   UNL     1       7.325  -1.448  24.176  0.00  0.00    +0.181 A 
BRANCH  25  26
ATOM     26  C   UNL     1       8.372  -0.400  23.894  0.00  0.00    +0.025 A 
ATOM     27  C   UNL     1       9.249  -0.010  24.939  0.00  0.00    +0.015 A 
ATOM     28  C   UNL     1      10.170   1.036  24.800  0.00  0.00    +0.050 A 
ATOM     29  C   UNL     1      10.254   1.701  23.593  0.00  0.00    +0.158 A 
ATOM     30  C   UNL     1       9.472   1.295  22.522  0.00  0.00    +0.159 A 
ATOM     31  C   UNL     1       8.530   0.276  22.678  0.00  0.00    +0.060 A 
BRANCH  30  32
ATOM     32  O   UNL     1       9.648   1.929  21.321  0.00  0.00    -0.503 OA
ATOM     33  H   UNL     1       9.824   2.883  21.487  0.00  0.00    +0.292 HD
ENDBRANCH  30  32
BRANCH  29  34
ATOM     34  O   UNL     1      11.097   2.765  23.471  0.00  0.00    -0.503 OA
ATOM     35  H   UNL     1      11.972   2.362  23.301  0.00  0.00    +0.292 HD
ENDBRANCH  29  34
ENDBRANCH  25  26
BRANCH  24  36
ATOM     36  O   UNL     1       5.093  -5.891  25.375  0.00  0.00    -0.506 OA
ATOM     37  H   UNL     1       5.159  -5.283  26.131  0.00  0.00    +0.292 HD
ENDBRANCH  24  36
BRANCH  21  38
ATOM     38  O   UNL     1       6.014  -6.203  20.743  0.00  0.00    -0.507 OA
ATOM     39  H   UNL     1       6.526  -5.755  20.046  0.00  0.00    +0.292 HD
ENDBRANCH  21  38
ENDBRANCH  14  15
ENDBRANCH   4  14
BRANCH   1  40
ATOM     40  O   UNL     1       5.677   4.201  25.984  0.00  0.00    -0.340 OA
BRANCH  40  44
ATOM     41  C   UNL     1       5.741   7.107  22.785  0.00  0.00    +0.041 C 
ATOM     42  C   UNL     1       6.077   5.625  22.680  0.00  0.00    +0.149 C 
ATOM     43  O   UNL     1       5.622   4.891  23.823  0.00  0.00    -0.343 OA
ATOM     44  C   UNL     1       6.368   5.039  25.046  0.00  0.00    +0.282 C 
ATOM     45  C   UNL     1       7.856   4.651  24.810  0.00  0.00    +0.201 C 
ATOM     46  C   UNL     1       8.440   5.427  23.616  0.00  0.00    +0.179 C 
ATOM     47  C   UNL     1       7.550   5.314  22.376  0.00  0.00    +0.174 C 
BRANCH  47  48
ATOM     48  O   UNL     1       7.642   3.967  21.881  0.00  0.00    -0.387 OA
ATOM     49  H   UNL     1       8.269   3.960  21.132  0.00  0.00    +0.210 HD
ENDBRANCH  47  48
BRANCH  46  50
ATOM     50  O   UNL     1       8.707   6.791  23.981  0.00  0.00    -0.386 OA
ATOM     51  H   UNL     1       9.047   7.294  23.221  0.00  0.00    +0.210 HD
ENDBRANCH  46  50
BRANCH  45  52
ATOM     52  O   UNL     1       8.694   4.903  25.954  0.00  0.00    -0.384 OA
ATOM     53  H   UNL     1       8.250   5.612  26.466  0.00  0.00    +0.210 HD
ENDBRANCH  45  52
ENDBRANCH  40  44
ENDBRANCH   1  40
TORSDOF 16
ENDMDL
MODEL 9
REMARK VINA RESULT:      -6.7      2.200      8.331
REMARK  Name = 
REMARK  17 active torsions:
REMARK  status: ('A' for Active; 'I' for Inactive)
REMARK    1  A    between atoms: C_1  and  C_2
REMARK    2  A    between atoms: C_4  and  O_53
REMARK    3  A    between atoms: C_6  and  O_52
REMARK    4  A    between atoms: C_8  and  O_51
REMARK    5  A    between atoms: C_10  and  O_13
REMARK    6  A    between atoms: O_13  and  C_14
REMARK    7  A    between atoms: C_16  and  C_49
REMARK    8  A    between atoms: C_19  and  O_27
REMARK    9  A    between atoms: C_21  and  O_26
REMARK   10  A    between atoms: C_23  and  O_25
REMARK   11  A    between atoms: O_27  and  C_28
REMARK   12  A    between atoms: C_29  and  C_41
REMARK   13  A    between atoms: C_33  and  O_40
REMARK   14  A    between atoms: C_35  and  O_39
REMARK   15  A    between atoms: C_43  and  O_48
REMARK   16  A    between atoms: C_44  and  O_47
REMARK   17  A    between atoms: C_49  and  O_50
REMARK                            x       y       z     vdW  Elec       q    Type
REMARK                         _______ _______ _______ _____ _____    ______ ____
ROOT
ATOM      1  C   UNL     1       6.626   0.874  26.071  0.00  0.00    +0.184 C 
ATOM      2  C   UNL     1       8.142   0.809  26.349  0.00  0.00    +0.180 C 
ATOM      3  C   UNL     1       8.699  -0.605  26.719  0.00  0.00    +0.214 C 
ATOM      4  C   UNL     1       7.670  -1.723  27.074  0.00  0.00    +0.340 C 
ATOM      5  O   UNL     1       6.318  -1.344  26.831  0.00  0.00    -0.331 OA
ATOM      6  C   UNL     1       5.988  -0.001  27.154  0.00  0.00    +0.179 C 
ENDROOT
BRANCH   3   7
ATOM      7  O   UNL     1       9.529  -0.395  27.897  0.00  0.00    -0.383 OA
ATOM      8  H   UNL     1       8.923  -0.253  28.647  0.00  0.00    +0.210 HD
ENDBRANCH   3   7
BRANCH   2   9
ATOM      9  O   UNL     1       8.890   1.332  25.231  0.00  0.00    -0.386 OA
ATOM     10  H   UNL     1       9.230   2.207  25.507  0.00  0.00    +0.210 HD
ENDBRANCH   2   9
BRANCH   6  11
ATOM     11  C   UNL     1       4.458   0.090  27.220  0.00  0.00    +0.190 C 
BRANCH  11  12
ATOM     12  O   UNL     1       3.938   0.504  25.942  0.00  0.00    -0.392 OA
ATOM     13  H   UNL     1       3.039   0.842  26.105  0.00  0.00    +0.210 HD
ENDBRANCH  11  12
ENDBRANCH   6  11
BRANCH   4  14
ATOM     14  O   UNL     1       7.867  -2.927  26.289  0.00  0.00    -0.453 OA
BRANCH  14  15
ATOM     15  C   UNL     1       6.790  -3.368  25.534  0.00  0.00    +0.214 A 
ATOM     16  C   UNL     1       6.103  -4.610  26.052  0.00  0.00    +0.238 A 
ATOM     17  O   UNL     1       6.326  -4.994  27.195  0.00  0.00    -0.283 OA
ATOM     18  C   UNL     1       5.164  -5.318  25.145  0.00  0.00    +0.109 A 
ATOM     19  C   UNL     1       4.787  -4.644  23.991  0.00  0.00    +0.147 A 
ATOM     20  C   UNL     1       3.827  -5.161  23.121  0.00  0.00    +0.092 A 
ATOM     21  C   UNL     1       3.244  -6.394  23.401  0.00  0.00    +0.124 A 
ATOM     22  C   UNL     1       3.643  -7.117  24.516  0.00  0.00    +0.091 A 
ATOM     23  O   UNL     1       5.322  -3.441  23.633  0.00  0.00    -0.451 OA
ATOM     24  C   UNL     1       4.605  -6.582  25.387  0.00  0.00    +0.135 A 
ATOM     25  C   UNL     1       6.447  -2.941  24.291  0.00  0.00    +0.181 A 
BRANCH  25  26
ATOM     26  C   UNL     1       7.150  -1.947  23.402  0.00  0.00    +0.025 A 
ATOM     27  C   UNL     1       8.384  -2.314  22.806  0.00  0.00    +0.015 A 
ATOM     28  C   UNL     1       9.161  -1.415  22.064  0.00  0.00    +0.050 A 
ATOM     29  C   UNL     1       8.702  -0.127  21.877  0.00  0.00    +0.158 A 
ATOM     30  C   UNL     1       7.462   0.247  22.373  0.00  0.00    +0.159 A 
ATOM     31  C   UNL     1       6.710  -0.642  23.143  0.00  0.00    +0.060 A 
BRANCH  30  32
ATOM     32  O   UNL     1       7.011   1.509  22.092  0.00  0.00    -0.503 OA
ATOM     33  H   UNL     1       7.604   1.917  21.422  0.00  0.00    +0.292 HD
ENDBRANCH  30  32
BRANCH  29  34
ATOM     34  O   UNL     1       9.483   0.775  21.217  0.00  0.00    -0.503 OA
ATOM     35  H   UNL     1       9.763   1.406  21.910  0.00  0.00    +0.292 HD
ENDBRANCH  29  34
ENDBRANCH  25  26
BRANCH  24  36
ATOM     36  O   UNL     1       4.982  -7.332  26.465  0.00  0.00    -0.506 OA
ATOM     37  H   UNL     1       5.920  -7.178  26.670  0.00  0.00    +0.292 HD
ENDBRANCH  24  36
BRANCH  21  38
ATOM     38  O   UNL     1       2.283  -6.928  22.598  0.00  0.00    -0.507 OA
ATOM     39  H   UNL     1       1.948  -7.752  22.993  0.00  0.00    +0.292 HD
ENDBRANCH  21  38
ENDBRANCH  14  15
ENDBRANCH   4  14
BRANCH   1  40
ATOM     40  O   UNL     1       6.051   2.181  26.151  0.00  0.00    -0.340 OA
BRANCH  40  44
ATOM     41  C   UNL     1       8.196   5.248  23.989  0.00  0.00    +0.041 C 
ATOM     42  C   UNL     1       6.917   5.425  24.798  0.00  0.00    +0.149 C 
ATOM     43  O   UNL     1       6.673   4.308  25.661  0.00  0.00    -0.343 OA
ATOM     44  C   UNL     1       6.195   3.093  25.052  0.00  0.00    +0.282 C 
ATOM     45  C   UNL     1       4.878   3.373  24.272  0.00  0.00    +0.201 C 
ATOM     46  C   UNL     1       5.064   4.542  23.287  0.00  0.00    +0.179 C 
ATOM     47  C   UNL     1       5.669   5.769  23.973  0.00  0.00    +0.174 C 
BRANCH  47  48
ATOM     48  O   UNL     1       4.677   6.325  24.853  0.00  0.00    -0.387 OA
ATOM     49  H   UNL     1       3.957   5.672  24.951  0.00  0.00    +0.210 HD
ENDBRANCH  47  48
BRANCH  46  50
ATOM     50  O   UNL     1       5.820   4.121  22.140  0.00  0.00    -0.386 OA
ATOM     51  H   UNL     1       6.764   4.325  22.252  0.00  0.00    +0.210 HD
ENDBRANCH  46  50
BRANCH  45  52
ATOM     52  O   UNL     1       4.412   2.234  23.524  0.00  0.00    -0.384 OA
ATOM     53  H   UNL     1       3.923   2.595  22.754  0.00  0.00    +0.210 HD
ENDBRANCH  45  52
ENDBRANCH  40  44
ENDBRANCH   1  40
TORSDOF 16
ENDMDL
