MODEL 1
REMARK VINA RESULT:      -8.6      0.000      0.000
REMARK  Name = 
REMARK  10 active torsions:
REMARK  status: ('A' for Active; 'I' for Inactive)
REMARK    1  A    between atoms: C_2  and  O_34
REMARK    2  A    between atoms: C_4  and  O_33
REMARK    3  A    between atoms: C_6  and  O_32
REMARK    4  A    between atoms: C_7  and  O_10
REMARK    5  A    between atoms: O_10  and  C_11
REMARK    6  A    between atoms: C_12  and  C_24
REMARK    7  A    between atoms: C_16  and  O_23
REMARK    8  A    between atoms: C_18  and  O_22
REMARK    9  A    between atoms: C_26  and  O_31
REMARK   10  A    between atoms: C_27  and  O_30
REMARK                            x       y       z     vdW  Elec       q    Type
REMARK                         _______ _______ _______ _____ _____    ______ ____
ROOT
ATOM      1  C   UNL     1       8.178  -1.432  23.024  0.00  0.00    +0.214 A 
ATOM      2  C   UNL     1       8.587  -0.126  22.409  0.00  0.00    +0.238 A 
ATOM      3  O   UNL     1       8.921  -0.090  21.229  0.00  0.00    -0.283 OA
ATOM      4  C   UNL     1       8.566   1.070  23.273  0.00  0.00    +0.109 A 
ATOM      5  C   UNL     1       8.370   0.871  24.638  0.00  0.00    +0.147 A 
ATOM      6  C   UNL     1       8.297   1.958  25.514  0.00  0.00    +0.092 A 
ATOM      7  C   UNL     1       8.443   3.247  25.015  0.00  0.00    +0.124 A 
ATOM      8  C   UNL     1       8.661   3.461  23.660  0.00  0.00    +0.091 A 
ATOM      9  O   UNL     1       8.269  -0.374  25.206  0.00  0.00    -0.451 OA
ATOM     10  C   UNL     1       8.720   2.376  22.789  0.00  0.00    +0.135 A 
ATOM     11  C   UNL     1       8.151  -1.489  24.386  0.00  0.00    +0.181 A 
ENDROOT
BRANCH  11  12
ATOM     12  C   UNL     1       8.027  -2.739  25.181  0.00  0.00    +0.025 A 
ATOM     13  C   UNL     1       6.975  -2.903  26.103  0.00  0.00    +0.015 A 
ATOM     14  C   UNL     1       6.934  -4.003  26.963  0.00  0.00    +0.050 A 
ATOM     15  C   UNL     1       7.903  -4.984  26.851  0.00  0.00    +0.158 A 
ATOM     16  C   UNL     1       8.911  -4.878  25.894  0.00  0.00    +0.159 A 
ATOM     17  C   UNL     1       8.992  -3.757  25.072  0.00  0.00    +0.060 A 
BRANCH  15  18
ATOM     18  O   UNL     1       7.858  -6.061  27.686  0.00  0.00    -0.503 OA
ATOM     19  H   UNL     1       8.263  -6.793  27.179  0.00  0.00    +0.292 HD
ENDBRANCH  15  18
BRANCH  16  20
ATOM     20  O   UNL     1       9.821  -5.899  25.829  0.00  0.00    -0.503 OA
ATOM     21  H   UNL     1      10.455  -5.705  25.117  0.00  0.00    +0.292 HD
ENDBRANCH  16  20
ENDBRANCH  11  12
BRANCH   7  22
ATOM     22  O   UNL     1       8.381   4.340  25.824  0.00  0.00    -0.507 OA
ATOM     23  H   UNL     1       7.454   4.604  25.944  0.00  0.00    +0.292 HD
ENDBRANCH   7  22
BRANCH  10  24
ATOM     24  O   UNL     1       8.918   2.613  21.458  0.00  0.00    -0.506 OA
ATOM     25  H   UNL     1       8.946   3.568  21.283  0.00  0.00    +0.292 HD
ENDBRANCH  10  24
BRANCH   1  26
ATOM     26  O   UNL     1       7.961  -2.440  22.121  0.00  0.00    -0.453 OA
BRANCH  26  29
ATOM     27  C   UNL     1       7.330  -5.987  22.316  0.00  0.00    +0.198 C 
ATOM     28  O   UNL     1       7.819  -4.739  21.814  0.00  0.00    -0.337 OA
ATOM     29  C   UNL     1       7.270  -3.619  22.526  0.00  0.00    +0.339 C 
ATOM     30  C   UNL     1       5.759  -3.535  22.246  0.00  0.00    +0.214 C 
ATOM     31  C   UNL     1       5.156  -4.828  22.838  0.00  0.00    +0.180 C 
ATOM     32  C   UNL     1       5.805  -6.077  22.210  0.00  0.00    +0.171 C 
BRANCH  30  33
ATOM     33  O   UNL     1       5.520  -3.456  20.829  0.00  0.00    -0.383 OA
ATOM     34  H   UNL     1       6.401  -3.441  20.400  0.00  0.00    +0.210 HD
ENDBRANCH  30  33
BRANCH  31  35
ATOM     35  O   UNL     1       3.733  -4.864  22.716  0.00  0.00    -0.386 OA
ATOM     36  H   UNL     1       3.373  -4.563  23.572  0.00  0.00    +0.210 HD
ENDBRANCH  31  35
BRANCH  32  37
ATOM     37  O   UNL     1       5.418  -6.200  20.834  0.00  0.00    -0.387 OA
ATOM     38  H   UNL     1       4.787  -5.467  20.656  0.00  0.00    +0.210 HD
ENDBRANCH  32  37
ENDBRANCH  26  29
ENDBRANCH   1  26
TORSDOF 10
ENDMDL
MODEL 2
REMARK VINA RESULT:      -8.5      1.894      4.882
REMARK  Name = 
REMARK  10 active torsions:
REMARK  status: ('A' for Active; 'I' for Inactive)
REMARK    1  A    between atoms: C_2  and  O_34
REMARK    2  A    between atoms: C_4  and  O_33
REMARK    3  A    between atoms: C_6  and  O_32
REMARK    4  A    between atoms: C_7  and  O_10
REMARK    5  A    between atoms: O_10  and  C_11
REMARK    6  A    between atoms: C_12  and  C_24
REMARK    7  A    between atoms: C_16  and  O_23
REMARK    8  A    between atoms: C_18  and  O_22
REMARK    9  A    between atoms: C_26  and  O_31
REMARK   10  A    between atoms: C_27  and  O_30
REMARK                            x       y       z     vdW  Elec       q    Type
REMARK                         _______ _______ _______ _____ _____    ______ ____
ROOT
ATOM      1  C   UNL     1       7.927  -2.808  24.950  0.00  0.00    +0.214 A 
ATOM      2  C   UNL     1       8.754  -1.630  25.371  0.00  0.00    +0.238 A 
ATOM      3  O   UNL     1       9.167  -1.559  26.524  0.00  0.00    -0.283 OA
ATOM      4  C   UNL     1       9.034  -0.597  24.355  0.00  0.00    +0.109 A 
ATOM      5  C   UNL     1       8.346  -0.681  23.147  0.00  0.00    +0.147 A 
ATOM      6  C   UNL     1       8.588   0.238  22.122  0.00  0.00    +0.092 A 
ATOM      7  C   UNL     1       9.511   1.257  22.323  0.00  0.00    +0.124 A 
ATOM      8  C   UNL     1      10.190   1.369  23.530  0.00  0.00    +0.091 A 
ATOM      9  O   UNL     1       7.385  -1.629  22.899  0.00  0.00    -0.451 OA
ATOM     10  C   UNL     1       9.955   0.443  24.544  0.00  0.00    +0.135 A 
ATOM     11  C   UNL     1       7.217  -2.679  23.792  0.00  0.00    +0.181 A 
ENDROOT
BRANCH  11  12
ATOM     12  C   UNL     1       6.153  -3.613  23.341  0.00  0.00    +0.025 A 
ATOM     13  C   UNL     1       4.839  -3.502  23.839  0.00  0.00    +0.015 A 
ATOM     14  C   UNL     1       3.872  -4.464  23.542  0.00  0.00    +0.050 A 
ATOM     15  C   UNL     1       4.190  -5.501  22.683  0.00  0.00    +0.158 A 
ATOM     16  C   UNL     1       5.463  -5.589  22.121  0.00  0.00    +0.159 A 
ATOM     17  C   UNL     1       6.451  -4.666  22.456  0.00  0.00    +0.060 A 
BRANCH  15  18
ATOM     18  O   UNL     1       3.243  -6.435  22.389  0.00  0.00    -0.503 OA
ATOM     19  H   UNL     1       3.744  -7.237  22.138  0.00  0.00    +0.292 HD
ENDBRANCH  15  18
BRANCH  16  20
ATOM     20  O   UNL     1       5.697  -6.630  21.263  0.00  0.00    -0.503 OA
ATOM     21  H   UNL     1       5.746  -7.453  21.780  0.00  0.00    +0.292 HD
ENDBRANCH  16  20
ENDBRANCH  11  12
BRANCH   7  22
ATOM     22  O   UNL     1       9.784   2.177  21.358  0.00  0.00    -0.507 OA
ATOM     23  H   UNL     1       9.868   3.057  21.762  0.00  0.00    +0.292 HD
ENDBRANCH   7  22
BRANCH  10  24
ATOM     24  O   UNL     1      10.648   0.564  25.715  0.00  0.00    -0.506 OA
ATOM     25  H   UNL     1      10.757  -0.305  26.138  0.00  0.00    +0.292 HD
ENDBRANCH  10  24
BRANCH   1  26
ATOM     26  O   UNL     1       7.927  -3.849  25.842  0.00  0.00    -0.453 OA
BRANCH  26  29
ATOM     27  C   UNL     1       5.134  -3.656  28.117  0.00  0.00    +0.198 C 
ATOM     28  O   UNL     1       6.445  -3.441  27.584  0.00  0.00    -0.337 OA
ATOM     29  C   UNL     1       6.705  -4.271  26.442  0.00  0.00    +0.339 C 
ATOM     30  C   UNL     1       6.751  -5.743  26.887  0.00  0.00    +0.214 C 
ATOM     31  C   UNL     1       5.333  -6.063  27.405  0.00  0.00    +0.180 C 
ATOM     32  C   UNL     1       4.934  -5.111  28.549  0.00  0.00    +0.171 C 
BRANCH  30  33
ATOM     33  O   UNL     1       7.731  -5.916  27.926  0.00  0.00    -0.383 OA
ATOM     34  H   UNL     1       7.830  -5.045  28.363  0.00  0.00    +0.210 HD
ENDBRANCH  30  33
BRANCH  31  35
ATOM     35  O   UNL     1       5.197  -7.431  27.795  0.00  0.00    -0.386 OA
ATOM     36  H   UNL     1       4.493  -7.459  28.472  0.00  0.00    +0.210 HD
ENDBRANCH  31  35
BRANCH  32  37
ATOM     37  O   UNL     1       5.720  -5.385  29.719  0.00  0.00    -0.387 OA
ATOM     38  H   UNL     1       5.516  -6.310  29.981  0.00  0.00    +0.210 HD
ENDBRANCH  32  37
ENDBRANCH  26  29
ENDBRANCH   1  26
TORSDOF 10
ENDMDL
MODEL 3
REMARK VINA RESULT:      -7.9      2.279      3.564
REMARK  Name = 
REMARK  10 active torsions:
REMARK  status: ('A' for Active; 'I' for Inactive)
REMARK    1  A    between atoms: C_2  and  O_34
REMARK    2  A    between atoms: C_4  and  O_33
REMARK    3  A    between atoms: C_6  and  O_32
REMARK    4  A    between atoms: C_7  and  O_10
REMARK    5  A    between atoms: O_10  and  C_11
REMARK    6  A    between atoms: C_12  and  C_24
REMARK    7  A    between atoms: C_16  and  O_23
REMARK    8  A    between atoms: C_18  and  O_22
REMARK    9  A    between atoms: C_26  and  O_31
REMARK   10  A    between atoms: C_27  and  O_30
REMARK                            x       y       z     vdW  Elec       q    Type
REMARK                         _______ _______ _______ _____ _____    ______ ____
ROOT
ATOM      1  C   UNL     1       7.184  -4.219  24.491  0.00  0.00    +0.214 A 
ATOM      2  C   UNL     1       8.161  -3.598  23.537  0.00  0.00    +0.238 A 
ATOM      3  O   UNL     1       8.463  -4.193  22.506  0.00  0.00    -0.283 OA
ATOM      4  C   UNL     1       8.718  -2.280  23.894  0.00  0.00    +0.109 A 
ATOM      5  C   UNL     1       8.462  -1.801  25.177  0.00  0.00    +0.147 A 
ATOM      6  C   UNL     1       8.923  -0.542  25.574  0.00  0.00    +0.092 A 
ATOM      7  C   UNL     1       9.661   0.227  24.682  0.00  0.00    +0.124 A 
ATOM      8  C   UNL     1       9.944  -0.245  23.406  0.00  0.00    +0.091 A 
ATOM      9  O   UNL     1       7.785  -2.527  26.124  0.00  0.00    -0.451 OA
ATOM     10  C   UNL     1       9.472  -1.495  23.010  0.00  0.00    +0.135 A 
ATOM     11  C   UNL     1       7.144  -3.702  25.752  0.00  0.00    +0.181 A 
ENDROOT
BRANCH  11  12
ATOM     12  C   UNL     1       6.446  -4.329  26.905  0.00  0.00    +0.025 A 
ATOM     13  C   UNL     1       5.339  -3.698  27.506  0.00  0.00    +0.015 A 
ATOM     14  C   UNL     1       4.773  -4.199  28.680  0.00  0.00    +0.050 A 
ATOM     15  C   UNL     1       5.259  -5.378  29.216  0.00  0.00    +0.158 A 
ATOM     16  C   UNL     1       6.305  -6.059  28.595  0.00  0.00    +0.159 A 
ATOM     17  C   UNL     1       6.914  -5.536  27.456  0.00  0.00    +0.060 A 
BRANCH  15  18
ATOM     18  O   UNL     1       4.701  -5.870  30.358  0.00  0.00    -0.503 OA
ATOM     19  H   UNL     1       4.231  -6.682  30.082  0.00  0.00    +0.292 HD
ENDBRANCH  15  18
BRANCH  16  20
ATOM     20  O   UNL     1       6.718  -7.230  29.171  0.00  0.00    -0.503 OA
ATOM     21  H   UNL     1       5.978  -7.602  29.683  0.00  0.00    +0.292 HD
ENDBRANCH  16  20
ENDBRANCH  11  12
BRANCH   7  22
ATOM     22  O   UNL     1      10.133   1.458  25.017  0.00  0.00    -0.507 OA
ATOM     23  H   UNL     1      10.546   1.421  25.896  0.00  0.00    +0.292 HD
ENDBRANCH   7  22
BRANCH  10  24
ATOM     24  O   UNL     1       9.748  -1.929  21.745  0.00  0.00    -0.506 OA
ATOM     25  H   UNL     1      10.198  -2.791  21.771  0.00  0.00    +0.292 HD
ENDBRANCH  10  24
BRANCH   1  26
ATOM     26  O   UNL     1       6.506  -5.298  23.987  0.00  0.00    -0.453 OA
BRANCH  26  29
ATOM     27  C   UNL     1       3.738  -7.064  25.482  0.00  0.00    +0.198 C 
ATOM     28  O   UNL     1       5.023  -6.840  24.893  0.00  0.00    -0.337 OA
ATOM     29  C   UNL     1       5.145  -5.516  24.353  0.00  0.00    +0.339 C 
ATOM     30  C   UNL     1       4.188  -5.369  23.156  0.00  0.00    +0.214 C 
ATOM     31  C   UNL     1       2.768  -5.524  23.741  0.00  0.00    +0.180 C 
ATOM     32  C   UNL     1       2.612  -6.878  24.461  0.00  0.00    +0.171 C 
BRANCH  30  33
ATOM     33  O   UNL     1       4.458  -6.389  22.178  0.00  0.00    -0.383 OA
ATOM     34  H   UNL     1       4.666  -5.923  21.341  0.00  0.00    +0.210 HD
ENDBRANCH  30  33
BRANCH  31  35
ATOM     35  O   UNL     1       1.755  -5.341  22.751  0.00  0.00    -0.386 OA
ATOM     36  H   UNL     1       1.288  -4.515  22.980  0.00  0.00    +0.210 HD
ENDBRANCH  31  35
BRANCH  32  37
ATOM     37  O   UNL     1       2.634  -7.952  23.509  0.00  0.00    -0.387 OA
ATOM     38  H   UNL     1       1.888  -8.547  23.743  0.00  0.00    +0.210 HD
ENDBRANCH  32  37
ENDBRANCH  26  29
ENDBRANCH   1  26
TORSDOF 10
ENDMDL
MODEL 4
REMARK VINA RESULT:      -7.7      2.309      6.722
REMARK  Name = 
REMARK  10 active torsions:
REMARK  status: ('A' for Active; 'I' for Inactive)
REMARK    1  A    between atoms: C_2  and  O_34
REMARK    2  A    between atoms: C_4  and  O_33
REMARK    3  A    between atoms: C_6  and  O_32
REMARK    4  A    between atoms: C_7  and  O_10
REMARK    5  A    between atoms: O_10  and  C_11
REMARK    6  A    between atoms: C_12  and  C_24
REMARK    7  A    between atoms: C_16  and  O_23
REMARK    8  A    between atoms: C_18  and  O_22
REMARK    9  A    between atoms: C_26  and  O_31
REMARK   10  A    between atoms: C_27  and  O_30
REMARK                            x       y       z     vdW  Elec       q    Type
REMARK                         _______ _______ _______ _____ _____    ______ ____
ROOT
ATOM      1  C   UNL     1       7.769  -2.203  24.251  0.00  0.00    +0.214 A 
ATOM      2  C   UNL     1       7.658  -3.220  23.154  0.00  0.00    +0.238 A 
ATOM      3  O   UNL     1       8.351  -3.106  22.148  0.00  0.00    -0.283 OA
ATOM      4  C   UNL     1       6.701  -4.327  23.346  0.00  0.00    +0.109 A 
ATOM      5  C   UNL     1       5.827  -4.239  24.427  0.00  0.00    +0.147 A 
ATOM      6  C   UNL     1       4.920  -5.268  24.697  0.00  0.00    +0.092 A 
ATOM      7  C   UNL     1       4.881  -6.379  23.863  0.00  0.00    +0.124 A 
ATOM      8  C   UNL     1       5.731  -6.473  22.767  0.00  0.00    +0.091 A 
ATOM      9  O   UNL     1       5.776  -3.150  25.260  0.00  0.00    -0.451 OA
ATOM     10  C   UNL     1       6.642  -5.450  22.510  0.00  0.00    +0.135 A 
ATOM     11  C   UNL     1       6.760  -2.175  25.168  0.00  0.00    +0.181 A 
ENDROOT
BRANCH  11  12
ATOM     12  C   UNL     1       6.551  -1.093  26.165  0.00  0.00    +0.025 A 
ATOM     13  C   UNL     1       5.377  -0.314  26.147  0.00  0.00    +0.015 A 
ATOM     14  C   UNL     1       5.237   0.800  26.978  0.00  0.00    +0.050 A 
ATOM     15  C   UNL     1       6.238   1.095  27.887  0.00  0.00    +0.158 A 
ATOM     16  C   UNL     1       7.375   0.293  27.973  0.00  0.00    +0.159 A 
ATOM     17  C   UNL     1       7.548  -0.786  27.109  0.00  0.00    +0.060 A 
BRANCH  15  18
ATOM     18  O   UNL     1       6.097   2.178  28.702  0.00  0.00    -0.503 OA
ATOM     19  H   UNL     1       5.560   2.815  28.189  0.00  0.00    +0.292 HD
ENDBRANCH  15  18
BRANCH  16  20
ATOM     20  O   UNL     1       8.311   0.635  28.912  0.00  0.00    -0.503 OA
ATOM     21  H   UNL     1       8.897  -0.128  29.058  0.00  0.00    +0.292 HD
ENDBRANCH  16  20
ENDBRANCH  11  12
BRANCH   7  22
ATOM     22  O   UNL     1       4.018  -7.409  24.081  0.00  0.00    -0.507 OA
ATOM     23  H   UNL     1       4.218  -7.827  24.934  0.00  0.00    +0.292 HD
ENDBRANCH   7  22
BRANCH  10  24
ATOM     24  O   UNL     1       7.479  -5.573  21.437  0.00  0.00    -0.506 OA
ATOM     25  H   UNL     1       7.805  -4.701  21.158  0.00  0.00    +0.292 HD
ENDBRANCH  10  24
BRANCH   1  26
ATOM     26  O   UNL     1       8.848  -1.364  24.139  0.00  0.00    -0.453 OA
BRANCH  26  29
ATOM     27  C   UNL     1       7.088   1.339  22.525  0.00  0.00    +0.198 C 
ATOM     28  O   UNL     1       7.451   0.002  22.883  0.00  0.00    -0.337 OA
ATOM     29  C   UNL     1       8.671  -0.042  23.637  0.00  0.00    +0.339 C 
ATOM     30  C   UNL     1       9.837   0.401  22.737  0.00  0.00    +0.214 C 
ATOM     31  C   UNL     1       9.545   1.873  22.375  0.00  0.00    +0.180 C 
ATOM     32  C   UNL     1       8.175   2.009  21.680  0.00  0.00    +0.171 C 
BRANCH  30  33
ATOM     33  O   UNL     1       9.891  -0.420  21.556  0.00  0.00    -0.383 OA
ATOM     34  H   UNL     1       9.054  -0.265  21.071  0.00  0.00    +0.210 HD
ENDBRANCH  30  33
BRANCH  31  35
ATOM     35  O   UNL     1      10.587   2.452  21.588  0.00  0.00    -0.386 OA
ATOM     36  H   UNL     1      10.153   2.889  20.830  0.00  0.00    +0.210 HD
ENDBRANCH  31  35
BRANCH  32  37
ATOM     37  O   UNL     1       8.218   1.411  20.376  0.00  0.00    -0.387 OA
ATOM     38  H   UNL     1       9.168   1.361  20.124  0.00  0.00    +0.210 HD
ENDBRANCH  32  37
ENDBRANCH  26  29
ENDBRANCH   1  26
TORSDOF 10
ENDMDL
MODEL 5
REMARK VINA RESULT:      -7.7      2.269      7.782
REMARK  Name = 
REMARK  10 active torsions:
REMARK  status: ('A' for Active; 'I' for Inactive)
REMARK    1  A    between atoms: C_2  and  O_34
REMARK    2  A    between atoms: C_4  and  O_33
REMARK    3  A    between atoms: C_6  and  O_32
REMARK    4  A    between atoms: C_7  and  O_10
REMARK    5  A    between atoms: O_10  and  C_11
REMARK    6  A    between atoms: C_12  and  C_24
REMARK    7  A    between atoms: C_16  and  O_23
REMARK    8  A    between atoms: C_18  and  O_22
REMARK    9  A    between atoms: C_26  and  O_31
REMARK   10  A    between atoms: C_27  and  O_30
REMARK                            x       y       z     vdW  Elec       q    Type
REMARK                         _______ _______ _______ _____ _____    ______ ____
ROOT
ATOM      1  C   UNL     1       8.040  -1.811  25.469  0.00  0.00    +0.214 A 
ATOM      2  C   UNL     1       7.546  -3.201  25.742  0.00  0.00    +0.238 A 
ATOM      3  O   UNL     1       7.538  -3.627  26.894  0.00  0.00    -0.283 OA
ATOM      4  C   UNL     1       7.086  -4.000  24.590  0.00  0.00    +0.109 A 
ATOM      5  C   UNL     1       7.335  -3.491  23.317  0.00  0.00    +0.147 A 
ATOM      6  C   UNL     1       6.893  -4.171  22.178  0.00  0.00    +0.092 A 
ATOM      7  C   UNL     1       6.219  -5.377  22.322  0.00  0.00    +0.124 A 
ATOM      8  C   UNL     1       5.983  -5.910  23.584  0.00  0.00    +0.091 A 
ATOM      9  O   UNL     1       8.038  -2.333  23.099  0.00  0.00    -0.451 OA
ATOM     10  C   UNL     1       6.413  -5.223  24.717  0.00  0.00    +0.135 A 
ATOM     11  C   UNL     1       8.350  -1.512  24.175  0.00  0.00    +0.181 A 
ENDROOT
BRANCH  11  12
ATOM     12  C   UNL     1       9.087  -0.298  23.739  0.00  0.00    +0.025 A 
ATOM     13  C   UNL     1      10.319   0.047  24.328  0.00  0.00    +0.015 A 
ATOM     14  C   UNL     1      10.943   1.262  24.037  0.00  0.00    +0.050 A 
ATOM     15  C   UNL     1      10.378   2.104  23.096  0.00  0.00    +0.158 A 
ATOM     16  C   UNL     1       9.197   1.748  22.446  0.00  0.00    +0.159 A 
ATOM     17  C   UNL     1       8.538   0.565  22.772  0.00  0.00    +0.060 A 
BRANCH  15  18
ATOM     18  O   UNL     1      10.992   3.286  22.808  0.00  0.00    -0.503 OA
ATOM     19  H   UNL     1      11.922   3.051  22.620  0.00  0.00    +0.292 HD
ENDBRANCH  15  18
BRANCH  16  20
ATOM     20  O   UNL     1       8.711   2.622  21.511  0.00  0.00    -0.503 OA
ATOM     21  H   UNL     1       8.479   2.122  20.709  0.00  0.00    +0.292 HD
ENDBRANCH  16  20
ENDBRANCH  11  12
BRANCH   7  22
ATOM     22  O   UNL     1       5.769  -6.080  21.247  0.00  0.00    -0.507 OA
ATOM     23  H   UNL     1       5.459  -6.954  21.536  0.00  0.00    +0.292 HD
ENDBRANCH   7  22
BRANCH  10  24
ATOM     24  O   UNL     1       6.154  -5.758  25.946  0.00  0.00    -0.506 OA
ATOM     25  H   UNL     1       5.625  -5.143  26.481  0.00  0.00    +0.292 HD
ENDBRANCH  10  24
BRANCH   1  26
ATOM     26  O   UNL     1       8.195  -1.034  26.588  0.00  0.00    -0.453 OA
BRANCH  26  29
ATOM     27  C   UNL     1       6.769   2.268  26.313  0.00  0.00    +0.198 C 
ATOM     28  O   UNL     1       7.746   1.222  26.268  0.00  0.00    -0.337 OA
ATOM     29  C   UNL     1       7.263   0.009  26.864  0.00  0.00    +0.339 C 
ATOM     30  C   UNL     1       7.066   0.231  28.373  0.00  0.00    +0.214 C 
ATOM     31  C   UNL     1       5.961   1.302  28.493  0.00  0.00    +0.180 C 
ATOM     32  C   UNL     1       6.359   2.593  27.751  0.00  0.00    +0.171 C 
BRANCH  30  33
ATOM     33  O   UNL     1       8.293   0.687  28.971  0.00  0.00    -0.383 OA
ATOM     34  H   UNL     1       8.876   0.964  28.234  0.00  0.00    +0.210 HD
ENDBRANCH  30  33
BRANCH  31  35
ATOM     35  O   UNL     1       5.614   1.569  29.853  0.00  0.00    -0.386 OA
ATOM     36  H   UNL     1       4.945   0.903  30.105  0.00  0.00    +0.210 HD
ENDBRANCH  31  35
BRANCH  32  37
ATOM     37  O   UNL     1       7.443   3.242  28.433  0.00  0.00    -0.387 OA
ATOM     38  H   UNL     1       7.394   4.194  28.189  0.00  0.00    +0.210 HD
ENDBRANCH  32  37
ENDBRANCH  26  29
ENDBRANCH   1  26
TORSDOF 10
ENDMDL
MODEL 6
REMARK VINA RESULT:      -7.7      2.487      7.437
REMARK  Name = 
REMARK  10 active torsions:
REMARK  status: ('A' for Active; 'I' for Inactive)
REMARK    1  A    between atoms: C_2  and  O_34
REMARK    2  A    between atoms: C_4  and  O_33
REMARK    3  A    between atoms: C_6  and  O_32
REMARK    4  A    between atoms: C_7  and  O_10
REMARK    5  A    between atoms: O_10  and  C_11
REMARK    6  A    between atoms: C_12  and  C_24
REMARK    7  A    between atoms: C_16  and  O_23
REMARK    8  A    between atoms: C_18  and  O_22
REMARK    9  A    between atoms: C_26  and  O_31
REMARK   10  A    between atoms: C_27  and  O_30
REMARK                            x       y       z     vdW  Elec       q    Type
REMARK                         _______ _______ _______ _____ _____    ______ ____
ROOT
ATOM      1  C   UNL     1       7.879  -1.940  25.401  0.00  0.00    +0.214 A 
ATOM      2  C   UNL     1       7.360  -3.328  25.635  0.00  0.00    +0.238 A 
ATOM      3  O   UNL     1       7.313  -3.773  26.778  0.00  0.00    -0.283 OA
ATOM      4  C   UNL     1       6.925  -4.100  24.455  0.00  0.00    +0.109 A 
ATOM      5  C   UNL     1       7.217  -3.572  23.200  0.00  0.00    +0.147 A 
ATOM      6  C   UNL     1       6.802  -4.226  22.036  0.00  0.00    +0.092 A 
ATOM      7  C   UNL     1       6.108  -5.426  22.139  0.00  0.00    +0.124 A 
ATOM      8  C   UNL     1       5.829  -5.978  23.383  0.00  0.00    +0.091 A 
ATOM      9  O   UNL     1       7.941  -2.419  23.023  0.00  0.00    -0.451 OA
ATOM     10  C   UNL     1       6.234  -5.316  24.540  0.00  0.00    +0.135 A 
ATOM     11  C   UNL     1       8.231  -1.622  24.123  0.00  0.00    +0.181 A 
ENDROOT
BRANCH  11  12
ATOM     12  C   UNL     1       8.995  -0.409  23.730  0.00  0.00    +0.025 A 
ATOM     13  C   UNL     1      10.174  -0.050  24.412  0.00  0.00    +0.015 A 
ATOM     14  C   UNL     1      10.815   1.164  24.156  0.00  0.00    +0.050 A 
ATOM     15  C   UNL     1      10.323   1.991  23.160  0.00  0.00    +0.158 A 
ATOM     16  C   UNL     1       9.201   1.620  22.422  0.00  0.00    +0.159 A 
ATOM     17  C   UNL     1       8.522   0.437  22.710  0.00  0.00    +0.060 A 
BRANCH  15  18
ATOM     18  O   UNL     1      10.953   3.172  22.906  0.00  0.00    -0.503 OA
ATOM     19  H   UNL     1      11.003   3.626  23.771  0.00  0.00    +0.292 HD
ENDBRANCH  15  18
BRANCH  16  20
ATOM     20  O   UNL     1       8.787   2.478  21.439  0.00  0.00    -0.503 OA
ATOM     21  H   UNL     1       8.507   1.955  20.668  0.00  0.00    +0.292 HD
ENDBRANCH  16  20
ENDBRANCH  11  12
BRANCH   7  22
ATOM     22  O   UNL     1       5.681  -6.104  21.038  0.00  0.00    -0.507 OA
ATOM     23  H   UNL     1       4.890  -6.620  21.261  0.00  0.00    +0.292 HD
ENDBRANCH   7  22
BRANCH  10  24
ATOM     24  O   UNL     1       5.932  -5.870  25.752  0.00  0.00    -0.506 OA
ATOM     25  H   UNL     1       6.744  -6.097  26.235  0.00  0.00    +0.292 HD
ENDBRANCH  10  24
BRANCH   1  26
ATOM     26  O   UNL     1       8.011  -1.185  26.538  0.00  0.00    -0.453 OA
BRANCH  26  29
ATOM     27  C   UNL     1       6.686   1.660  28.318  0.00  0.00    +0.198 C 
ATOM     28  O   UNL     1       7.368   0.422  28.088  0.00  0.00    -0.337 OA
ATOM     29  C   UNL     1       7.137  -0.081  26.763  0.00  0.00    +0.339 C 
ATOM     30  C   UNL     1       5.655  -0.472  26.623  0.00  0.00    +0.214 C 
ATOM     31  C   UNL     1       4.863   0.842  26.786  0.00  0.00    +0.180 C 
ATOM     32  C   UNL     1       5.173   1.510  28.140  0.00  0.00    +0.171 C 
BRANCH  30  33
ATOM     33  O   UNL     1       5.294  -1.422  27.643  0.00  0.00    -0.383 OA
ATOM     34  H   UNL     1       5.629  -2.292  27.343  0.00  0.00    +0.210 HD
ENDBRANCH  30  33
BRANCH  31  35
ATOM     35  O   UNL     1       3.458   0.651  26.610  0.00  0.00    -0.386 OA
ATOM     36  H   UNL     1       3.325  -0.305  26.456  0.00  0.00    +0.210 HD
ENDBRANCH  31  35
BRANCH  32  37
ATOM     37  O   UNL     1       4.630   0.730  29.214  0.00  0.00    -0.387 OA
ATOM     38  H   UNL     1       5.396   0.403  29.737  0.00  0.00    +0.210 HD
ENDBRANCH  32  37
ENDBRANCH  26  29
ENDBRANCH   1  26
TORSDOF 10
ENDMDL
MODEL 7
REMARK VINA RESULT:      -7.6      2.415      6.882
REMARK  Name = 
REMARK  10 active torsions:
REMARK  status: ('A' for Active; 'I' for Inactive)
REMARK    1  A    between atoms: C_2  and  O_34
REMARK    2  A    between atoms: C_4  and  O_33
REMARK    3  A    between atoms: C_6  and  O_32
REMARK    4  A    between atoms: C_7  and  O_10
REMARK    5  A    between atoms: O_10  and  C_11
REMARK    6  A    between atoms: C_12  and  C_24
REMARK    7  A    between atoms: C_16  and  O_23
REMARK    8  A    between atoms: C_18  and  O_22
REMARK    9  A    between atoms: C_26  and  O_31
REMARK   10  A    between atoms: C_27  and  O_30
REMARK                            x       y       z     vdW  Elec       q    Type
REMARK                         _______ _______ _______ _____ _____    ______ ____
ROOT
ATOM      1  C   UNL     1       5.985  -1.884  23.788  0.00  0.00    +0.214 A 
ATOM      2  C   UNL     1       5.495  -3.143  23.137  0.00  0.00    +0.238 A 
ATOM      3  O   UNL     1       5.299  -3.163  21.925  0.00  0.00    -0.283 OA
ATOM      4  C   UNL     1       5.269  -4.316  24.004  0.00  0.00    +0.109 A 
ATOM      5  C   UNL     1       5.326  -4.115  25.381  0.00  0.00    +0.147 A 
ATOM      6  C   UNL     1       5.163  -5.186  26.265  0.00  0.00    +0.092 A 
ATOM      7  C   UNL     1       4.920  -6.458  25.760  0.00  0.00    +0.124 A 
ATOM      8  C   UNL     1       4.838  -6.671  24.389  0.00  0.00    +0.091 A 
ATOM      9  O   UNL     1       5.511  -2.881  25.950  0.00  0.00    -0.451 OA
ATOM     10  C   UNL     1       5.014  -5.603  23.511  0.00  0.00    +0.135 A 
ATOM     11  C   UNL     1       5.859  -1.805  25.144  0.00  0.00    +0.181 A 
ENDROOT
BRANCH  11  12
ATOM     12  C   UNL     1       6.041  -0.563  25.941  0.00  0.00    +0.025 A 
ATOM     13  C   UNL     1       5.328   0.609  25.620  0.00  0.00    +0.015 A 
ATOM     14  C   UNL     1       5.602   1.818  26.261  0.00  0.00    +0.050 A 
ATOM     15  C   UNL     1       6.538   1.846  27.281  0.00  0.00    +0.158 A 
ATOM     16  C   UNL     1       7.202   0.682  27.664  0.00  0.00    +0.159 A 
ATOM     17  C   UNL     1       6.976  -0.516  26.992  0.00  0.00    +0.060 A 
BRANCH  15  18
ATOM     18  O   UNL     1       6.800   3.026  27.910  0.00  0.00    -0.503 OA
ATOM     19  H   UNL     1       5.925   3.440  28.051  0.00  0.00    +0.292 HD
ENDBRANCH  15  18
BRANCH  16  20
ATOM     20  O   UNL     1       8.097   0.784  28.696  0.00  0.00    -0.503 OA
ATOM     21  H   UNL     1       7.703   0.381  29.489  0.00  0.00    +0.292 HD
ENDBRANCH  16  20
ENDBRANCH  11  12
BRANCH   7  22
ATOM     22  O   UNL     1       4.754  -7.534  26.576  0.00  0.00    -0.507 OA
ATOM     23  H   UNL     1       3.885  -7.936  26.412  0.00  0.00    +0.292 HD
ENDBRANCH   7  22
BRANCH  10  24
ATOM     24  O   UNL     1       4.946  -5.841  22.168  0.00  0.00    -0.506 OA
ATOM     25  H   UNL     1       4.750  -6.777  21.997  0.00  0.00    +0.292 HD
ENDBRANCH  10  24
BRANCH   1  26
ATOM     26  O   UNL     1       6.428  -0.928  22.912  0.00  0.00    -0.453 OA
BRANCH  26  29
ATOM     27  C   UNL     1       9.949  -1.301  23.605  0.00  0.00    +0.198 C 
ATOM     28  O   UNL     1       8.539  -1.219  23.838  0.00  0.00    -0.337 OA
ATOM     29  C   UNL     1       7.825  -0.775  22.674  0.00  0.00    +0.339 C 
ATOM     30  C   UNL     1       8.210   0.684  22.371  0.00  0.00    +0.214 C 
ATOM     31  C   UNL     1       9.716   0.653  22.034  0.00  0.00    +0.180 C 
ATOM     32  C   UNL     1      10.531   0.055  23.197  0.00  0.00    +0.171 C 
BRANCH  30  33
ATOM     33  O   UNL     1       7.956   1.512  23.521  0.00  0.00    -0.383 OA
ATOM     34  H   UNL     1       8.826   1.848  23.819  0.00  0.00    +0.210 HD
ENDBRANCH  30  33
BRANCH  31  35
ATOM     35  O   UNL     1      10.211   1.940  21.659  0.00  0.00    -0.386 OA
ATOM     36  H   UNL     1       9.657   2.597  22.124  0.00  0.00    +0.210 HD
ENDBRANCH  31  35
BRANCH  32  37
ATOM     37  O   UNL     1      10.522   0.948  24.320  0.00  0.00    -0.387 OA
ATOM     38  H   UNL     1       9.964   0.523  25.009  0.00  0.00    +0.210 HD
ENDBRANCH  32  37
ENDBRANCH  26  29
ENDBRANCH   1  26
TORSDOF 10
ENDMDL
MODEL 8
REMARK VINA RESULT:      -7.5      1.618      2.378
REMARK  Name = 
REMARK  10 active torsions:
REMARK  status: ('A' for Active; 'I' for Inactive)
REMARK    1  A    between atoms: C_2  and  O_34
REMARK    2  A    between atoms: C_4  and  O_33
REMARK    3  A    between atoms: C_6  and  O_32
REMARK    4  A    between atoms: C_7  and  O_10
REMARK    5  A    between atoms: O_10  and  C_11
REMARK    6  A    between atoms: C_12  and  C_24
REMARK    7  A    between atoms: C_16  and  O_23
REMARK    8  A    between atoms: C_18  and  O_22
REMARK    9  A    between atoms: C_26  and  O_31
REMARK   10  A    between atoms: C_27  and  O_30
REMARK                            x       y       z     vdW  Elec       q    Type
REMARK                         _______ _______ _______ _____ _____    ______ ____
ROOT
ATOM      1  C   UNL     1       8.392  -2.149  24.900  0.00  0.00    +0.214 A 
ATOM      2  C   UNL     1       9.237  -0.997  24.444  0.00  0.00    +0.238 A 
ATOM      3  O   UNL     1      10.240  -1.209  23.769  0.00  0.00    -0.283 OA
ATOM      4  C   UNL     1       8.811   0.359  24.839  0.00  0.00    +0.109 A 
ATOM      5  C   UNL     1       7.781   0.461  25.772  0.00  0.00    +0.147 A 
ATOM      6  C   UNL     1       7.296   1.712  26.165  0.00  0.00    +0.092 A 
ATOM      7  C   UNL     1       7.863   2.863  25.632  0.00  0.00    +0.124 A 
ATOM      8  C   UNL     1       8.907   2.779  24.717  0.00  0.00    +0.091 A 
ATOM      9  O   UNL     1       7.210  -0.629  26.377  0.00  0.00    -0.451 OA
ATOM     10  C   UNL     1       9.378   1.530  24.319  0.00  0.00    +0.135 A 
ATOM     11  C   UNL     1       7.510  -1.902  25.910  0.00  0.00    +0.181 A 
ENDROOT
BRANCH  11  12
ATOM     12  C   UNL     1       6.777  -2.949  26.670  0.00  0.00    +0.025 A 
ATOM     13  C   UNL     1       5.460  -2.723  27.118  0.00  0.00    +0.015 A 
ATOM     14  C   UNL     1       4.819  -3.633  27.961  0.00  0.00    +0.050 A 
ATOM     15  C   UNL     1       5.462  -4.812  28.298  0.00  0.00    +0.158 A 
ATOM     16  C   UNL     1       6.737  -5.088  27.806  0.00  0.00    +0.159 A 
ATOM     17  C   UNL     1       7.406  -4.160  27.011  0.00  0.00    +0.060 A 
BRANCH  15  18
ATOM     18  O   UNL     1       4.833  -5.702  29.115  0.00  0.00    -0.503 OA
ATOM     19  H   UNL     1       5.372  -6.517  29.068  0.00  0.00    +0.292 HD
ENDBRANCH  15  18
BRANCH  16  20
ATOM     20  O   UNL     1       7.299  -6.284  28.165  0.00  0.00    -0.503 OA
ATOM     21  H   UNL     1       8.107  -6.417  27.639  0.00  0.00    +0.292 HD
ENDBRANCH  16  20
ENDBRANCH  11  12
BRANCH   7  22
ATOM     22  O   UNL     1       7.429   4.105  25.980  0.00  0.00    -0.507 OA
ATOM     23  H   UNL     1       6.827   4.443  25.297  0.00  0.00    +0.292 HD
ENDBRANCH   7  22
BRANCH  10  24
ATOM     24  O   UNL     1      10.392   1.474  23.405  0.00  0.00    -0.506 OA
ATOM     25  H   UNL     1      10.039   1.520  22.501  0.00  0.00    +0.292 HD
ENDBRANCH  10  24
BRANCH   1  26
ATOM     26  O   UNL     1       8.680  -3.341  24.287  0.00  0.00    -0.453 OA
BRANCH  26  29
ATOM     27  C   UNL     1       6.102  -3.102  21.775  0.00  0.00    +0.198 C 
ATOM     28  O   UNL     1       6.778  -2.915  23.022  0.00  0.00    -0.337 OA
ATOM     29  C   UNL     1       7.949  -3.738  23.129  0.00  0.00    +0.339 C 
ATOM     30  C   UNL     1       7.524  -5.216  23.186  0.00  0.00    +0.214 C 
ATOM     31  C   UNL     1       6.851  -5.506  21.828  0.00  0.00    +0.180 C 
ATOM     32  C   UNL     1       5.661  -4.556  21.587  0.00  0.00    +0.171 C 
BRANCH  30  33
ATOM     33  O   UNL     1       6.604  -5.425  24.273  0.00  0.00    -0.383 OA
ATOM     34  H   UNL     1       7.063  -5.131  25.087  0.00  0.00    +0.210 HD
ENDBRANCH  30  33
BRANCH  31  35
ATOM     35  O   UNL     1       6.459  -6.874  21.701  0.00  0.00    -0.386 OA
ATOM     36  H   UNL     1       5.828  -6.915  20.957  0.00  0.00    +0.210 HD
ENDBRANCH  31  35
BRANCH  32  37
ATOM     37  O   UNL     1       4.591  -4.863  22.493  0.00  0.00    -0.387 OA
ATOM     38  H   UNL     1       5.010  -5.098  23.350  0.00  0.00    +0.210 HD
ENDBRANCH  32  37
ENDBRANCH  26  29
ENDBRANCH   1  26
TORSDOF 10
ENDMDL
MODEL 9
REMARK VINA RESULT:      -7.2      1.663      4.219
REMARK  Name = 
REMARK  10 active torsions:
REMARK  status: ('A' for Active; 'I' for Inactive)
REMARK    1  A    between atoms: C_2  and  O_34
REMARK    2  A    between atoms: C_4  and  O_33
REMARK    3  A    between atoms: C_6  and  O_32
REMARK    4  A    between atoms: C_7  and  O_10
REMARK    5  A    between atoms: O_10  and  C_11
REMARK    6  A    between atoms: C_12  and  C_24
REMARK    7  A    between atoms: C_16  and  O_23
REMARK    8  A    between atoms: C_18  and  O_22
REMARK    9  A    between atoms: C_26  and  O_31
REMARK   10  A    between atoms: C_27  and  O_30
REMARK                            x       y       z     vdW  Elec       q    Type
REMARK                         _______ _______ _______ _____ _____    ______ ____
ROOT
ATOM      1  C   UNL     1       6.836  -1.160  24.757  0.00  0.00    +0.214 A 
ATOM      2  C   UNL     1       7.044   0.258  25.200  0.00  0.00    +0.238 A 
ATOM      3  O   UNL     1       6.391   0.703  26.139  0.00  0.00    -0.283 OA
ATOM      4  C   UNL     1       8.043   1.061  24.468  0.00  0.00    +0.109 A 
ATOM      5  C   UNL     1       8.568   0.519  23.297  0.00  0.00    +0.147 A 
ATOM      6  C   UNL     1       9.548   1.202  22.571  0.00  0.00    +0.092 A 
ATOM      7  C   UNL     1       9.984   2.445  23.015  0.00  0.00    +0.124 A 
ATOM      8  C   UNL     1       9.453   3.010  24.169  0.00  0.00    +0.091 A 
ATOM      9  O   UNL     1       8.148  -0.678  22.773  0.00  0.00    -0.451 OA
ATOM     10  C   UNL     1       8.486   2.320  24.896  0.00  0.00    +0.135 A 
ATOM     11  C   UNL     1       7.315  -1.496  23.525  0.00  0.00    +0.181 A 
ENDROOT
BRANCH  11  12
ATOM     12  C   UNL     1       6.992  -2.755  22.805  0.00  0.00    +0.025 A 
ATOM     13  C   UNL     1       5.840  -2.846  21.998  0.00  0.00    +0.015 A 
ATOM     14  C   UNL     1       5.445  -4.065  21.441  0.00  0.00    +0.050 A 
ATOM     15  C   UNL     1       6.241  -5.182  21.623  0.00  0.00    +0.158 A 
ATOM     16  C   UNL     1       7.424  -5.096  22.356  0.00  0.00    +0.159 A 
ATOM     17  C   UNL     1       7.796  -3.899  22.963  0.00  0.00    +0.060 A 
BRANCH  15  18
ATOM     18  O   UNL     1       5.858  -6.368  21.074  0.00  0.00    -0.503 OA
ATOM     19  H   UNL     1       6.642  -6.688  20.584  0.00  0.00    +0.292 HD
ENDBRANCH  15  18
BRANCH  16  20
ATOM     20  O   UNL     1       8.170  -6.238  22.474  0.00  0.00    -0.503 OA
ATOM     21  H   UNL     1       7.783  -6.922  21.901  0.00  0.00    +0.292 HD
ENDBRANCH  16  20
ENDBRANCH  11  12
BRANCH   7  22
ATOM     22  O   UNL     1      10.935   3.152  22.347  0.00  0.00    -0.507 OA
ATOM     23  H   UNL     1      11.192   2.673  21.542  0.00  0.00    +0.292 HD
ENDBRANCH   7  22
BRANCH  10  24
ATOM     24  O   UNL     1       7.993   2.888  26.036  0.00  0.00    -0.506 OA
ATOM     25  H   UNL     1       7.612   3.761  25.844  0.00  0.00    +0.292 HD
ENDBRANCH  10  24
BRANCH   1  26
ATOM     26  O   UNL     1       6.108  -1.925  25.630  0.00  0.00    -0.453 OA
BRANCH  26  29
ATOM     27  C   UNL     1       5.043  -5.335  25.124  0.00  0.00    +0.198 C 
ATOM     28  O   UNL     1       4.958  -3.926  25.366  0.00  0.00    -0.337 OA
ATOM     29  C   UNL     1       6.245  -3.344  25.617  0.00  0.00    +0.339 C 
ATOM     30  C   UNL     1       6.795  -3.889  26.947  0.00  0.00    +0.214 C 
ATOM     31  C   UNL     1       6.985  -5.405  26.726  0.00  0.00    +0.180 C 
ATOM     32  C   UNL     1       5.658  -6.073  26.315  0.00  0.00    +0.171 C 
BRANCH  30  33
ATOM     33  O   UNL     1       5.860  -3.636  28.011  0.00  0.00    -0.383 OA
ATOM     34  H   UNL     1       5.691  -4.498  28.444  0.00  0.00    +0.210 HD
ENDBRANCH  30  33
BRANCH  31  35
ATOM     35  O   UNL     1       7.561  -6.048  27.864  0.00  0.00    -0.386 OA
ATOM     36  H   UNL     1       8.236  -5.436  28.217  0.00  0.00    +0.210 HD
ENDBRANCH  31  35
BRANCH  32  37
ATOM     37  O   UNL     1       4.739  -6.071  27.418  0.00  0.00    -0.387 OA
ATOM     38  H   UNL     1       4.693  -6.998  27.743  0.00  0.00    +0.210 HD
ENDBRANCH  32  37
ENDBRANCH  26  29
ENDBRANCH   1  26
TORSDOF 10
ENDMDL
