MODEL 1
REMARK VINA RESULT:      -7.7      0.000      0.000
REMARK  Name = 
REMARK  22 active torsions:
REMARK  status: ('A' for Active; 'I' for Inactive)
REMARK    1  A    between atoms: C_3  and  O_60
REMARK    2  A    between atoms: C_4  and  O_59
REMARK    3  A    between atoms: C_6  and  C_7
REMARK    4  A    between atoms: C_8  and  O_20
REMARK    5  A    between atoms: C_12  and  O_19
REMARK    6  A    between atoms: C_14  and  O_18
REMARK    7  A    between atoms: O_20  and  C_21
REMARK    8  A    between atoms: C_23  and  O_47
REMARK    9  A    between atoms: C_25  and  O_46
REMARK   10  A    between atoms: C_27  and  O_45
REMARK   11  A    between atoms: C_29  and  C_32
REMARK   12  A    between atoms: C_32  and  O_33
REMARK   13  A    between atoms: O_33  and  C_34
REMARK   14  A    between atoms: C_34  and  C_36
REMARK   15  A    between atoms: C_38  and  O_44
REMARK   16  A    between atoms: C_39  and  O_43
REMARK   17  A    between atoms: C_40  and  O_42
REMARK   18  A    between atoms: O_47  and  C_48
REMARK   19  A    between atoms: C_48  and  C_50
REMARK   20  A    between atoms: C_52  and  O_58
REMARK   21  A    between atoms: C_53  and  O_57
REMARK   22  A    between atoms: C_54  and  O_56
REMARK                            x       y       z     vdW  Elec       q    Type
REMARK                         _______ _______ _______ _____ _____    ______ ____
ROOT
ATOM      1  C   UNL     1       8.856  -3.333  24.298  0.00  0.00    +0.352 C 
ATOM      2  O   UNL     1      10.143  -2.865  23.824  0.00  0.00    -0.329 OA
ATOM      3  C   UNL     1      10.295  -1.721  22.949  0.00  0.00    +0.191 C 
ATOM      4  C   UNL     1       9.218  -1.658  21.849  0.00  0.00    +0.179 C 
ATOM      5  C   UNL     1       7.835  -2.198  22.269  0.00  0.00    +0.192 C 
ATOM      6  C   UNL     1       7.800  -3.510  23.136  0.00  0.00    +0.276 C 
ENDROOT
BRANCH   5   7
ATOM      7  O   UNL     1       7.239  -1.097  23.022  0.00  0.00    -0.385 OA
ATOM      8  H   UNL     1       7.466  -0.256  22.577  0.00  0.00    +0.210 HD
ENDBRANCH   5   7
BRANCH   4   9
ATOM      9  O   UNL     1       9.074  -0.324  21.329  0.00  0.00    -0.386 OA
ATOM     10  H   UNL     1       9.967  -0.031  21.051  0.00  0.00    +0.210 HD
ENDBRANCH   4   9
BRANCH   6  11
ATOM     11  O   UNL     1       7.355  -4.804  22.424  0.00  0.00    -0.449 OA
BRANCH  11  12
ATOM     12  C   UNL     1       6.097  -5.300  22.127  0.00  0.00    +0.340 C 
ATOM     13  O   UNL     1       5.802  -5.710  21.014  0.00  0.00    -0.245 OA
BRANCH  12  14
ATOM     14  C   UNL     1       5.026  -5.322  23.302  0.00  0.00    +0.066 A 
ATOM     15  C   UNL     1       4.714  -6.499  24.009  0.00  0.00    +0.064 A 
ATOM     16  C   UNL     1       3.734  -6.505  25.029  0.00  0.00    +0.163 A 
ATOM     17  C   UNL     1       3.035  -5.361  25.392  0.00  0.00    +0.201 A 
ATOM     18  C   UNL     1       3.300  -4.181  24.721  0.00  0.00    +0.163 A 
ATOM     19  C   UNL     1       4.265  -4.152  23.674  0.00  0.00    +0.064 A 
BRANCH  18  20
ATOM     20  O   UNL     1       2.576  -3.093  25.141  0.00  0.00    -0.503 OA
ATOM     21  H   UNL     1       2.514  -3.092  26.111  0.00  0.00    +0.292 HD
ENDBRANCH  18  20
BRANCH  17  22
ATOM     22  O   UNL     1       2.119  -5.426  26.412  0.00  0.00    -0.501 OA
ATOM     23  H   UNL     1       1.624  -6.261  26.276  0.00  0.00    +0.292 HD
ENDBRANCH  17  22
BRANCH  16  24
ATOM     24  O   UNL     1       3.446  -7.665  25.699  0.00  0.00    -0.503 OA
ATOM     25  H   UNL     1       3.667  -8.385  25.068  0.00  0.00    +0.292 HD
ENDBRANCH  16  24
ENDBRANCH  12  14
ENDBRANCH  11  12
ENDBRANCH   6  11
BRANCH   3  26
ATOM     26  C   UNL     1      10.695  -0.403  23.699  0.00  0.00    +0.266 C 
BRANCH  26  27
ATOM     27  O   UNL     1       9.599   0.542  23.927  0.00  0.00    -0.458 OA
BRANCH  27  28
ATOM     28  C   UNL     1       9.883   1.871  23.812  0.00  0.00    +0.340 C 
ATOM     29  O   UNL     1      10.996   2.353  23.984  0.00  0.00    -0.245 OA
BRANCH  28  30
ATOM     30  C   UNL     1       8.725   2.735  23.395  0.00  0.00    +0.066 A 
ATOM     31  C   UNL     1       7.496   2.202  22.983  0.00  0.00    +0.064 A 
ATOM     32  C   UNL     1       6.458   3.065  22.621  0.00  0.00    +0.163 A 
ATOM     33  C   UNL     1       6.630   4.446  22.653  0.00  0.00    +0.201 A 
ATOM     34  C   UNL     1       7.848   4.990  23.031  0.00  0.00    +0.163 A 
ATOM     35  C   UNL     1       8.895   4.146  23.402  0.00  0.00    +0.064 A 
BRANCH  34  36
ATOM     36  O   UNL     1       7.964   6.354  23.019  0.00  0.00    -0.503 OA
ATOM     37  H   UNL     1       7.336   6.724  23.665  0.00  0.00    +0.292 HD
ENDBRANCH  34  36
BRANCH  33  38
ATOM     38  O   UNL     1       5.582   5.255  22.302  0.00  0.00    -0.501 OA
ATOM     39  H   UNL     1       5.120   4.761  21.592  0.00  0.00    +0.292 HD
ENDBRANCH  33  38
BRANCH  32  40
ATOM     40  O   UNL     1       5.253   2.552  22.229  0.00  0.00    -0.503 OA
ATOM     41  H   UNL     1       4.685   3.336  22.075  0.00  0.00    +0.292 HD
ENDBRANCH  32  40
ENDBRANCH  28  30
ENDBRANCH  27  28
ENDBRANCH  26  27
ENDBRANCH   3  26
BRANCH   1  42
ATOM     42  O   UNL     1       8.200  -2.374  25.216  0.00  0.00    -0.452 OA
BRANCH  42  53
ATOM     43  C   UNL     1       6.255  -1.696  26.522  0.00  0.00    +0.181 A 
ATOM     44  O   UNL     1       5.312  -1.976  27.516  0.00  0.00    -0.451 OA
ATOM     45  C   UNL     1       5.134  -3.239  27.985  0.00  0.00    +0.147 A 
ATOM     46  C   UNL     1       5.799  -4.324  27.446  0.00  0.00    +0.109 A 
ATOM     47  C   UNL     1       5.489  -5.604  27.913  0.00  0.00    +0.135 A 
ATOM     48  C   UNL     1       4.543  -5.788  28.931  0.00  0.00    +0.091 A 
ATOM     49  C   UNL     1       3.914  -4.682  29.482  0.00  0.00    +0.124 A 
ATOM     50  C   UNL     1       6.817  -4.068  26.413  0.00  0.00    +0.238 A 
ATOM     51  O   UNL     1       7.441  -5.024  25.960  0.00  0.00    -0.283 OA
ATOM     52  C   UNL     1       4.208  -3.408  29.019  0.00  0.00    +0.092 A 
ATOM     53  C   UNL     1       7.064  -2.652  25.971  0.00  0.00    +0.214 A 
BRANCH  43  55
ATOM     54  C   UNL     1       7.113   0.694  26.682  0.00  0.00    +0.015 A 
ATOM     55  C   UNL     1       6.137  -0.225  26.193  0.00  0.00    +0.025 A 
ATOM     56  C   UNL     1       5.007   0.343  25.603  0.00  0.00    +0.060 A 
ATOM     57  C   UNL     1       4.846   1.732  25.534  0.00  0.00    +0.159 A 
ATOM     58  C   UNL     1       5.785   2.597  26.092  0.00  0.00    +0.158 A 
ATOM     59  C   UNL     1       6.939   2.090  26.654  0.00  0.00    +0.050 A 
BRANCH  58  60
ATOM     60  O   UNL     1       5.507   3.941  26.085  0.00  0.00    -0.503 OA
ATOM     61  H   UNL     1       6.223   4.411  26.547  0.00  0.00    +0.292 HD
ENDBRANCH  58  60
BRANCH  57  62
ATOM     62  O   UNL     1       3.713   2.246  24.969  0.00  0.00    -0.503 OA
ATOM     63  H   UNL     1       3.037   2.188  25.676  0.00  0.00    +0.292 HD
ENDBRANCH  57  62
ENDBRANCH  43  55
BRANCH  49  64
ATOM     64  O   UNL     1       2.979  -4.805  30.460  0.00  0.00    -0.507 OA
ATOM     65  H   UNL     1       2.757  -5.744  30.564  0.00  0.00    +0.292 HD
ENDBRANCH  49  64
BRANCH  47  66
ATOM     66  O   UNL     1       6.064  -6.741  27.403  0.00  0.00    -0.506 OA
ATOM     67  H   UNL     1       7.017  -6.552  27.246  0.00  0.00    +0.292 HD
ENDBRANCH  47  66
ENDBRANCH  42  53
ENDBRANCH   1  42
TORSDOF 22
ENDMDL
MODEL 2
REMARK VINA RESULT:      -7.6      2.158      3.963
REMARK  Name = 
REMARK  22 active torsions:
REMARK  status: ('A' for Active; 'I' for Inactive)
REMARK    1  A    between atoms: C_3  and  O_60
REMARK    2  A    between atoms: C_4  and  O_59
REMARK    3  A    between atoms: C_6  and  C_7
REMARK    4  A    between atoms: C_8  and  O_20
REMARK    5  A    between atoms: C_12  and  O_19
REMARK    6  A    between atoms: C_14  and  O_18
REMARK    7  A    between atoms: O_20  and  C_21
REMARK    8  A    between atoms: C_23  and  O_47
REMARK    9  A    between atoms: C_25  and  O_46
REMARK   10  A    between atoms: C_27  and  O_45
REMARK   11  A    between atoms: C_29  and  C_32
REMARK   12  A    between atoms: C_32  and  O_33
REMARK   13  A    between atoms: O_33  and  C_34
REMARK   14  A    between atoms: C_34  and  C_36
REMARK   15  A    between atoms: C_38  and  O_44
REMARK   16  A    between atoms: C_39  and  O_43
REMARK   17  A    between atoms: C_40  and  O_42
REMARK   18  A    between atoms: O_47  and  C_48
REMARK   19  A    between atoms: C_48  and  C_50
REMARK   20  A    between atoms: C_52  and  O_58
REMARK   21  A    between atoms: C_53  and  O_57
REMARK   22  A    between atoms: C_54  and  O_56
REMARK                            x       y       z     vdW  Elec       q    Type
REMARK                         _______ _______ _______ _____ _____    ______ ____
ROOT
ATOM      1  C   UNL     1       7.694  -1.554  24.771  0.00  0.00    +0.352 C 
ATOM      2  O   UNL     1       9.112  -1.515  25.068  0.00  0.00    -0.329 OA
ATOM      3  C   UNL     1      10.103  -1.031  24.130  0.00  0.00    +0.191 C 
ATOM      4  C   UNL     1       9.830  -1.478  22.681  0.00  0.00    +0.179 C 
ATOM      5  C   UNL     1       8.335  -1.599  22.316  0.00  0.00    +0.192 C 
ATOM      6  C   UNL     1       7.374  -2.238  23.384  0.00  0.00    +0.276 C 
ENDROOT
BRANCH   5   7
ATOM      7  O   UNL     1       7.924  -0.223  22.048  0.00  0.00    -0.385 OA
ATOM      8  H   UNL     1       8.217   0.020  21.146  0.00  0.00    +0.210 HD
ENDBRANCH   5   7
BRANCH   4   9
ATOM      9  O   UNL     1      10.489  -0.621  21.732  0.00  0.00    -0.386 OA
ATOM     10  H   UNL     1      11.361  -1.025  21.544  0.00  0.00    +0.210 HD
ENDBRANCH   4   9
BRANCH   6  11
ATOM     11  O   UNL     1       6.879  -3.672  23.106  0.00  0.00    -0.449 OA
BRANCH  11  12
ATOM     12  C   UNL     1       5.672  -4.292  23.375  0.00  0.00    +0.340 C 
ATOM     13  O   UNL     1       4.701  -4.181  22.640  0.00  0.00    -0.245 OA
BRANCH  12  14
ATOM     14  C   UNL     1       5.584  -5.174  24.695  0.00  0.00    +0.066 A 
ATOM     15  C   UNL     1       4.472  -5.989  24.979  0.00  0.00    +0.064 A 
ATOM     16  C   UNL     1       4.397  -6.741  26.175  0.00  0.00    +0.163 A 
ATOM     17  C   UNL     1       5.410  -6.724  27.125  0.00  0.00    +0.201 A 
ATOM     18  C   UNL     1       6.520  -5.931  26.896  0.00  0.00    +0.163 A 
ATOM     19  C   UNL     1       6.610  -5.146  25.711  0.00  0.00    +0.064 A 
BRANCH  18  20
ATOM     20  O   UNL     1       7.482  -5.972  27.875  0.00  0.00    -0.503 OA
ATOM     21  H   UNL     1       8.324  -6.277  27.498  0.00  0.00    +0.292 HD
ENDBRANCH  18  20
BRANCH  17  22
ATOM     22  O   UNL     1       5.293  -7.500  28.251  0.00  0.00    -0.501 OA
ATOM     23  H   UNL     1       5.867  -7.083  28.926  0.00  0.00    +0.292 HD
ENDBRANCH  17  22
BRANCH  16  24
ATOM     24  O   UNL     1       3.302  -7.524  26.429  0.00  0.00    -0.503 OA
ATOM     25  H   UNL     1       2.978  -7.229  27.309  0.00  0.00    +0.292 HD
ENDBRANCH  16  24
ENDBRANCH  12  14
ENDBRANCH  11  12
ENDBRANCH   6  11
BRANCH   3  26
ATOM     26  C   UNL     1      10.554   0.447  24.398  0.00  0.00    +0.266 C 
BRANCH  26  27
ATOM     27  O   UNL     1       9.632   1.478  23.914  0.00  0.00    -0.458 OA
BRANCH  27  28
ATOM     28  C   UNL     1      10.063   2.278  22.896  0.00  0.00    +0.340 C 
ATOM     29  O   UNL     1       9.907   2.023  21.709  0.00  0.00    -0.245 OA
BRANCH  28  30
ATOM     30  C   UNL     1      10.716   3.561  23.331  0.00  0.00    +0.066 A 
ATOM     31  C   UNL     1      10.008   4.591  23.965  0.00  0.00    +0.064 A 
ATOM     32  C   UNL     1      10.682   5.753  24.353  0.00  0.00    +0.163 A 
ATOM     33  C   UNL     1      12.044   5.905  24.110  0.00  0.00    +0.201 A 
ATOM     34  C   UNL     1      12.754   4.908  23.460  0.00  0.00    +0.163 A 
ATOM     35  C   UNL     1      12.102   3.738  23.069  0.00  0.00    +0.064 A 
BRANCH  34  36
ATOM     36  O   UNL     1      14.086   5.127  23.227  0.00  0.00    -0.503 OA
ATOM     37  H   UNL     1      14.600   4.656  23.907  0.00  0.00    +0.292 HD
ENDBRANCH  34  36
BRANCH  33  38
ATOM     38  O   UNL     1      12.668   7.054  24.519  0.00  0.00    -0.501 OA
ATOM     39  H   UNL     1      12.016   7.488  25.110  0.00  0.00    +0.292 HD
ENDBRANCH  33  38
BRANCH  32  40
ATOM     40  O   UNL     1      10.000   6.756  24.982  0.00  0.00    -0.503 OA
ATOM     41  H   UNL     1       9.339   6.298  25.541  0.00  0.00    +0.292 HD
ENDBRANCH  32  40
ENDBRANCH  28  30
ENDBRANCH  27  28
ENDBRANCH  26  27
ENDBRANCH   3  26
BRANCH   1  42
ATOM     42  O   UNL     1       7.101  -0.204  24.635  0.00  0.00    -0.452 OA
BRANCH  42  53
ATOM     43  C   UNL     1       5.451   1.494  25.220  0.00  0.00    +0.181 A 
ATOM     44  O   UNL     1       4.469   1.971  26.094  0.00  0.00    -0.451 OA
ATOM     45  C   UNL     1       3.921   1.171  27.046  0.00  0.00    +0.147 A 
ATOM     46  C   UNL     1       4.228  -0.173  27.142  0.00  0.00    +0.109 A 
ATOM     47  C   UNL     1       3.548  -0.953  28.082  0.00  0.00    +0.135 A 
ATOM     48  C   UNL     1       2.593  -0.382  28.934  0.00  0.00    +0.091 A 
ATOM     49  C   UNL     1       2.326   0.975  28.843  0.00  0.00    +0.124 A 
ATOM     50  C   UNL     1       5.274  -0.709  26.255  0.00  0.00    +0.238 A 
ATOM     51  O   UNL     1       5.582  -1.893  26.365  0.00  0.00    -0.283 OA
ATOM     52  C   UNL     1       2.988   1.757  27.907  0.00  0.00    +0.092 A 
ATOM     53  C   UNL     1       5.934   0.215  25.269  0.00  0.00    +0.214 A 
BRANCH  43  55
ATOM     54  C   UNL     1       6.002   2.325  22.879  0.00  0.00    +0.015 A 
ATOM     55  C   UNL     1       5.780   2.614  24.259  0.00  0.00    +0.025 A 
ATOM     56  C   UNL     1       6.090   3.912  24.667  0.00  0.00    +0.060 A 
ATOM     57  C   UNL     1       6.615   4.849  23.768  0.00  0.00    +0.159 A 
ATOM     58  C   UNL     1       6.891   4.506  22.447  0.00  0.00    +0.158 A 
ATOM     59  C   UNL     1       6.569   3.247  21.980  0.00  0.00    +0.050 A 
BRANCH  58  60
ATOM     60  O   UNL     1       7.508   5.441  21.654  0.00  0.00    -0.503 OA
ATOM     61  H   UNL     1       7.529   6.290  22.130  0.00  0.00    +0.292 HD
ENDBRANCH  58  60
BRANCH  57  62
ATOM     62  O   UNL     1       6.926   6.102  24.216  0.00  0.00    -0.503 OA
ATOM     63  H   UNL     1       6.458   6.180  25.073  0.00  0.00    +0.292 HD
ENDBRANCH  57  62
ENDBRANCH  43  55
BRANCH  49  64
ATOM     64  O   UNL     1       1.399   1.576  29.634  0.00  0.00    -0.507 OA
ATOM     65  H   UNL     1       1.701   2.475  29.841  0.00  0.00    +0.292 HD
ENDBRANCH  49  64
BRANCH  47  66
ATOM     66  O   UNL     1       3.756  -2.303  28.215  0.00  0.00    -0.506 OA
ATOM     67  H   UNL     1       2.972  -2.685  28.672  0.00  0.00    +0.292 HD
ENDBRANCH  47  66
ENDBRANCH  42  53
ENDBRANCH   1  42
TORSDOF 22
ENDMDL
MODEL 3
REMARK VINA RESULT:      -7.5      1.898      7.011
REMARK  Name = 
REMARK  22 active torsions:
REMARK  status: ('A' for Active; 'I' for Inactive)
REMARK    1  A    between atoms: C_3  and  O_60
REMARK    2  A    between atoms: C_4  and  O_59
REMARK    3  A    between atoms: C_6  and  C_7
REMARK    4  A    between atoms: C_8  and  O_20
REMARK    5  A    between atoms: C_12  and  O_19
REMARK    6  A    between atoms: C_14  and  O_18
REMARK    7  A    between atoms: O_20  and  C_21
REMARK    8  A    between atoms: C_23  and  O_47
REMARK    9  A    between atoms: C_25  and  O_46
REMARK   10  A    between atoms: C_27  and  O_45
REMARK   11  A    between atoms: C_29  and  C_32
REMARK   12  A    between atoms: C_32  and  O_33
REMARK   13  A    between atoms: O_33  and  C_34
REMARK   14  A    between atoms: C_34  and  C_36
REMARK   15  A    between atoms: C_38  and  O_44
REMARK   16  A    between atoms: C_39  and  O_43
REMARK   17  A    between atoms: C_40  and  O_42
REMARK   18  A    between atoms: O_47  and  C_48
REMARK   19  A    between atoms: C_48  and  C_50
REMARK   20  A    between atoms: C_52  and  O_58
REMARK   21  A    between atoms: C_53  and  O_57
REMARK   22  A    between atoms: C_54  and  O_56
REMARK                            x       y       z     vdW  Elec       q    Type
REMARK                         _______ _______ _______ _____ _____    ______ ____
ROOT
ATOM      1  C   UNL     1       5.946   0.030  25.845  0.00  0.00    +0.352 C 
ATOM      2  O   UNL     1       4.668   0.659  25.577  0.00  0.00    -0.329 OA
ATOM      3  C   UNL     1       3.876   1.310  26.599  0.00  0.00    +0.191 C 
ATOM      4  C   UNL     1       3.872   0.543  27.936  0.00  0.00    +0.179 C 
ATOM      5  C   UNL     1       5.185  -0.201  28.256  0.00  0.00    +0.192 C 
ATOM      6  C   UNL     1       5.898  -0.958  27.077  0.00  0.00    +0.276 C 
ENDROOT
BRANCH   5   7
ATOM      7  O   UNL     1       6.067   0.844  28.772  0.00  0.00    -0.385 OA
ATOM      8  H   UNL     1       5.728   1.712  28.474  0.00  0.00    +0.210 HD
ENDBRANCH   5   7
BRANCH   4   9
ATOM      9  O   UNL     1       3.527   1.405  29.036  0.00  0.00    -0.386 OA
ATOM     10  H   UNL     1       3.099   0.841  29.713  0.00  0.00    +0.210 HD
ENDBRANCH   4   9
BRANCH   6  11
ATOM     11  O   UNL     1       5.799  -2.497  27.077  0.00  0.00    -0.449 OA
BRANCH  11  12
ATOM     12  C   UNL     1       4.751  -3.348  26.771  0.00  0.00    +0.340 C 
ATOM     13  O   UNL     1       3.815  -3.534  27.536  0.00  0.00    -0.245 OA
BRANCH  12  14
ATOM     14  C   UNL     1       4.800  -4.089  25.366  0.00  0.00    +0.066 A 
ATOM     15  C   UNL     1       4.668  -5.486  25.251  0.00  0.00    +0.064 A 
ATOM     16  C   UNL     1       4.748  -6.131  23.994  0.00  0.00    +0.163 A 
ATOM     17  C   UNL     1       4.952  -5.429  22.813  0.00  0.00    +0.201 A 
ATOM     18  C   UNL     1       5.096  -4.055  22.874  0.00  0.00    +0.163 A 
ATOM     19  C   UNL     1       5.044  -3.384  24.130  0.00  0.00    +0.064 A 
BRANCH  18  20
ATOM     20  O   UNL     1       5.287  -3.431  21.667  0.00  0.00    -0.503 OA
ATOM     21  H   UNL     1       6.213  -3.151  21.583  0.00  0.00    +0.292 HD
ENDBRANCH  18  20
BRANCH  17  22
ATOM     22  O   UNL     1       4.988  -6.110  21.622  0.00  0.00    -0.501 OA
ATOM     23  H   UNL     1       5.081  -5.427  20.925  0.00  0.00    +0.292 HD
ENDBRANCH  17  22
BRANCH  16  24
ATOM     24  O   UNL     1       4.620  -7.493  23.910  0.00  0.00    -0.503 OA
ATOM     25  H   UNL     1       5.397  -7.851  24.393  0.00  0.00    +0.292 HD
ENDBRANCH  16  24
ENDBRANCH  12  14
ENDBRANCH  11  12
ENDBRANCH   6  11
BRANCH   3  26
ATOM     26  C   UNL     1       4.032   2.871  26.617  0.00  0.00    +0.266 C 
BRANCH  26  27
ATOM     27  O   UNL     1       3.058   3.604  25.804  0.00  0.00    -0.458 OA
BRANCH  27  28
ATOM     28  C   UNL     1       3.041   3.349  24.464  0.00  0.00    +0.340 C 
ATOM     29  O   UNL     1       2.118   2.794  23.882  0.00  0.00    -0.245 OA
BRANCH  28  30
ATOM     30  C   UNL     1       4.238   3.854  23.707  0.00  0.00    +0.066 A 
ATOM     31  C   UNL     1       5.090   3.005  22.987  0.00  0.00    +0.064 A 
ATOM     32  C   UNL     1       6.177   3.546  22.295  0.00  0.00    +0.163 A 
ATOM     33  C   UNL     1       6.431   4.913  22.318  0.00  0.00    +0.201 A 
ATOM     34  C   UNL     1       5.615   5.765  23.046  0.00  0.00    +0.163 A 
ATOM     35  C   UNL     1       4.522   5.246  23.739  0.00  0.00    +0.064 A 
BRANCH  34  36
ATOM     36  O   UNL     1       5.932   7.097  23.050  0.00  0.00    -0.503 OA
ATOM     37  H   UNL     1       5.108   7.612  22.985  0.00  0.00    +0.292 HD
ENDBRANCH  34  36
BRANCH  33  38
ATOM     38  O   UNL     1       7.501   5.402  21.614  0.00  0.00    -0.501 OA
ATOM     39  H   UNL     1       7.100   5.829  20.828  0.00  0.00    +0.292 HD
ENDBRANCH  33  38
BRANCH  32  40
ATOM     40  O   UNL     1       7.005   2.724  21.582  0.00  0.00    -0.503 OA
ATOM     41  H   UNL     1       6.415   2.255  20.956  0.00  0.00    +0.292 HD
ENDBRANCH  32  40
ENDBRANCH  28  30
ENDBRANCH  27  28
ENDBRANCH  26  27
ENDBRANCH   3  26
BRANCH   1  42
ATOM     42  O   UNL     1       6.994   1.004  26.226  0.00  0.00    -0.452 OA
BRANCH  42  53
ATOM     43  C   UNL     1       8.822   0.937  24.612  0.00  0.00    +0.181 A 
ATOM     44  O   UNL     1       9.882   1.576  23.963  0.00  0.00    -0.451 OA
ATOM     45  C   UNL     1      10.021   2.928  23.999  0.00  0.00    +0.147 A 
ATOM     46  C   UNL     1       9.079   3.747  24.592  0.00  0.00    +0.109 A 
ATOM     47  C   UNL     1       9.241   5.133  24.502  0.00  0.00    +0.135 A 
ATOM     48  C   UNL     1      10.351   5.686  23.849  0.00  0.00    +0.091 A 
ATOM     49  C   UNL     1      11.300   4.844  23.292  0.00  0.00    +0.124 A 
ATOM     50  C   UNL     1       7.959   3.111  25.306  0.00  0.00    +0.238 A 
ATOM     51  O   UNL     1       7.142   3.834  25.871  0.00  0.00    -0.283 OA
ATOM     52  C   UNL     1      11.146   3.468  23.368  0.00  0.00    +0.092 A 
ATOM     53  C   UNL     1       7.873   1.610  25.331  0.00  0.00    +0.214 A 
BRANCH  43  55
ATOM     54  C   UNL     1       8.689  -1.014  22.984  0.00  0.00    +0.015 A 
ATOM     55  C   UNL     1       8.934  -0.540  24.308  0.00  0.00    +0.025 A 
ATOM     56  C   UNL     1       9.063  -1.521  25.292  0.00  0.00    +0.060 A 
ATOM     57  C   UNL     1       8.925  -2.880  24.985  0.00  0.00    +0.159 A 
ATOM     58  C   UNL     1       8.609  -3.300  23.694  0.00  0.00    +0.158 A 
ATOM     59  C   UNL     1       8.508  -2.375  22.675  0.00  0.00    +0.050 A 
BRANCH  58  60
ATOM     60  O   UNL     1       8.380  -4.638  23.490  0.00  0.00    -0.503 OA
ATOM     61  H   UNL     1       8.118  -4.773  22.563  0.00  0.00    +0.292 HD
ENDBRANCH  58  60
BRANCH  57  62
ATOM     62  O   UNL     1       9.036  -3.806  25.984  0.00  0.00    -0.503 OA
ATOM     63  H   UNL     1       9.467  -3.323  26.719  0.00  0.00    +0.292 HD
ENDBRANCH  57  62
ENDBRANCH  43  55
BRANCH  49  64
ATOM     64  O   UNL     1      12.388   5.328  22.635  0.00  0.00    -0.507 OA
ATOM     65  H   UNL     1      12.278   6.285  22.514  0.00  0.00    +0.292 HD
ENDBRANCH  49  64
BRANCH  47  66
ATOM     66  O   UNL     1       8.331   6.021  25.019  0.00  0.00    -0.506 OA
ATOM     67  H   UNL     1       8.733   6.919  24.983  0.00  0.00    +0.292 HD
ENDBRANCH  47  66
ENDBRANCH  42  53
ENDBRANCH   1  42
TORSDOF 22
ENDMDL
MODEL 4
REMARK VINA RESULT:      -7.2      1.842      5.063
REMARK  Name = 
REMARK  22 active torsions:
REMARK  status: ('A' for Active; 'I' for Inactive)
REMARK    1  A    between atoms: C_3  and  O_60
REMARK    2  A    between atoms: C_4  and  O_59
REMARK    3  A    between atoms: C_6  and  C_7
REMARK    4  A    between atoms: C_8  and  O_20
REMARK    5  A    between atoms: C_12  and  O_19
REMARK    6  A    between atoms: C_14  and  O_18
REMARK    7  A    between atoms: O_20  and  C_21
REMARK    8  A    between atoms: C_23  and  O_47
REMARK    9  A    between atoms: C_25  and  O_46
REMARK   10  A    between atoms: C_27  and  O_45
REMARK   11  A    between atoms: C_29  and  C_32
REMARK   12  A    between atoms: C_32  and  O_33
REMARK   13  A    between atoms: O_33  and  C_34
REMARK   14  A    between atoms: C_34  and  C_36
REMARK   15  A    between atoms: C_38  and  O_44
REMARK   16  A    between atoms: C_39  and  O_43
REMARK   17  A    between atoms: C_40  and  O_42
REMARK   18  A    between atoms: O_47  and  C_48
REMARK   19  A    between atoms: C_48  and  C_50
REMARK   20  A    between atoms: C_52  and  O_58
REMARK   21  A    between atoms: C_53  and  O_57
REMARK   22  A    between atoms: C_54  and  O_56
REMARK                            x       y       z     vdW  Elec       q    Type
REMARK                         _______ _______ _______ _____ _____    ______ ____
ROOT
ATOM      1  C   UNL     1       9.091  -0.331  25.206  0.00  0.00    +0.352 C 
ATOM      2  O   UNL     1      10.315   0.107  24.566  0.00  0.00    -0.329 OA
ATOM      3  C   UNL     1      10.524   0.049  23.134  0.00  0.00    +0.191 C 
ATOM      4  C   UNL     1       9.970  -1.240  22.497  0.00  0.00    +0.179 C 
ATOM      5  C   UNL     1       8.697  -1.795  23.170  0.00  0.00    +0.192 C 
ATOM      6  C   UNL     1       8.635  -1.770  24.742  0.00  0.00    +0.276 C 
ENDROOT
BRANCH   5   7
ATOM      7  O   UNL     1       7.620  -0.972  22.624  0.00  0.00    -0.385 OA
ATOM      8  H   UNL     1       7.841  -0.030  22.774  0.00  0.00    +0.210 HD
ENDBRANCH   5   7
BRANCH   4   9
ATOM      9  O   UNL     1       9.733  -1.071  21.088  0.00  0.00    -0.386 OA
ATOM     10  H   UNL     1      10.102  -1.862  20.643  0.00  0.00    +0.210 HD
ENDBRANCH   4   9
BRANCH   6  11
ATOM     11  O   UNL     1       8.809  -3.120  25.467  0.00  0.00    -0.449 OA
BRANCH  11  12
ATOM     12  C   UNL     1       8.844  -4.418  24.990  0.00  0.00    +0.340 C 
ATOM     13  O   UNL     1       9.889  -5.039  24.860  0.00  0.00    -0.245 OA
BRANCH  12  14
ATOM     14  C   UNL     1       7.456  -5.093  24.610  0.00  0.00    +0.066 A 
ATOM     15  C   UNL     1       6.582  -5.609  25.586  0.00  0.00    +0.064 A 
ATOM     16  C   UNL     1       5.366  -6.236  25.226  0.00  0.00    +0.163 A 
ATOM     17  C   UNL     1       4.965  -6.370  23.903  0.00  0.00    +0.201 A 
ATOM     18  C   UNL     1       5.793  -5.887  22.906  0.00  0.00    +0.163 A 
ATOM     19  C   UNL     1       7.035  -5.272  23.240  0.00  0.00    +0.064 A 
BRANCH  18  20
ATOM     20  O   UNL     1       5.327  -6.049  21.626  0.00  0.00    -0.503 OA
ATOM     21  H   UNL     1       5.246  -6.995  21.422  0.00  0.00    +0.292 HD
ENDBRANCH  18  20
BRANCH  17  22
ATOM     22  O   UNL     1       3.758  -6.960  23.620  0.00  0.00    -0.501 OA
ATOM     23  H   UNL     1       3.423  -7.307  24.473  0.00  0.00    +0.292 HD
ENDBRANCH  17  22
BRANCH  16  24
ATOM     24  O   UNL     1       4.534  -6.733  26.195  0.00  0.00    -0.503 OA
ATOM     25  H   UNL     1       5.129  -7.188  26.831  0.00  0.00    +0.292 HD
ENDBRANCH  16  24
ENDBRANCH  12  14
ENDBRANCH  11  12
ENDBRANCH   6  11
BRANCH   3  26
ATOM     26  C   UNL     1      10.289   1.419  22.408  0.00  0.00    +0.266 C 
BRANCH  26  27
ATOM     27  O   UNL     1       9.105   2.163  22.849  0.00  0.00    -0.458 OA
BRANCH  27  28
ATOM     28  C   UNL     1       8.034   2.194  22.004  0.00  0.00    +0.340 C 
ATOM     29  O   UNL     1       7.980   1.589  20.941  0.00  0.00    -0.245 OA
BRANCH  28  30
ATOM     30  C   UNL     1       6.862   2.998  22.494  0.00  0.00    +0.066 A 
ATOM     31  C   UNL     1       5.618   2.421  22.780  0.00  0.00    +0.064 A 
ATOM     32  C   UNL     1       4.575   3.227  23.245  0.00  0.00    +0.163 A 
ATOM     33  C   UNL     1       4.751   4.596  23.418  0.00  0.00    +0.201 A 
ATOM     34  C   UNL     1       5.967   5.189  23.113  0.00  0.00    +0.163 A 
ATOM     35  C   UNL     1       7.022   4.401  22.653  0.00  0.00    +0.064 A 
BRANCH  34  36
ATOM     36  O   UNL     1       6.071   6.545  23.280  0.00  0.00    -0.503 OA
ATOM     37  H   UNL     1       6.983   6.755  23.547  0.00  0.00    +0.292 HD
ENDBRANCH  34  36
BRANCH  33  38
ATOM     38  O   UNL     1       3.706   5.348  23.888  0.00  0.00    -0.501 OA
ATOM     39  H   UNL     1       4.115   6.202  24.142  0.00  0.00    +0.292 HD
ENDBRANCH  33  38
BRANCH  32  40
ATOM     40  O   UNL     1       3.362   2.668  23.537  0.00  0.00    -0.503 OA
ATOM     41  H   UNL     1       3.536   1.705  23.588  0.00  0.00    +0.292 HD
ENDBRANCH  32  40
ENDBRANCH  28  30
ENDBRANCH  27  28
ENDBRANCH  26  27
ENDBRANCH   3  26
BRANCH   1  42
ATOM     42  O   UNL     1       7.930   0.525  24.867  0.00  0.00    -0.452 OA
BRANCH  42  53
ATOM     43  C   UNL     1       6.046   0.828  26.385  0.00  0.00    +0.181 A 
ATOM     44  O   UNL     1       5.167   1.678  27.062  0.00  0.00    -0.451 OA
ATOM     45  C   UNL     1       5.421   3.008  27.181  0.00  0.00    +0.147 A 
ATOM     46  C   UNL     1       6.598   3.574  26.729  0.00  0.00    +0.109 A 
ATOM     47  C   UNL     1       6.832   4.930  26.978  0.00  0.00    +0.135 A 
ATOM     48  C   UNL     1       5.881   5.712  27.646  0.00  0.00    +0.091 A 
ATOM     49  C   UNL     1       4.692   5.131  28.059  0.00  0.00    +0.124 A 
ATOM     50  C   UNL     1       7.540   2.716  25.991  0.00  0.00    +0.238 A 
ATOM     51  O   UNL     1       8.568   3.223  25.551  0.00  0.00    -0.283 OA
ATOM     52  C   UNL     1       4.454   3.785  27.826  0.00  0.00    +0.092 A 
ATOM     53  C   UNL     1       7.197   1.266  25.791  0.00  0.00    +0.214 A 
BRANCH  43  55
ATOM     54  C   UNL     1       5.235  -1.342  25.331  0.00  0.00    +0.015 A 
ATOM     55  C   UNL     1       5.496  -0.576  26.506  0.00  0.00    +0.025 A 
ATOM     56  C   UNL     1       5.021  -1.116  27.703  0.00  0.00    +0.060 A 
ATOM     57  C   UNL     1       4.308  -2.320  27.723  0.00  0.00    +0.159 A 
ATOM     58  C   UNL     1       4.006  -3.000  26.545  0.00  0.00    +0.158 A 
ATOM     59  C   UNL     1       4.483  -2.531  25.338  0.00  0.00    +0.050 A 
BRANCH  58  60
ATOM     60  O   UNL     1       3.209  -4.114  26.631  0.00  0.00    -0.503 OA
ATOM     61  H   UNL     1       3.188  -4.552  25.761  0.00  0.00    +0.292 HD
ENDBRANCH  58  60
BRANCH  57  62
ATOM     62  O   UNL     1       3.841  -2.800  28.914  0.00  0.00    -0.503 OA
ATOM     63  H   UNL     1       3.211  -2.118  29.224  0.00  0.00    +0.292 HD
ENDBRANCH  57  62
ENDBRANCH  43  55
BRANCH  49  64
ATOM     64  O   UNL     1       3.742   5.841  28.724  0.00  0.00    -0.507 OA
ATOM     65  H   UNL     1       3.962   5.845  29.670  0.00  0.00    +0.292 HD
ENDBRANCH  49  64
BRANCH  47  66
ATOM     66  O   UNL     1       7.992   5.563  26.607  0.00  0.00    -0.506 OA
ATOM     67  H   UNL     1       7.968   5.689  25.632  0.00  0.00    +0.292 HD
ENDBRANCH  47  66
ENDBRANCH  42  53
ENDBRANCH   1  42
TORSDOF 22
ENDMDL
MODEL 5
REMARK VINA RESULT:      -7.1      1.694      5.073
REMARK  Name = 
REMARK  22 active torsions:
REMARK  status: ('A' for Active; 'I' for Inactive)
REMARK    1  A    between atoms: C_3  and  O_60
REMARK    2  A    between atoms: C_4  and  O_59
REMARK    3  A    between atoms: C_6  and  C_7
REMARK    4  A    between atoms: C_8  and  O_20
REMARK    5  A    between atoms: C_12  and  O_19
REMARK    6  A    between atoms: C_14  and  O_18
REMARK    7  A    between atoms: O_20  and  C_21
REMARK    8  A    between atoms: C_23  and  O_47
REMARK    9  A    between atoms: C_25  and  O_46
REMARK   10  A    between atoms: C_27  and  O_45
REMARK   11  A    between atoms: C_29  and  C_32
REMARK   12  A    between atoms: C_32  and  O_33
REMARK   13  A    between atoms: O_33  and  C_34
REMARK   14  A    between atoms: C_34  and  C_36
REMARK   15  A    between atoms: C_38  and  O_44
REMARK   16  A    between atoms: C_39  and  O_43
REMARK   17  A    between atoms: C_40  and  O_42
REMARK   18  A    between atoms: O_47  and  C_48
REMARK   19  A    between atoms: C_48  and  C_50
REMARK   20  A    between atoms: C_52  and  O_58
REMARK   21  A    between atoms: C_53  and  O_57
REMARK   22  A    between atoms: C_54  and  O_56
REMARK                            x       y       z     vdW  Elec       q    Type
REMARK                         _______ _______ _______ _____ _____    ______ ____
ROOT
ATOM      1  C   UNL     1       8.054  -1.532  26.042  0.00  0.00    +0.352 C 
ATOM      2  O   UNL     1       9.326  -0.865  25.849  0.00  0.00    -0.329 OA
ATOM      3  C   UNL     1       9.998  -0.798  24.568  0.00  0.00    +0.191 C 
ATOM      4  C   UNL     1       9.910  -2.115  23.773  0.00  0.00    +0.179 C 
ATOM      5  C   UNL     1       8.603  -2.907  23.980  0.00  0.00    +0.192 C 
ATOM      6  C   UNL     1       8.028  -2.993  25.442  0.00  0.00    +0.276 C 
ENDROOT
BRANCH   5   7
ATOM      7  O   UNL     1       7.639  -2.233  23.114  0.00  0.00    -0.385 OA
ATOM      8  H   UNL     1       6.865  -1.971  23.653  0.00  0.00    +0.210 HD
ENDBRANCH   5   7
BRANCH   4   9
ATOM      9  O   UNL     1      10.122  -1.896  22.366  0.00  0.00    -0.386 OA
ATOM     10  H   UNL     1      10.811  -2.532  22.082  0.00  0.00    +0.210 HD
ENDBRANCH   4   9
BRANCH   6  11
ATOM     11  O   UNL     1       8.184  -4.341  26.174  0.00  0.00    -0.449 OA
BRANCH  11  12
ATOM     12  C   UNL     1       7.245  -5.237  26.654  0.00  0.00    +0.340 C 
ATOM     13  O   UNL     1       7.291  -5.686  27.791  0.00  0.00    -0.245 OA
BRANCH  12  14
ATOM     14  C   UNL     1       6.080  -5.672  25.665  0.00  0.00    +0.066 A 
ATOM     15  C   UNL     1       5.813  -4.978  24.470  0.00  0.00    +0.064 A 
ATOM     16  C   UNL     1       4.750  -5.361  23.618  0.00  0.00    +0.163 A 
ATOM     17  C   UNL     1       3.922  -6.437  23.906  0.00  0.00    +0.201 A 
ATOM     18  C   UNL     1       4.137  -7.147  25.074  0.00  0.00    +0.163 A 
ATOM     19  C   UNL     1       5.186  -6.768  25.960  0.00  0.00    +0.064 A 
BRANCH  18  20
ATOM     20  O   UNL     1       3.284  -8.200  25.286  0.00  0.00    -0.503 OA
ATOM     21  H   UNL     1       2.577  -8.192  24.619  0.00  0.00    +0.292 HD
ENDBRANCH  18  20
BRANCH  17  22
ATOM     22  O   UNL     1       2.927  -6.778  23.024  0.00  0.00    -0.501 OA
ATOM     23  H   UNL     1       3.355  -6.829  22.143  0.00  0.00    +0.292 HD
ENDBRANCH  17  22
BRANCH  16  24
ATOM     24  O   UNL     1       4.510  -4.666  22.462  0.00  0.00    -0.503 OA
ATOM     25  H   UNL     1       3.980  -5.277  21.904  0.00  0.00    +0.292 HD
ENDBRANCH  16  24
ENDBRANCH  12  14
ENDBRANCH  11  12
ENDBRANCH   6  11
BRANCH   3  26
ATOM     26  C   UNL     1       9.782   0.561  23.815  0.00  0.00    +0.266 C 
BRANCH  26  27
ATOM     27  O   UNL     1       8.543   0.653  23.037  0.00  0.00    -0.458 OA
BRANCH  27  28
ATOM     28  C   UNL     1       8.455   1.654  22.114  0.00  0.00    +0.340 C 
ATOM     29  O   UNL     1       9.166   1.737  21.121  0.00  0.00    -0.245 OA
BRANCH  28  30
ATOM     30  C   UNL     1       7.361   2.654  22.366  0.00  0.00    +0.066 A 
ATOM     31  C   UNL     1       7.598   4.034  22.424  0.00  0.00    +0.064 A 
ATOM     32  C   UNL     1       6.531   4.908  22.649  0.00  0.00    +0.163 A 
ATOM     33  C   UNL     1       5.237   4.427  22.825  0.00  0.00    +0.201 A 
ATOM     34  C   UNL     1       4.988   3.064  22.797  0.00  0.00    +0.163 A 
ATOM     35  C   UNL     1       6.038   2.175  22.569  0.00  0.00    +0.064 A 
BRANCH  34  36
ATOM     36  O   UNL     1       3.698   2.651  23.002  0.00  0.00    -0.503 OA
ATOM     37  H   UNL     1       3.440   2.066  22.268  0.00  0.00    +0.292 HD
ENDBRANCH  34  36
BRANCH  33  38
ATOM     38  O   UNL     1       4.218   5.320  23.030  0.00  0.00    -0.501 OA
ATOM     39  H   UNL     1       3.661   5.242  22.227  0.00  0.00    +0.292 HD
ENDBRANCH  33  38
BRANCH  32  40
ATOM     40  O   UNL     1       6.755   6.256  22.697  0.00  0.00    -0.503 OA
ATOM     41  H   UNL     1       5.861   6.658  22.703  0.00  0.00    +0.292 HD
ENDBRANCH  32  40
ENDBRANCH  28  30
ENDBRANCH  27  28
ENDBRANCH  26  27
ENDBRANCH   3  26
BRANCH   1  42
ATOM     42  O   UNL     1       6.940  -0.852  25.343  0.00  0.00    -0.452 OA
BRANCH  42  53
ATOM     43  C   UNL     1       4.759  -0.527  26.385  0.00  0.00    +0.181 A 
ATOM     44  O   UNL     1       3.698   0.318  26.726  0.00  0.00    -0.451 OA
ATOM     45  C   UNL     1       3.828   1.670  26.675  0.00  0.00    +0.147 A 
ATOM     46  C   UNL     1       5.031   2.282  26.381  0.00  0.00    +0.109 A 
ATOM     47  C   UNL     1       5.111   3.676  26.446  0.00  0.00    +0.135 A 
ATOM     48  C   UNL     1       3.987   4.446  26.775  0.00  0.00    +0.091 A 
ATOM     49  C   UNL     1       2.781   3.812  27.032  0.00  0.00    +0.124 A 
ATOM     50  C   UNL     1       6.166   1.427  25.995  0.00  0.00    +0.238 A 
ATOM     51  O   UNL     1       7.227   1.968  25.691  0.00  0.00    -0.283 OA
ATOM     52  C   UNL     1       2.693   2.428  26.979  0.00  0.00    +0.092 A 
ATOM     53  C   UNL     1       5.977  -0.064  25.969  0.00  0.00    +0.214 A 
BRANCH  43  55
ATOM     54  C   UNL     1       3.224  -2.484  25.847  0.00  0.00    +0.015 A 
ATOM     55  C   UNL     1       4.295  -1.947  26.622  0.00  0.00    +0.025 A 
ATOM     56  C   UNL     1       4.711  -2.722  27.705  0.00  0.00    +0.060 A 
ATOM     57  C   UNL     1       4.082  -3.934  28.015  0.00  0.00    +0.159 A 
ATOM     58  C   UNL     1       2.988  -4.387  27.281  0.00  0.00    +0.158 A 
ATOM     59  C   UNL     1       2.558  -3.679  26.177  0.00  0.00    +0.050 A 
BRANCH  58  60
ATOM     60  O   UNL     1       2.352  -5.525  27.709  0.00  0.00    -0.503 OA
ATOM     61  H   UNL     1       1.871  -5.916  26.959  0.00  0.00    +0.292 HD
ENDBRANCH  58  60
BRANCH  57  62
ATOM     62  O   UNL     1       4.506  -4.649  29.099  0.00  0.00    -0.503 OA
ATOM     63  H   UNL     1       4.317  -4.069  29.865  0.00  0.00    +0.292 HD
ENDBRANCH  57  62
ENDBRANCH  43  55
BRANCH  49  64
ATOM     64  O   UNL     1       1.664   4.509  27.370  0.00  0.00    -0.507 OA
ATOM     65  H   UNL     1       1.897   5.448  27.455  0.00  0.00    +0.292 HD
ENDBRANCH  49  64
BRANCH  47  66
ATOM     66  O   UNL     1       6.276   4.365  26.216  0.00  0.00    -0.506 OA
ATOM     67  H   UNL     1       6.937   4.069  26.882  0.00  0.00    +0.292 HD
ENDBRANCH  47  66
ENDBRANCH  42  53
ENDBRANCH   1  42
TORSDOF 22
ENDMDL
MODEL 6
REMARK VINA RESULT:      -7.1      1.946      9.028
REMARK  Name = 
REMARK  22 active torsions:
REMARK  status: ('A' for Active; 'I' for Inactive)
REMARK    1  A    between atoms: C_3  and  O_60
REMARK    2  A    between atoms: C_4  and  O_59
REMARK    3  A    between atoms: C_6  and  C_7
REMARK    4  A    between atoms: C_8  and  O_20
REMARK    5  A    between atoms: C_12  and  O_19
REMARK    6  A    between atoms: C_14  and  O_18
REMARK    7  A    between atoms: O_20  and  C_21
REMARK    8  A    between atoms: C_23  and  O_47
REMARK    9  A    between atoms: C_25  and  O_46
REMARK   10  A    between atoms: C_27  and  O_45
REMARK   11  A    between atoms: C_29  and  C_32
REMARK   12  A    between atoms: C_32  and  O_33
REMARK   13  A    between atoms: O_33  and  C_34
REMARK   14  A    between atoms: C_34  and  C_36
REMARK   15  A    between atoms: C_38  and  O_44
REMARK   16  A    between atoms: C_39  and  O_43
REMARK   17  A    between atoms: C_40  and  O_42
REMARK   18  A    between atoms: O_47  and  C_48
REMARK   19  A    between atoms: C_48  and  C_50
REMARK   20  A    between atoms: C_52  and  O_58
REMARK   21  A    between atoms: C_53  and  O_57
REMARK   22  A    between atoms: C_54  and  O_56
REMARK                            x       y       z     vdW  Elec       q    Type
REMARK                         _______ _______ _______ _____ _____    ______ ____
ROOT
ATOM      1  C   UNL     1       5.997   0.103  26.835  0.00  0.00    +0.352 C 
ATOM      2  O   UNL     1       5.355  -0.373  28.044  0.00  0.00    -0.329 OA
ATOM      3  C   UNL     1       4.051   0.081  28.478  0.00  0.00    +0.191 C 
ATOM      4  C   UNL     1       3.840   1.593  28.271  0.00  0.00    +0.179 C 
ATOM      5  C   UNL     1       4.548   2.179  27.031  0.00  0.00    +0.192 C 
ATOM      6  C   UNL     1       6.007   1.679  26.724  0.00  0.00    +0.276 C 
ENDROOT
BRANCH   5   7
ATOM      7  O   UNL     1       3.666   1.827  25.921  0.00  0.00    -0.385 OA
ATOM      8  H   UNL     1       3.810   2.467  25.194  0.00  0.00    +0.210 HD
ENDBRANCH   5   7
BRANCH   4   9
ATOM      9  O   UNL     1       2.441   1.929  28.229  0.00  0.00    -0.386 OA
ATOM     10  H   UNL     1       2.037   1.556  29.040  0.00  0.00    +0.210 HD
ENDBRANCH   4   9
BRANCH   6  11
ATOM     11  O   UNL     1       7.157   2.661  27.026  0.00  0.00    -0.449 OA
BRANCH  11  12
ATOM     12  C   UNL     1       7.269   4.027  26.834  0.00  0.00    +0.340 C 
ATOM     13  O   UNL     1       7.315   4.817  27.767  0.00  0.00    -0.245 OA
BRANCH  12  14
ATOM     14  C   UNL     1       7.341   4.550  25.335  0.00  0.00    +0.066 A 
ATOM     15  C   UNL     1       8.536   5.025  24.763  0.00  0.00    +0.064 A 
ATOM     16  C   UNL     1       8.572   5.517  23.437  0.00  0.00    +0.163 A 
ATOM     17  C   UNL     1       7.443   5.552  22.629  0.00  0.00    +0.201 A 
ATOM     18  C   UNL     1       6.242   5.105  23.148  0.00  0.00    +0.163 A 
ATOM     19  C   UNL     1       6.173   4.626  24.488  0.00  0.00    +0.064 A 
BRANCH  18  20
ATOM     20  O   UNL     1       5.174   5.163  22.288  0.00  0.00    -0.503 OA
ATOM     21  H   UNL     1       4.343   5.156  22.793  0.00  0.00    +0.292 HD
ENDBRANCH  18  20
BRANCH  17  22
ATOM     22  O   UNL     1       7.550   6.012  21.340  0.00  0.00    -0.501 OA
ATOM     23  H   UNL     1       7.096   6.881  21.326  0.00  0.00    +0.292 HD
ENDBRANCH  17  22
BRANCH  16  24
ATOM     24  O   UNL     1       9.748   5.978  22.905  0.00  0.00    -0.503 OA
ATOM     25  H   UNL     1      10.137   5.204  22.440  0.00  0.00    +0.292 HD
ENDBRANCH  16  24
ENDBRANCH  12  14
ENDBRANCH  11  12
ENDBRANCH   6  11
BRANCH   3  26
ATOM     26  C   UNL     1       2.887  -0.907  28.114  0.00  0.00    +0.266 C 
BRANCH  26  27
ATOM     27  O   UNL     1       2.527  -1.860  29.167  0.00  0.00    -0.458 OA
BRANCH  27  28
ATOM     28  C   UNL     1       2.007  -3.059  28.776  0.00  0.00    +0.340 C 
ATOM     29  O   UNL     1       0.845  -3.222  28.425  0.00  0.00    -0.245 OA
BRANCH  28  30
ATOM     30  C   UNL     1       2.988  -4.198  28.747  0.00  0.00    +0.066 A 
ATOM     31  C   UNL     1       4.115  -4.245  29.578  0.00  0.00    +0.064 A 
ATOM     32  C   UNL     1       4.979  -5.341  29.506  0.00  0.00    +0.163 A 
ATOM     33  C   UNL     1       4.742  -6.382  28.615  0.00  0.00    +0.201 A 
ATOM     34  C   UNL     1       3.647  -6.340  27.765  0.00  0.00    +0.163 A 
ATOM     35  C   UNL     1       2.769  -5.257  27.825  0.00  0.00    +0.064 A 
BRANCH  34  36
ATOM     36  O   UNL     1       3.481  -7.382  26.893  0.00  0.00    -0.503 OA
ATOM     37  H   UNL     1       3.324  -8.194  27.406  0.00  0.00    +0.292 HD
ENDBRANCH  34  36
BRANCH  33  38
ATOM     38  O   UNL     1       5.607  -7.444  28.587  0.00  0.00    -0.501 OA
ATOM     39  H   UNL     1       5.047  -8.208  28.334  0.00  0.00    +0.292 HD
ENDBRANCH  33  38
BRANCH  32  40
ATOM     40  O   UNL     1       6.074  -5.397  30.323  0.00  0.00    -0.503 OA
ATOM     41  H   UNL     1       6.824  -5.119  29.756  0.00  0.00    +0.292 HD
ENDBRANCH  32  40
ENDBRANCH  28  30
ENDBRANCH  27  28
ENDBRANCH  26  27
ENDBRANCH   3  26
BRANCH   1  42
ATOM     42  O   UNL     1       5.291  -0.324  25.605  0.00  0.00    -0.452 OA
BRANCH  42  53
ATOM     43  C   UNL     1       6.630  -1.056  23.704  0.00  0.00    +0.181 A 
ATOM     44  O   UNL     1       6.848  -1.956  22.656  0.00  0.00    -0.451 OA
ATOM     45  C   UNL     1       6.199  -3.149  22.604  0.00  0.00    +0.147 A 
ATOM     46  C   UNL     1       5.370  -3.580  23.622  0.00  0.00    +0.109 A 
ATOM     47  C   UNL     1       4.818  -4.862  23.543  0.00  0.00    +0.135 A 
ATOM     48  C   UNL     1       5.074  -5.688  22.441  0.00  0.00    +0.091 A 
ATOM     49  C   UNL     1       5.881  -5.222  21.415  0.00  0.00    +0.124 A 
ATOM     50  C   UNL     1       5.098  -2.651  24.732  0.00  0.00    +0.238 A 
ATOM     51  O   UNL     1       4.328  -3.012  25.619  0.00  0.00    -0.283 OA
ATOM     52  C   UNL     1       6.441  -3.955  21.487  0.00  0.00    +0.092 A 
ATOM     53  C   UNL     1       5.754  -1.299  24.725  0.00  0.00    +0.214 A 
BRANCH  43  55
ATOM     54  C   UNL     1       7.307   1.032  22.415  0.00  0.00    +0.015 A 
ATOM     55  C   UNL     1       7.556   0.120  23.485  0.00  0.00    +0.025 A 
ATOM     56  C   UNL     1       8.780   0.268  24.140  0.00  0.00    +0.060 A 
ATOM     57  C   UNL     1       9.705   1.238  23.736  0.00  0.00    +0.159 A 
ATOM     58  C   UNL     1       9.459   2.059  22.638  0.00  0.00    +0.158 A 
ATOM     59  C   UNL     1       8.250   1.981  21.977  0.00  0.00    +0.050 A 
BRANCH  58  60
ATOM     60  O   UNL     1      10.457   2.909  22.232  0.00  0.00    -0.503 OA
ATOM     61  H   UNL     1      10.166   3.372  21.427  0.00  0.00    +0.292 HD
ENDBRANCH  58  60
BRANCH  57  62
ATOM     62  O   UNL     1      10.901   1.333  24.391  0.00  0.00    -0.503 OA
ATOM     63  H   UNL     1      11.439   1.933  23.834  0.00  0.00    +0.292 HD
ENDBRANCH  57  62
ENDBRANCH  43  55
BRANCH  49  64
ATOM     64  O   UNL     1       6.173  -5.988  20.331  0.00  0.00    -0.507 OA
ATOM     65  H   UNL     1       6.421  -6.876  20.634  0.00  0.00    +0.292 HD
ENDBRANCH  49  64
BRANCH  47  66
ATOM     66  O   UNL     1       4.022  -5.389  24.530  0.00  0.00    -0.506 OA
ATOM     67  H   UNL     1       3.475  -6.101  24.128  0.00  0.00    +0.292 HD
ENDBRANCH  47  66
ENDBRANCH  42  53
ENDBRANCH   1  42
TORSDOF 22
ENDMDL
MODEL 7
REMARK VINA RESULT:      -7.0      1.796      8.176
REMARK  Name = 
REMARK  22 active torsions:
REMARK  status: ('A' for Active; 'I' for Inactive)
REMARK    1  A    between atoms: C_3  and  O_60
REMARK    2  A    between atoms: C_4  and  O_59
REMARK    3  A    between atoms: C_6  and  C_7
REMARK    4  A    between atoms: C_8  and  O_20
REMARK    5  A    between atoms: C_12  and  O_19
REMARK    6  A    between atoms: C_14  and  O_18
REMARK    7  A    between atoms: O_20  and  C_21
REMARK    8  A    between atoms: C_23  and  O_47
REMARK    9  A    between atoms: C_25  and  O_46
REMARK   10  A    between atoms: C_27  and  O_45
REMARK   11  A    between atoms: C_29  and  C_32
REMARK   12  A    between atoms: C_32  and  O_33
REMARK   13  A    between atoms: O_33  and  C_34
REMARK   14  A    between atoms: C_34  and  C_36
REMARK   15  A    between atoms: C_38  and  O_44
REMARK   16  A    between atoms: C_39  and  O_43
REMARK   17  A    between atoms: C_40  and  O_42
REMARK   18  A    between atoms: O_47  and  C_48
REMARK   19  A    between atoms: C_48  and  C_50
REMARK   20  A    between atoms: C_52  and  O_58
REMARK   21  A    between atoms: C_53  and  O_57
REMARK   22  A    between atoms: C_54  and  O_56
REMARK                            x       y       z     vdW  Elec       q    Type
REMARK                         _______ _______ _______ _____ _____    ______ ____
ROOT
ATOM      1  C   UNL     1       5.836   0.629  26.313  0.00  0.00    +0.352 C 
ATOM      2  O   UNL     1       6.041  -0.256  27.442  0.00  0.00    -0.329 OA
ATOM      3  C   UNL     1       4.957  -0.758  28.261  0.00  0.00    +0.191 C 
ATOM      4  C   UNL     1       3.878   0.303  28.548  0.00  0.00    +0.179 C 
ATOM      5  C   UNL     1       3.651   1.317  27.407  0.00  0.00    +0.192 C 
ATOM      6  C   UNL     1       4.921   1.868  26.661  0.00  0.00    +0.276 C 
ENDROOT
BRANCH   5   7
ATOM      7  O   UNL     1       2.800   0.600  26.461  0.00  0.00    -0.385 OA
ATOM      8  H   UNL     1       2.999  -0.357  26.525  0.00  0.00    +0.210 HD
ENDBRANCH   5   7
BRANCH   4   9
ATOM      9  O   UNL     1       2.624  -0.304  28.908  0.00  0.00    -0.386 OA
ATOM     10  H   UNL     1       2.768  -1.273  28.904  0.00  0.00    +0.210 HD
ENDBRANCH   4   9
BRANCH   6  11
ATOM     11  O   UNL     1       5.338   3.319  26.976  0.00  0.00    -0.449 OA
BRANCH  11  12
ATOM     12  C   UNL     1       6.532   3.992  26.778  0.00  0.00    +0.340 C 
ATOM     13  O   UNL     1       7.347   4.154  27.675  0.00  0.00    -0.245 OA
BRANCH  12  14
ATOM     14  C   UNL     1       6.816   4.559  25.321  0.00  0.00    +0.066 A 
ATOM     15  C   UNL     1       5.784   4.784  24.390  0.00  0.00    +0.064 A 
ATOM     16  C   UNL     1       6.061   5.257  23.086  0.00  0.00    +0.163 A 
ATOM     17  C   UNL     1       7.353   5.530  22.656  0.00  0.00    +0.201 A 
ATOM     18  C   UNL     1       8.402   5.317  23.530  0.00  0.00    +0.163 A 
ATOM     19  C   UNL     1       8.154   4.819  24.842  0.00  0.00    +0.064 A 
BRANCH  18  20
ATOM     20  O   UNL     1       9.648   5.617  23.037  0.00  0.00    -0.503 OA
ATOM     21  H   UNL     1       9.810   6.572  23.111  0.00  0.00    +0.292 HD
ENDBRANCH  18  20
BRANCH  17  22
ATOM     22  O   UNL     1       7.553   6.018  21.388  0.00  0.00    -0.501 OA
ATOM     23  H   UNL     1       7.342   5.278  20.780  0.00  0.00    +0.292 HD
ENDBRANCH  17  22
BRANCH  16  24
ATOM     24  O   UNL     1       5.039   5.464  22.197  0.00  0.00    -0.503 OA
ATOM     25  H   UNL     1       4.405   4.732  22.364  0.00  0.00    +0.292 HD
ENDBRANCH  16  24
ENDBRANCH  12  14
ENDBRANCH  11  12
ENDBRANCH   6  11
BRANCH   3  26
ATOM     26  C   UNL     1       4.511  -2.216  27.888  0.00  0.00    +0.266 C 
BRANCH  26  27
ATOM     27  O   UNL     1       5.336  -3.285  28.457  0.00  0.00    -0.458 OA
BRANCH  27  28
ATOM     28  C   UNL     1       5.626  -4.348  27.653  0.00  0.00    +0.340 C 
ATOM     29  O   UNL     1       4.977  -5.386  27.626  0.00  0.00    -0.245 OA
BRANCH  28  30
ATOM     30  C   UNL     1       6.797  -4.146  26.732  0.00  0.00    +0.066 A 
ATOM     31  C   UNL     1       7.179  -5.097  25.776  0.00  0.00    +0.064 A 
ATOM     32  C   UNL     1       8.270  -4.838  24.943  0.00  0.00    +0.163 A 
ATOM     33  C   UNL     1       8.989  -3.652  25.055  0.00  0.00    +0.201 A 
ATOM     34  C   UNL     1       8.643  -2.711  26.012  0.00  0.00    +0.163 A 
ATOM     35  C   UNL     1       7.554  -2.948  26.850  0.00  0.00    +0.064 A 
BRANCH  34  36
ATOM     36  O   UNL     1       9.405  -1.575  26.090  0.00  0.00    -0.503 OA
ATOM     37  H   UNL     1       9.018  -0.902  25.502  0.00  0.00    +0.292 HD
ENDBRANCH  34  36
BRANCH  33  38
ATOM     38  O   UNL     1      10.045  -3.432  24.209  0.00  0.00    -0.501 OA
ATOM     39  H   UNL     1       9.821  -2.593  23.752  0.00  0.00    +0.292 HD
ENDBRANCH  33  38
BRANCH  32  40
ATOM     40  O   UNL     1       8.641  -5.757  24.002  0.00  0.00    -0.503 OA
ATOM     41  H   UNL     1       8.141  -6.568  24.232  0.00  0.00    +0.292 HD
ENDBRANCH  32  40
ENDBRANCH  28  30
ENDBRANCH  27  28
ENDBRANCH  26  27
ENDBRANCH   3  26
BRANCH   1  42
ATOM     42  O   UNL     1       5.118  -0.027  25.195  0.00  0.00    -0.452 OA
BRANCH  42  53
ATOM     43  C   UNL     1       6.623  -0.918  23.496  0.00  0.00    +0.181 A 
ATOM     44  O   UNL     1       6.914  -1.886  22.530  0.00  0.00    -0.451 OA
ATOM     45  C   UNL     1       6.226  -3.057  22.474  0.00  0.00    +0.147 A 
ATOM     46  C   UNL     1       5.274  -3.396  23.416  0.00  0.00    +0.109 A 
ATOM     47  C   UNL     1       4.681  -4.660  23.349  0.00  0.00    +0.135 A 
ATOM     48  C   UNL     1       5.019  -5.560  22.329  0.00  0.00    +0.091 A 
ATOM     49  C   UNL     1       5.951  -5.184  21.374  0.00  0.00    +0.124 A 
ATOM     50  C   UNL     1       4.923  -2.394  24.437  0.00  0.00    +0.238 A 
ATOM     51  O   UNL     1       4.048  -2.674  25.252  0.00  0.00    -0.283 OA
ATOM     52  C   UNL     1       6.553  -3.936  21.436  0.00  0.00    +0.092 A 
ATOM     53  C   UNL     1       5.632  -1.068  24.427  0.00  0.00    +0.214 A 
BRANCH  43  55
ATOM     54  C   UNL     1       7.421   1.168  22.276  0.00  0.00    +0.015 A 
ATOM     55  C   UNL     1       7.615   0.209  23.315  0.00  0.00    +0.025 A 
ATOM     56  C   UNL     1       8.844   0.266  23.975  0.00  0.00    +0.060 A 
ATOM     57  C   UNL     1       9.825   1.193  23.603  0.00  0.00    +0.159 A 
ATOM     58  C   UNL     1       9.628   2.062  22.532  0.00  0.00    +0.158 A 
ATOM     59  C   UNL     1       8.417   2.075  21.869  0.00  0.00    +0.050 A 
BRANCH  58  60
ATOM     60  O   UNL     1      10.674   2.866  22.154  0.00  0.00    -0.503 OA
ATOM     61  H   UNL     1      10.558   3.743  22.562  0.00  0.00    +0.292 HD
ENDBRANCH  58  60
BRANCH  57  62
ATOM     62  O   UNL     1      11.022   1.198  24.260  0.00  0.00    -0.503 OA
ATOM     63  H   UNL     1      10.782   1.213  25.210  0.00  0.00    +0.292 HD
ENDBRANCH  57  62
ENDBRANCH  43  55
BRANCH  49  64
ATOM     64  O   UNL     1       6.326  -6.023  20.372  0.00  0.00    -0.507 OA
ATOM     65  H   UNL     1       6.966  -5.565  19.804  0.00  0.00    +0.292 HD
ENDBRANCH  49  64
BRANCH  47  66
ATOM     66  O   UNL     1       3.762  -5.099  24.270  0.00  0.00    -0.506 OA
ATOM     67  H   UNL     1       3.202  -5.781  23.835  0.00  0.00    +0.292 HD
ENDBRANCH  47  66
ENDBRANCH  42  53
ENDBRANCH   1  42
TORSDOF 22
ENDMDL
MODEL 8
REMARK VINA RESULT:      -6.9      2.656      7.677
REMARK  Name = 
REMARK  22 active torsions:
REMARK  status: ('A' for Active; 'I' for Inactive)
REMARK    1  A    between atoms: C_3  and  O_60
REMARK    2  A    between atoms: C_4  and  O_59
REMARK    3  A    between atoms: C_6  and  C_7
REMARK    4  A    between atoms: C_8  and  O_20
REMARK    5  A    between atoms: C_12  and  O_19
REMARK    6  A    between atoms: C_14  and  O_18
REMARK    7  A    between atoms: O_20  and  C_21
REMARK    8  A    between atoms: C_23  and  O_47
REMARK    9  A    between atoms: C_25  and  O_46
REMARK   10  A    between atoms: C_27  and  O_45
REMARK   11  A    between atoms: C_29  and  C_32
REMARK   12  A    between atoms: C_32  and  O_33
REMARK   13  A    between atoms: O_33  and  C_34
REMARK   14  A    between atoms: C_34  and  C_36
REMARK   15  A    between atoms: C_38  and  O_44
REMARK   16  A    between atoms: C_39  and  O_43
REMARK   17  A    between atoms: C_40  and  O_42
REMARK   18  A    between atoms: O_47  and  C_48
REMARK   19  A    between atoms: C_48  and  C_50
REMARK   20  A    between atoms: C_52  and  O_58
REMARK   21  A    between atoms: C_53  and  O_57
REMARK   22  A    between atoms: C_54  and  O_56
REMARK                            x       y       z     vdW  Elec       q    Type
REMARK                         _______ _______ _______ _____ _____    ______ ____
ROOT
ATOM      1  C   UNL     1       5.705   1.069  24.633  0.00  0.00    +0.352 C 
ATOM      2  O   UNL     1       4.715   2.015  24.160  0.00  0.00    -0.329 OA
ATOM      3  C   UNL     1       3.908   2.826  25.047  0.00  0.00    +0.191 C 
ATOM      4  C   UNL     1       3.421   2.057  26.290  0.00  0.00    +0.179 C 
ATOM      5  C   UNL     1       4.405   0.989  26.812  0.00  0.00    +0.192 C 
ATOM      6  C   UNL     1       5.145   0.099  25.748  0.00  0.00    +0.276 C 
ENDROOT
BRANCH   5   7
ATOM      7  O   UNL     1       5.385   1.756  27.577  0.00  0.00    -0.385 OA
ATOM      8  H   UNL     1       6.278   1.411  27.373  0.00  0.00    +0.210 HD
ENDBRANCH   5   7
BRANCH   4   9
ATOM      9  O   UNL     1       3.072   2.953  27.360  0.00  0.00    -0.386 OA
ATOM     10  H   UNL     1       3.222   3.863  27.027  0.00  0.00    +0.210 HD
ENDBRANCH   4   9
BRANCH   6  11
ATOM     11  O   UNL     1       4.668  -1.360  25.607  0.00  0.00    -0.449 OA
BRANCH  11  12
ATOM     12  C   UNL     1       5.324  -2.562  25.807  0.00  0.00    +0.340 C 
ATOM     13  O   UNL     1       5.886  -2.833  26.859  0.00  0.00    -0.245 OA
BRANCH  12  14
ATOM     14  C   UNL     1       5.323  -3.602  24.605  0.00  0.00    +0.066 A 
ATOM     15  C   UNL     1       5.515  -3.203  23.269  0.00  0.00    +0.064 A 
ATOM     16  C   UNL     1       5.477  -4.139  22.209  0.00  0.00    +0.163 A 
ATOM     17  C   UNL     1       5.259  -5.494  22.425  0.00  0.00    +0.201 A 
ATOM     18  C   UNL     1       5.056  -5.935  23.719  0.00  0.00    +0.163 A 
ATOM     19  C   UNL     1       5.066  -5.010  24.803  0.00  0.00    +0.064 A 
BRANCH  18  20
ATOM     20  O   UNL     1       4.855  -7.286  23.854  0.00  0.00    -0.503 OA
ATOM     21  H   UNL     1       4.040  -7.449  24.357  0.00  0.00    +0.292 HD
ENDBRANCH  18  20
BRANCH  17  22
ATOM     22  O   UNL     1       5.266  -6.356  21.357  0.00  0.00    -0.501 OA
ATOM     23  H   UNL     1       4.907  -7.204  21.694  0.00  0.00    +0.292 HD
ENDBRANCH  17  22
BRANCH  16  24
ATOM     24  O   UNL     1       5.663  -3.724  20.916  0.00  0.00    -0.503 OA
ATOM     25  H   UNL     1       5.429  -2.770  20.920  0.00  0.00    +0.292 HD
ENDBRANCH  16  24
ENDBRANCH  12  14
ENDBRANCH  11  12
ENDBRANCH   6  11
BRANCH   3  26
ATOM     26  C   UNL     1       4.441   4.292  25.218  0.00  0.00    +0.266 C 
BRANCH  26  27
ATOM     27  O   UNL     1       3.997   5.241  24.194  0.00  0.00    -0.458 OA
BRANCH  27  28
ATOM     28  C   UNL     1       2.683   5.197  23.826  0.00  0.00    +0.340 C 
ATOM     29  O   UNL     1       1.754   5.508  24.559  0.00  0.00    -0.245 OA
BRANCH  28  30
ATOM     30  C   UNL     1       2.437   4.782  22.402  0.00  0.00    +0.066 A 
ATOM     31  C   UNL     1       2.505   5.682  21.330  0.00  0.00    +0.064 A 
ATOM     32  C   UNL     1       2.276   5.225  20.030  0.00  0.00    +0.163 A 
ATOM     33  C   UNL     1       1.973   3.889  19.784  0.00  0.00    +0.201 A 
ATOM     34  C   UNL     1       1.874   2.990  20.834  0.00  0.00    +0.163 A 
ATOM     35  C   UNL     1       2.104   3.425  22.139  0.00  0.00    +0.064 A 
BRANCH  34  36
ATOM     36  O   UNL     1       1.547   1.695  20.531  0.00  0.00    -0.503 OA
ATOM     37  H   UNL     1       1.457   1.195  21.362  0.00  0.00    +0.292 HD
ENDBRANCH  34  36
BRANCH  33  38
ATOM     38  O   UNL     1       1.769   3.480  18.492  0.00  0.00    -0.501 OA
ATOM     39  H   UNL     1       0.878   3.069  18.505  0.00  0.00    +0.292 HD
ENDBRANCH  33  38
BRANCH  32  40
ATOM     40  O   UNL     1       2.352   6.096  18.979  0.00  0.00    -0.503 OA
ATOM     41  H   UNL     1       3.259   5.983  18.625  0.00  0.00    +0.292 HD
ENDBRANCH  32  40
ENDBRANCH  28  30
ENDBRANCH  27  28
ENDBRANCH  26  27
ENDBRANCH   3  26
BRANCH   1  42
ATOM     42  O   UNL     1       6.855   1.727  25.295  0.00  0.00    -0.452 OA
BRANCH  42  53
ATOM     43  C   UNL     1       9.067   1.435  24.311  0.00  0.00    +0.181 A 
ATOM     44  O   UNL     1      10.298   1.975  23.930  0.00  0.00    -0.451 OA
ATOM     45  C   UNL     1      10.484   3.318  23.840  0.00  0.00    +0.147 A 
ATOM     46  C   UNL     1       9.450   4.216  24.026  0.00  0.00    +0.109 A 
ATOM     47  C   UNL     1       9.694   5.577  23.818  0.00  0.00    +0.135 A 
ATOM     48  C   UNL     1      10.970   6.031  23.458  0.00  0.00    +0.091 A 
ATOM     49  C   UNL     1      12.001   5.115  23.313  0.00  0.00    +0.124 A 
ATOM     50  C   UNL     1       8.142   3.688  24.451  0.00  0.00    +0.238 A 
ATOM     51  O   UNL     1       7.231   4.485  24.657  0.00  0.00    -0.283 OA
ATOM     52  C   UNL     1      11.767   3.762  23.507  0.00  0.00    +0.092 A 
ATOM     53  C   UNL     1       7.982   2.204  24.632  0.00  0.00    +0.214 A 
BRANCH  43  55
ATOM     54  C   UNL     1       9.275  -0.714  22.965  0.00  0.00    +0.015 A 
ATOM     55  C   UNL     1       9.194  -0.071  24.236  0.00  0.00    +0.025 A 
ATOM     56  C   UNL     1       9.028  -0.913  25.336  0.00  0.00    +0.060 A 
ATOM     57  C   UNL     1       8.919  -2.300  25.178  0.00  0.00    +0.159 A 
ATOM     58  C   UNL     1       8.926  -2.885  23.914  0.00  0.00    +0.158 A 
ATOM     59  C   UNL     1       9.125  -2.103  22.794  0.00  0.00    +0.050 A 
BRANCH  58  60
ATOM     60  O   UNL     1       8.703  -4.237  23.829  0.00  0.00    -0.503 OA
ATOM     61  H   UNL     1       8.345  -4.440  22.947  0.00  0.00    +0.292 HD
ENDBRANCH  58  60
BRANCH  57  62
ATOM     62  O   UNL     1       8.735  -3.085  26.281  0.00  0.00    -0.503 OA
ATOM     63  H   UNL     1       9.297  -2.676  26.971  0.00  0.00    +0.292 HD
ENDBRANCH  57  62
ENDBRANCH  43  55
BRANCH  49  64
ATOM     64  O   UNL     1      13.253   5.500  22.950  0.00  0.00    -0.507 OA
ATOM     65  H   UNL     1      13.663   5.971  23.695  0.00  0.00    +0.292 HD
ENDBRANCH  49  64
BRANCH  47  66
ATOM     66  O   UNL     1       8.716   6.533  23.933  0.00  0.00    -0.506 OA
ATOM     67  H   UNL     1       8.111   6.440  23.163  0.00  0.00    +0.292 HD
ENDBRANCH  47  66
ENDBRANCH  42  53
ENDBRANCH   1  42
TORSDOF 22
ENDMDL
MODEL 9
REMARK VINA RESULT:      -6.9      2.069      8.277
REMARK  Name = 
REMARK  22 active torsions:
REMARK  status: ('A' for Active; 'I' for Inactive)
REMARK    1  A    between atoms: C_3  and  O_60
REMARK    2  A    between atoms: C_4  and  O_59
REMARK    3  A    between atoms: C_6  and  C_7
REMARK    4  A    between atoms: C_8  and  O_20
REMARK    5  A    between atoms: C_12  and  O_19
REMARK    6  A    between atoms: C_14  and  O_18
REMARK    7  A    between atoms: O_20  and  C_21
REMARK    8  A    between atoms: C_23  and  O_47
REMARK    9  A    between atoms: C_25  and  O_46
REMARK   10  A    between atoms: C_27  and  O_45
REMARK   11  A    between atoms: C_29  and  C_32
REMARK   12  A    between atoms: C_32  and  O_33
REMARK   13  A    between atoms: O_33  and  C_34
REMARK   14  A    between atoms: C_34  and  C_36
REMARK   15  A    between atoms: C_38  and  O_44
REMARK   16  A    between atoms: C_39  and  O_43
REMARK   17  A    between atoms: C_40  and  O_42
REMARK   18  A    between atoms: O_47  and  C_48
REMARK   19  A    between atoms: C_48  and  C_50
REMARK   20  A    between atoms: C_52  and  O_58
REMARK   21  A    between atoms: C_53  and  O_57
REMARK   22  A    between atoms: C_54  and  O_56
REMARK                            x       y       z     vdW  Elec       q    Type
REMARK                         _______ _______ _______ _____ _____    ______ ____
ROOT
ATOM      1  C   UNL     1       6.315   1.188  27.188  0.00  0.00    +0.352 C 
ATOM      2  O   UNL     1       5.377   0.682  28.169  0.00  0.00    -0.329 OA
ATOM      3  C   UNL     1       3.952   0.588  27.926  0.00  0.00    +0.191 C 
ATOM      4  C   UNL     1       3.390   1.804  27.165  0.00  0.00    +0.179 C 
ATOM      5  C   UNL     1       4.363   2.431  26.144  0.00  0.00    +0.192 C 
ATOM      6  C   UNL     1       5.872   2.572  26.568  0.00  0.00    +0.276 C 
ENDROOT
BRANCH   5   7
ATOM      7  O   UNL     1       4.262   1.559  24.977  0.00  0.00    -0.385 OA
ATOM      8  H   UNL     1       4.858   0.793  25.108  0.00  0.00    +0.210 HD
ENDBRANCH   5   7
BRANCH   4   9
ATOM      9  O   UNL     1       2.148   1.489  26.512  0.00  0.00    -0.386 OA
ATOM     10  H   UNL     1       2.133   0.517  26.387  0.00  0.00    +0.210 HD
ENDBRANCH   4   9
BRANCH   6  11
ATOM     11  O   UNL     1       6.367   3.990  26.917  0.00  0.00    -0.449 OA
BRANCH  11  12
ATOM     12  C   UNL     1       5.927   5.239  26.515  0.00  0.00    +0.340 C 
ATOM     13  O   UNL     1       5.320   5.991  27.265  0.00  0.00    -0.245 OA
BRANCH  12  14
ATOM     14  C   UNL     1       6.242   5.677  25.020  0.00  0.00    +0.066 A 
ATOM     15  C   UNL     1       5.224   5.994  24.102  0.00  0.00    +0.064 A 
ATOM     16  C   UNL     1       5.524   6.350  22.766  0.00  0.00    +0.163 A 
ATOM     17  C   UNL     1       6.827   6.411  22.290  0.00  0.00    +0.201 A 
ATOM     18  C   UNL     1       7.863   6.099  23.151  0.00  0.00    +0.163 A 
ATOM     19  C   UNL     1       7.588   5.716  24.496  0.00  0.00    +0.064 A 
BRANCH  18  20
ATOM     20  O   UNL     1       9.122   6.191  22.612  0.00  0.00    -0.503 OA
ATOM     21  H   UNL     1       9.601   6.932  23.018  0.00  0.00    +0.292 HD
ENDBRANCH  18  20
BRANCH  17  22
ATOM     22  O   UNL     1       7.054   6.794  20.991  0.00  0.00    -0.501 OA
ATOM     23  H   UNL     1       7.504   7.663  21.042  0.00  0.00    +0.292 HD
ENDBRANCH  17  22
BRANCH  16  24
ATOM     24  O   UNL     1       4.513   6.651  21.890  0.00  0.00    -0.503 OA
ATOM     25  H   UNL     1       4.960   6.798  21.027  0.00  0.00    +0.292 HD
ENDBRANCH  16  24
ENDBRANCH  12  14
ENDBRANCH  11  12
ENDBRANCH   6  11
BRANCH   3  26
ATOM     26  C   UNL     1       3.477  -0.851  27.520  0.00  0.00    +0.266 C 
BRANCH  26  27
ATOM     27  O   UNL     1       3.626  -1.178  26.099  0.00  0.00    -0.458 OA
BRANCH  27  28
ATOM     28  C   UNL     1       3.060  -2.340  25.661  0.00  0.00    +0.340 C 
ATOM     29  O   UNL     1       1.869  -2.604  25.759  0.00  0.00    -0.245 OA
BRANCH  28  30
ATOM     30  C   UNL     1       4.006  -3.289  24.978  0.00  0.00    +0.066 A 
ATOM     31  C   UNL     1       4.061  -4.654  25.287  0.00  0.00    +0.064 A 
ATOM     32  C   UNL     1       4.956  -5.481  24.603  0.00  0.00    +0.163 A 
ATOM     33  C   UNL     1       5.802  -4.965  23.626  0.00  0.00    +0.201 A 
ATOM     34  C   UNL     1       5.782  -3.612  23.326  0.00  0.00    +0.163 A 
ATOM     35  C   UNL     1       4.891  -2.771  23.993  0.00  0.00    +0.064 A 
BRANCH  34  36
ATOM     36  O   UNL     1       6.656  -3.160  22.373  0.00  0.00    -0.503 OA
ATOM     37  H   UNL     1       7.382  -2.688  22.818  0.00  0.00    +0.292 HD
ENDBRANCH  34  36
BRANCH  33  38
ATOM     38  O   UNL     1       6.656  -5.813  22.970  0.00  0.00    -0.501 OA
ATOM     39  H   UNL     1       6.105  -6.597  22.758  0.00  0.00    +0.292 HD
ENDBRANCH  33  38
BRANCH  32  40
ATOM     40  O   UNL     1       5.006  -6.816  24.892  0.00  0.00    -0.503 OA
ATOM     41  H   UNL     1       4.364  -7.229  24.277  0.00  0.00    +0.292 HD
ENDBRANCH  32  40
ENDBRANCH  28  30
ENDBRANCH  27  28
ENDBRANCH  26  27
ENDBRANCH   3  26
BRANCH   1  42
ATOM     42  O   UNL     1       6.439   0.305  26.005  0.00  0.00    -0.452 OA
BRANCH  42  53
ATOM     43  C   UNL     1       8.382  -0.794  25.024  0.00  0.00    +0.181 A 
ATOM     44  O   UNL     1       9.077  -1.968  24.715  0.00  0.00    -0.451 OA
ATOM     45  C   UNL     1       8.751  -3.154  25.293  0.00  0.00    +0.147 A 
ATOM     46  C   UNL     1       7.789  -3.250  26.280  0.00  0.00    +0.109 A 
ATOM     47  C   UNL     1       7.580  -4.487  26.898  0.00  0.00    +0.135 A 
ATOM     48  C   UNL     1       8.309  -5.618  26.507  0.00  0.00    +0.091 A 
ATOM     49  C   UNL     1       9.244  -5.505  25.490  0.00  0.00    +0.124 A 
ATOM     50  C   UNL     1       7.019  -2.041  26.618  0.00  0.00    +0.238 A 
ATOM     51  O   UNL     1       6.134  -2.130  27.464  0.00  0.00    -0.283 OA
ATOM     52  C   UNL     1       9.467  -4.281  24.877  0.00  0.00    +0.092 A 
ATOM     53  C   UNL     1       7.334  -0.757  25.901  0.00  0.00    +0.214 A 
BRANCH  43  55
ATOM     54  C   UNL     1      10.378   0.725  24.596  0.00  0.00    +0.015 A 
ATOM     55  C   UNL     1       9.047   0.333  24.265  0.00  0.00    +0.025 A 
ATOM     56  C   UNL     1       8.366   1.173  23.382  0.00  0.00    +0.060 A 
ATOM     57  C   UNL     1       8.960   2.340  22.888  0.00  0.00    +0.159 A 
ATOM     58  C   UNL     1      10.234   2.730  23.295  0.00  0.00    +0.158 A 
ATOM     59  C   UNL     1      10.967   1.918  24.136  0.00  0.00    +0.050 A 
BRANCH  58  60
ATOM     60  O   UNL     1      10.707   3.942  22.856  0.00  0.00    -0.503 OA
ATOM     61  H   UNL     1      11.626   4.048  23.161  0.00  0.00    +0.292 HD
ENDBRANCH  58  60
BRANCH  57  62
ATOM     62  O   UNL     1       8.248   3.146  22.044  0.00  0.00    -0.503 OA
ATOM     63  H   UNL     1       8.493   4.057  22.309  0.00  0.00    +0.292 HD
ENDBRANCH  57  62
ENDBRANCH  43  55
BRANCH  49  64
ATOM     64  O   UNL     1       9.989  -6.567  25.083  0.00  0.00    -0.507 OA
ATOM     65  H   UNL     1       9.844  -7.304  25.698  0.00  0.00    +0.292 HD
ENDBRANCH  49  64
BRANCH  47  66
ATOM     66  O   UNL     1       6.680  -4.664  27.919  0.00  0.00    -0.506 OA
ATOM     67  H   UNL     1       6.533  -3.790  28.347  0.00  0.00    +0.292 HD
ENDBRANCH  47  66
ENDBRANCH  42  53
ENDBRANCH   1  42
TORSDOF 22
ENDMDL
