MODEL 1
REMARK VINA RESULT:      -7.8      0.000      0.000
REMARK  Name = 
REMARK  22 active torsions:
REMARK  status: ('A' for Active; 'I' for Inactive)
REMARK    1  A    between atoms: C_1  and  C_2
REMARK    2  A    between atoms: C_3  and  O_61
REMARK    3  A    between atoms: C_5  and  O_60
REMARK    4  A    between atoms: C_6  and  O_34
REMARK    5  A    between atoms: C_8  and  O_11
REMARK    6  A    between atoms: O_11  and  C_12
REMARK    7  A    between atoms: C_13  and  C_25
REMARK    8  A    between atoms: C_17  and  O_24
REMARK    9  A    between atoms: C_19  and  O_23
REMARK   10  A    between atoms: C_27  and  O_32
REMARK   11  A    between atoms: C_28  and  O_31
REMARK   12  A    between atoms: O_32  and  C_33
REMARK   13  A    between atoms: O_34  and  C_35
REMARK   14  A    between atoms: C_37  and  O_59
REMARK   15  A    between atoms: C_38  and  O_58
REMARK   16  A    between atoms: C_40  and  O_57
REMARK   17  A    between atoms: C_42  and  C_44
REMARK   18  A    between atoms: C_44  and  O_45
REMARK   19  A    between atoms: O_45  and  C_46
REMARK   20  A    between atoms: C_46  and  C_48
REMARK   21  A    between atoms: C_49  and  C_50
REMARK   22  A    between atoms: C_53  and  O_56
REMARK                            x       y       z     vdW  Elec       q    Type
REMARK                         _______ _______ _______ _____ _____    ______ ____
ROOT
ATOM      1  C   UNL     1       9.393  -0.061  21.146  0.00  0.00    +0.041 C 
ATOM      2  C   UNL     1       8.162   0.140  22.023  0.00  0.00    +0.150 C 
ATOM      3  O   UNL     1       8.167   1.274  22.906  0.00  0.00    -0.334 OA
ATOM      4  C   UNL     1       8.669   1.190  24.275  0.00  0.00    +0.340 C 
ATOM      5  C   UNL     1       8.666  -0.260  25.012  0.00  0.00    +0.221 C 
ATOM      6  C   UNL     1       8.913  -1.259  23.887  0.00  0.00    +0.180 C 
ATOM      7  C   UNL     1       7.814  -1.103  22.797  0.00  0.00    +0.174 C 
ENDROOT
BRANCH   6   8
ATOM      8  O   UNL     1       9.184  -2.609  24.247  0.00  0.00    -0.386 OA
ATOM      9  H   UNL     1       9.117  -3.184  23.465  0.00  0.00    +0.210 HD
ENDBRANCH   6   8
BRANCH   7  10
ATOM     10  O   UNL     1       6.466  -0.796  23.222  0.00  0.00    -0.387 OA
ATOM     11  H   UNL     1       5.931  -1.619  23.187  0.00  0.00    +0.210 HD
ENDBRANCH   7  10
BRANCH   5  12
ATOM     12  O   UNL     1       7.432  -0.558  25.732  0.00  0.00    -0.337 OA
BRANCH  12  13
ATOM     13  C   UNL     1       7.552  -0.819  27.165  0.00  0.00    +0.282 C 
ATOM     14  O   UNL     1       6.923  -2.060  27.579  0.00  0.00    -0.339 OA
ATOM     15  C   UNL     1       5.530  -2.116  27.190  0.00  0.00    +0.190 C 
ATOM     16  C   UNL     1       4.671  -0.985  27.764  0.00  0.00    +0.178 C 
ATOM     17  C   UNL     1       5.400   0.384  27.759  0.00  0.00    +0.179 C 
ATOM     18  C   UNL     1       6.904   0.268  28.054  0.00  0.00    +0.201 C 
BRANCH  17  19
ATOM     19  O   UNL     1       5.262   1.075  26.503  0.00  0.00    -0.386 OA
ATOM     20  H   UNL     1       4.482   0.730  26.037  0.00  0.00    +0.210 HD
ENDBRANCH  17  19
BRANCH  16  21
ATOM     21  O   UNL     1       4.250  -1.290  29.089  0.00  0.00    -0.386 OA
ATOM     22  H   UNL     1       5.060  -1.291  29.635  0.00  0.00    +0.210 HD
ENDBRANCH  16  21
BRANCH  18  23
ATOM     23  O   UNL     1       7.540   1.543  27.912  0.00  0.00    -0.384 OA
ATOM     24  H   UNL     1       7.541   1.927  28.813  0.00  0.00    +0.210 HD
ENDBRANCH  18  23
BRANCH  15  25
ATOM     25  C   UNL     1       4.984  -3.574  27.166  0.00  0.00    +0.266 C 
BRANCH  25  26
ATOM     26  O   UNL     1       5.497  -4.438  28.225  0.00  0.00    -0.459 OA
BRANCH  26  27
ATOM     27  C   UNL     1       6.211  -5.524  27.860  0.00  0.00    +0.332 C 
ATOM     28  O   UNL     1       6.924  -6.174  28.601  0.00  0.00    -0.246 OA
BRANCH  27  29
ATOM     29  C   UNL     1       6.023  -5.816  26.420  0.00  0.00    +0.092 C 
ATOM     30  C   UNL     1       6.753  -5.161  25.499  0.00  0.00    +0.015 C 
BRANCH  30  31
ATOM     31  C   UNL     1       6.597  -5.267  24.039  0.00  0.00    -0.025 A 
ATOM     32  C   UNL     1       7.643  -5.609  23.173  0.00  0.00    +0.011 A 
ATOM     33  C   UNL     1       7.412  -5.698  21.793  0.00  0.00    +0.046 A 
ATOM     34  C   UNL     1       6.153  -5.434  21.273  0.00  0.00    +0.117 A 
ATOM     35  C   UNL     1       5.113  -5.057  22.109  0.00  0.00    +0.046 A 
ATOM     36  C   UNL     1       5.339  -4.968  23.488  0.00  0.00    +0.011 A 
BRANCH  34  37
ATOM     37  O   UNL     1       5.983  -5.561  19.927  0.00  0.00    -0.507 OA
ATOM     38  H   UNL     1       5.937  -6.505  19.703  0.00  0.00    +0.292 HD
ENDBRANCH  34  37
ENDBRANCH  30  31
ENDBRANCH  27  29
ENDBRANCH  26  27
ENDBRANCH  25  26
ENDBRANCH  15  25
ENDBRANCH  12  13
ENDBRANCH   5  12
BRANCH   4  39
ATOM     39  O   UNL     1       7.901   2.171  25.045  0.00  0.00    -0.453 OA
BRANCH  39  40
ATOM     40  C   UNL     1       7.200   3.174  24.377  0.00  0.00    +0.214 A 
ATOM     41  C   UNL     1       5.806   2.865  23.866  0.00  0.00    +0.238 A 
ATOM     42  O   UNL     1       5.369   1.720  23.888  0.00  0.00    -0.283 OA
ATOM     43  C   UNL     1       5.000   3.951  23.288  0.00  0.00    +0.109 A 
ATOM     44  C   UNL     1       5.656   5.144  23.028  0.00  0.00    +0.147 A 
ATOM     45  C   UNL     1       4.986   6.219  22.425  0.00  0.00    +0.092 A 
ATOM     46  C   UNL     1       3.638   6.083  22.109  0.00  0.00    +0.124 A 
ATOM     47  C   UNL     1       2.963   4.898  22.360  0.00  0.00    +0.091 A 
ATOM     48  O   UNL     1       6.977   5.336  23.323  0.00  0.00    -0.451 OA
ATOM     49  C   UNL     1       3.643   3.830  22.947  0.00  0.00    +0.135 A 
ATOM     50  C   UNL     1       7.739   4.376  24.014  0.00  0.00    +0.181 A 
BRANCH  50  51
ATOM     51  C   UNL     1       9.173   4.914  24.165  0.00  0.00    +0.025 A 
ATOM     52  C   UNL     1       9.354   6.047  25.012  0.00  0.00    +0.015 A 
ATOM     53  C   UNL     1      10.577   6.706  25.177  0.00  0.00    +0.050 A 
ATOM     54  C   UNL     1      11.687   6.220  24.530  0.00  0.00    +0.158 A 
ATOM     55  C   UNL     1      11.603   5.072  23.734  0.00  0.00    +0.162 A 
ATOM     56  C   UNL     1      10.348   4.428  23.543  0.00  0.00    +0.061 A 
BRANCH  55  57
ATOM     57  O   UNL     1      12.817   4.722  23.198  0.00  0.00    -0.491 OA
ATOM     58  C   UNL     1      13.323   5.537  22.155  0.00  0.00    +0.277 C 
ENDBRANCH  55  57
BRANCH  54  59
ATOM     59  O   UNL     1      12.874   6.881  24.707  0.00  0.00    -0.503 OA
ATOM     60  H   UNL     1      13.466   6.239  25.143  0.00  0.00    +0.292 HD
ENDBRANCH  54  59
ENDBRANCH  50  51
BRANCH  49  61
ATOM     61  O   UNL     1       2.943   2.679  23.193  0.00  0.00    -0.506 OA
ATOM     62  H   UNL     1       2.775   2.215  22.358  0.00  0.00    +0.292 HD
ENDBRANCH  49  61
BRANCH  46  63
ATOM     63  O   UNL     1       2.936   7.107  21.546  0.00  0.00    -0.507 OA
ATOM     64  H   UNL     1       2.340   6.770  20.857  0.00  0.00    +0.292 HD
ENDBRANCH  46  63
ENDBRANCH  39  40
ENDBRANCH   4  39
TORSDOF 20
ENDMDL
MODEL 2
REMARK VINA RESULT:      -7.2      1.998      8.877
REMARK  Name = 
REMARK  22 active torsions:
REMARK  status: ('A' for Active; 'I' for Inactive)
REMARK    1  A    between atoms: C_1  and  C_2
REMARK    2  A    between atoms: C_3  and  O_61
REMARK    3  A    between atoms: C_5  and  O_60
REMARK    4  A    between atoms: C_6  and  O_34
REMARK    5  A    between atoms: C_8  and  O_11
REMARK    6  A    between atoms: O_11  and  C_12
REMARK    7  A    between atoms: C_13  and  C_25
REMARK    8  A    between atoms: C_17  and  O_24
REMARK    9  A    between atoms: C_19  and  O_23
REMARK   10  A    between atoms: C_27  and  O_32
REMARK   11  A    between atoms: C_28  and  O_31
REMARK   12  A    between atoms: O_32  and  C_33
REMARK   13  A    between atoms: O_34  and  C_35
REMARK   14  A    between atoms: C_37  and  O_59
REMARK   15  A    between atoms: C_38  and  O_58
REMARK   16  A    between atoms: C_40  and  O_57
REMARK   17  A    between atoms: C_42  and  C_44
REMARK   18  A    between atoms: C_44  and  O_45
REMARK   19  A    between atoms: O_45  and  C_46
REMARK   20  A    between atoms: C_46  and  C_48
REMARK   21  A    between atoms: C_49  and  C_50
REMARK   22  A    between atoms: C_53  and  O_56
REMARK                            x       y       z     vdW  Elec       q    Type
REMARK                         _______ _______ _______ _____ _____    ______ ____
ROOT
ATOM      1  C   UNL     1      10.218  -1.269  22.623  0.00  0.00    +0.041 C 
ATOM      2  C   UNL     1       9.465  -0.597  23.767  0.00  0.00    +0.150 C 
ATOM      3  O   UNL     1       8.080  -0.946  23.930  0.00  0.00    -0.334 OA
ATOM      4  C   UNL     1       7.008  -0.197  23.281  0.00  0.00    +0.340 C 
ATOM      5  C   UNL     1       7.287   1.352  22.869  0.00  0.00    +0.221 C 
ATOM      6  C   UNL     1       8.771   1.392  22.519  0.00  0.00    +0.180 C 
ATOM      7  C   UNL     1       9.609   0.900  23.733  0.00  0.00    +0.174 C 
ENDROOT
BRANCH   6   8
ATOM      8  O   UNL     1       9.275   2.573  21.907  0.00  0.00    -0.386 OA
ATOM      9  H   UNL     1      10.246   2.532  21.849  0.00  0.00    +0.210 HD
ENDBRANCH   6   8
BRANCH   7  10
ATOM     10  O   UNL     1       9.161   1.250  25.063  0.00  0.00    -0.387 OA
ATOM     11  H   UNL     1       9.500   0.579  25.695  0.00  0.00    +0.210 HD
ENDBRANCH   7  10
BRANCH   5  12
ATOM     12  O   UNL     1       6.958   2.313  23.918  0.00  0.00    -0.337 OA
BRANCH  12  13
ATOM     13  C   UNL     1       6.534   3.642  23.483  0.00  0.00    +0.282 C 
ATOM     14  O   UNL     1       6.606   4.642  24.533  0.00  0.00    -0.339 OA
ATOM     15  C   UNL     1       5.853   4.251  25.706  0.00  0.00    +0.190 C 
ATOM     16  C   UNL     1       4.363   4.008  25.444  0.00  0.00    +0.178 C 
ATOM     17  C   UNL     1       4.102   3.276  24.102  0.00  0.00    +0.179 C 
ATOM     18  C   UNL     1       5.070   3.698  22.986  0.00  0.00    +0.201 C 
BRANCH  17  19
ATOM     19  O   UNL     1       4.192   1.845  24.229  0.00  0.00    -0.386 OA
ATOM     20  H   UNL     1       4.215   1.613  25.173  0.00  0.00    +0.210 HD
ENDBRANCH  17  19
BRANCH  16  21
ATOM     21  O   UNL     1       3.639   5.232  25.463  0.00  0.00    -0.386 OA
ATOM     22  H   UNL     1       3.326   5.346  26.381  0.00  0.00    +0.210 HD
ENDBRANCH  16  21
BRANCH  18  23
ATOM     23  O   UNL     1       4.860   2.901  21.815  0.00  0.00    -0.384 OA
ATOM     24  H   UNL     1       3.978   2.494  21.941  0.00  0.00    +0.210 HD
ENDBRANCH  18  23
BRANCH  15  25
ATOM     25  C   UNL     1       6.304   5.023  26.980  0.00  0.00    +0.266 C 
BRANCH  25  26
ATOM     26  O   UNL     1       6.787   6.378  26.736  0.00  0.00    -0.459 OA
BRANCH  26  27
ATOM     27  C   UNL     1       7.828   6.819  27.476  0.00  0.00    +0.332 C 
ATOM     28  O   UNL     1       7.776   7.107  28.656  0.00  0.00    -0.246 OA
BRANCH  27  29
ATOM     29  C   UNL     1       9.052   6.923  26.648  0.00  0.00    +0.092 C 
ATOM     30  C   UNL     1       9.326   5.978  25.730  0.00  0.00    +0.015 C 
BRANCH  30  31
ATOM     31  C   UNL     1      10.551   5.894  24.919  0.00  0.00    -0.025 A 
ATOM     32  C   UNL     1      11.660   6.729  25.103  0.00  0.00    +0.011 A 
ATOM     33  C   UNL     1      12.795   6.580  24.294  0.00  0.00    +0.046 A 
ATOM     34  C   UNL     1      12.825   5.618  23.295  0.00  0.00    +0.117 A 
ATOM     35  C   UNL     1      11.723   4.805  23.070  0.00  0.00    +0.046 A 
ATOM     36  C   UNL     1      10.588   4.950  23.876  0.00  0.00    +0.011 A 
BRANCH  34  37
ATOM     37  O   UNL     1      13.964   5.504  22.557  0.00  0.00    -0.507 OA
ATOM     38  H   UNL     1      14.547   6.254  22.760  0.00  0.00    +0.292 HD
ENDBRANCH  34  37
ENDBRANCH  30  31
ENDBRANCH  27  29
ENDBRANCH  26  27
ENDBRANCH  25  26
ENDBRANCH  15  25
ENDBRANCH  12  13
ENDBRANCH   5  12
BRANCH   4  39
ATOM     39  O   UNL     1       5.849  -0.303  24.169  0.00  0.00    -0.453 OA
BRANCH  39  40
ATOM     40  C   UNL     1       5.698  -1.433  24.971  0.00  0.00    +0.214 A 
ATOM     41  C   UNL     1       5.487  -2.775  24.298  0.00  0.00    +0.238 A 
ATOM     42  O   UNL     1       5.286  -2.846  23.090  0.00  0.00    -0.283 OA
ATOM     43  C   UNL     1       5.468  -3.993  25.121  0.00  0.00    +0.109 A 
ATOM     44  C   UNL     1       5.409  -3.815  26.495  0.00  0.00    +0.147 A 
ATOM     45  C   UNL     1       5.331  -4.917  27.361  0.00  0.00    +0.092 A 
ATOM     46  C   UNL     1       5.338  -6.200  26.825  0.00  0.00    +0.124 A 
ATOM     47  C   UNL     1       5.397  -6.400  25.454  0.00  0.00    +0.091 A 
ATOM     48  O   UNL     1       5.405  -2.579  27.077  0.00  0.00    -0.451 OA
ATOM     49  C   UNL     1       5.459  -5.297  24.601  0.00  0.00    +0.135 A 
ATOM     50  C   UNL     1       5.575  -1.398  26.331  0.00  0.00    +0.181 A 
BRANCH  50  51
ATOM     51  C   UNL     1       5.510  -0.202  27.298  0.00  0.00    +0.025 A 
ATOM     52  C   UNL     1       4.217   0.329  27.586  0.00  0.00    +0.015 A 
ATOM     53  C   UNL     1       4.002   1.468  28.368  0.00  0.00    +0.050 A 
ATOM     54  C   UNL     1       5.082   2.097  28.938  0.00  0.00    +0.158 A 
ATOM     55  C   UNL     1       6.377   1.596  28.757  0.00  0.00    +0.162 A 
ATOM     56  C   UNL     1       6.590   0.458  27.931  0.00  0.00    +0.061 A 
BRANCH  55  57
ATOM     57  O   UNL     1       7.318   2.337  29.427  0.00  0.00    -0.491 OA
ATOM     58  C   UNL     1       8.047   1.685  30.451  0.00  0.00    +0.277 C 
ENDBRANCH  55  57
BRANCH  54  59
ATOM     59  O   UNL     1       4.847   3.210  29.701  0.00  0.00    -0.503 OA
ATOM     60  H   UNL     1       4.137   3.696  29.239  0.00  0.00    +0.292 HD
ENDBRANCH  54  59
ENDBRANCH  50  51
BRANCH  49  61
ATOM     61  O   UNL     1       5.530  -5.531  23.253  0.00  0.00    -0.506 OA
ATOM     62  H   UNL     1       5.668  -4.693  22.784  0.00  0.00    +0.292 HD
ENDBRANCH  49  61
BRANCH  46  63
ATOM     63  O   UNL     1       5.289  -7.303  27.626  0.00  0.00    -0.507 OA
ATOM     64  H   UNL     1       5.972  -7.252  28.314  0.00  0.00    +0.292 HD
ENDBRANCH  46  63
ENDBRANCH  39  40
ENDBRANCH   4  39
TORSDOF 20
ENDMDL
MODEL 3
REMARK VINA RESULT:      -7.2      2.858      7.360
REMARK  Name = 
REMARK  22 active torsions:
REMARK  status: ('A' for Active; 'I' for Inactive)
REMARK    1  A    between atoms: C_1  and  C_2
REMARK    2  A    between atoms: C_3  and  O_61
REMARK    3  A    between atoms: C_5  and  O_60
REMARK    4  A    between atoms: C_6  and  O_34
REMARK    5  A    between atoms: C_8  and  O_11
REMARK    6  A    between atoms: O_11  and  C_12
REMARK    7  A    between atoms: C_13  and  C_25
REMARK    8  A    between atoms: C_17  and  O_24
REMARK    9  A    between atoms: C_19  and  O_23
REMARK   10  A    between atoms: C_27  and  O_32
REMARK   11  A    between atoms: C_28  and  O_31
REMARK   12  A    between atoms: O_32  and  C_33
REMARK   13  A    between atoms: O_34  and  C_35
REMARK   14  A    between atoms: C_37  and  O_59
REMARK   15  A    between atoms: C_38  and  O_58
REMARK   16  A    between atoms: C_40  and  O_57
REMARK   17  A    between atoms: C_42  and  C_44
REMARK   18  A    between atoms: C_44  and  O_45
REMARK   19  A    between atoms: O_45  and  C_46
REMARK   20  A    between atoms: C_46  and  C_48
REMARK   21  A    between atoms: C_49  and  C_50
REMARK   22  A    between atoms: C_53  and  O_56
REMARK                            x       y       z     vdW  Elec       q    Type
REMARK                         _______ _______ _______ _____ _____    ______ ____
ROOT
ATOM      1  C   UNL     1       5.238  -4.571  28.376  0.00  0.00    +0.041 C 
ATOM      2  C   UNL     1       4.170  -3.867  27.545  0.00  0.00    +0.150 C 
ATOM      3  O   UNL     1       4.626  -3.067  26.441  0.00  0.00    -0.334 OA
ATOM      4  C   UNL     1       4.921  -1.644  26.584  0.00  0.00    +0.340 C 
ATOM      5  C   UNL     1       4.194  -0.820  27.783  0.00  0.00    +0.221 C 
ATOM      6  C   UNL     1       4.043  -1.838  28.908  0.00  0.00    +0.180 C 
ATOM      7  C   UNL     1       3.230  -3.063  28.401  0.00  0.00    +0.174 C 
ENDROOT
BRANCH   6   8
ATOM      8  O   UNL     1       3.634  -1.359  30.184  0.00  0.00    -0.386 OA
ATOM      9  H   UNL     1       4.030  -1.902  30.888  0.00  0.00    +0.210 HD
ENDBRANCH   6   8
BRANCH   7  10
ATOM     10  O   UNL     1       2.144  -2.829  27.473  0.00  0.00    -0.387 OA
ATOM     11  H   UNL     1       2.371  -3.248  26.614  0.00  0.00    +0.210 HD
ENDBRANCH   7  10
BRANCH   5  12
ATOM     12  O   UNL     1       2.908  -0.240  27.409  0.00  0.00    -0.337 OA
BRANCH  12  13
ATOM     13  C   UNL     1       2.902   1.179  27.057  0.00  0.00    +0.282 C 
ATOM     14  O   UNL     1       4.052   1.904  27.569  0.00  0.00    -0.339 OA
ATOM     15  C   UNL     1       4.187   1.759  29.004  0.00  0.00    +0.190 C 
ATOM     16  C   UNL     1       2.976   2.251  29.802  0.00  0.00    +0.178 C 
ATOM     17  C   UNL     1       1.626   1.884  29.132  0.00  0.00    +0.179 C 
ATOM     18  C   UNL     1       1.676   1.952  27.597  0.00  0.00    +0.201 C 
BRANCH  17  19
ATOM     19  O   UNL     1       1.176   0.563  29.489  0.00  0.00    -0.386 OA
ATOM     20  H   UNL     1       1.280  -0.023  28.720  0.00  0.00    +0.210 HD
ENDBRANCH  17  19
BRANCH  16  21
ATOM     21  O   UNL     1       3.037   3.659  30.000  0.00  0.00    -0.386 OA
ATOM     22  H   UNL     1       3.637   4.001  29.309  0.00  0.00    +0.210 HD
ENDBRANCH  16  21
BRANCH  18  23
ATOM     23  O   UNL     1       0.444   1.483  27.037  0.00  0.00    -0.384 OA
ATOM     24  H   UNL     1      -0.090   1.195  27.806  0.00  0.00    +0.210 HD
ENDBRANCH  18  23
BRANCH  15  25
ATOM     25  C   UNL     1       5.628   2.084  29.494  0.00  0.00    +0.266 C 
BRANCH  25  26
ATOM     26  O   UNL     1       6.607   1.026  29.266  0.00  0.00    -0.459 OA
BRANCH  26  27
ATOM     27  C   UNL     1       7.287   1.038  28.099  0.00  0.00    +0.332 C 
ATOM     28  O   UNL     1       7.544   2.033  27.449  0.00  0.00    -0.246 OA
BRANCH  27  29
ATOM     29  C   UNL     1       7.672  -0.336  27.703  0.00  0.00    +0.092 C 
ATOM     30  C   UNL     1       8.430  -0.534  26.609  0.00  0.00    +0.015 C 
BRANCH  30  31
ATOM     31  C   UNL     1       8.794  -1.841  26.037  0.00  0.00    -0.025 A 
ATOM     32  C   UNL     1       9.574  -1.989  24.883  0.00  0.00    +0.011 A 
ATOM     33  C   UNL     1       9.886  -3.270  24.406  0.00  0.00    +0.046 A 
ATOM     34  C   UNL     1       9.412  -4.399  25.059  0.00  0.00    +0.117 A 
ATOM     35  C   UNL     1       8.606  -4.273  26.181  0.00  0.00    +0.046 A 
ATOM     36  C   UNL     1       8.293  -2.996  26.662  0.00  0.00    +0.011 A 
BRANCH  34  37
ATOM     37  O   UNL     1       9.768  -5.616  24.562  0.00  0.00    -0.507 OA
ATOM     38  H   UNL     1       8.972  -6.068  24.236  0.00  0.00    +0.292 HD
ENDBRANCH  34  37
ENDBRANCH  30  31
ENDBRANCH  27  29
ENDBRANCH  26  27
ENDBRANCH  25  26
ENDBRANCH  15  25
ENDBRANCH  12  13
ENDBRANCH   5  12
BRANCH   4  39
ATOM     39  O   UNL     1       4.631  -1.041  25.282  0.00  0.00    -0.453 OA
BRANCH  39  40
ATOM     40  C   UNL     1       5.681  -0.599  24.478  0.00  0.00    +0.214 A 
ATOM     41  C   UNL     1       6.042   0.874  24.507  0.00  0.00    +0.238 A 
ATOM     42  O   UNL     1       5.328   1.684  25.087  0.00  0.00    -0.283 OA
ATOM     43  C   UNL     1       7.234   1.331  23.777  0.00  0.00    +0.109 A 
ATOM     44  C   UNL     1       7.822   0.422  22.911  0.00  0.00    +0.147 A 
ATOM     45  C   UNL     1       8.929   0.784  22.129  0.00  0.00    +0.092 A 
ATOM     46  C   UNL     1       9.451   2.067  22.249  0.00  0.00    +0.124 A 
ATOM     47  C   UNL     1       8.878   2.993  23.109  0.00  0.00    +0.091 A 
ATOM     48  O   UNL     1       7.356  -0.853  22.757  0.00  0.00    -0.451 OA
ATOM     49  C   UNL     1       7.768   2.627  23.871  0.00  0.00    +0.135 A 
ATOM     50  C   UNL     1       6.315  -1.373  23.548  0.00  0.00    +0.181 A 
BRANCH  50  51
ATOM     51  C   UNL     1       6.045  -2.821  23.103  0.00  0.00    +0.025 A 
ATOM     52  C   UNL     1       7.087  -3.483  22.387  0.00  0.00    +0.015 A 
ATOM     53  C   UNL     1       6.958  -4.763  21.836  0.00  0.00    +0.050 A 
ATOM     54  C   UNL     1       5.785  -5.454  22.025  0.00  0.00    +0.158 A 
ATOM     55  C   UNL     1       4.742  -4.897  22.774  0.00  0.00    +0.162 A 
ATOM     56  C   UNL     1       4.868  -3.581  23.301  0.00  0.00    +0.061 A 
BRANCH  55  57
ATOM     57  O   UNL     1       3.669  -5.746  22.880  0.00  0.00    -0.491 OA
ATOM     58  C   UNL     1       2.450  -5.194  23.346  0.00  0.00    +0.277 C 
ENDBRANCH  55  57
BRANCH  54  59
ATOM     59  O   UNL     1       5.683  -6.705  21.478  0.00  0.00    -0.503 OA
ATOM     60  H   UNL     1       6.499  -7.172  21.743  0.00  0.00    +0.292 HD
ENDBRANCH  54  59
ENDBRANCH  50  51
BRANCH  49  61
ATOM     61  O   UNL     1       7.235   3.561  24.720  0.00  0.00    -0.506 OA
ATOM     62  H   UNL     1       7.522   3.376  25.628  0.00  0.00    +0.292 HD
ENDBRANCH  49  61
BRANCH  46  63
ATOM     63  O   UNL     1      10.541   2.460  21.530  0.00  0.00    -0.507 OA
ATOM     64  H   UNL     1      10.273   3.028  20.791  0.00  0.00    +0.292 HD
ENDBRANCH  46  63
ENDBRANCH  39  40
ENDBRANCH   4  39
TORSDOF 20
ENDMDL
MODEL 4
REMARK VINA RESULT:      -7.0      2.466      8.789
REMARK  Name = 
REMARK  22 active torsions:
REMARK  status: ('A' for Active; 'I' for Inactive)
REMARK    1  A    between atoms: C_1  and  C_2
REMARK    2  A    between atoms: C_3  and  O_61
REMARK    3  A    between atoms: C_5  and  O_60
REMARK    4  A    between atoms: C_6  and  O_34
REMARK    5  A    between atoms: C_8  and  O_11
REMARK    6  A    between atoms: O_11  and  C_12
REMARK    7  A    between atoms: C_13  and  C_25
REMARK    8  A    between atoms: C_17  and  O_24
REMARK    9  A    between atoms: C_19  and  O_23
REMARK   10  A    between atoms: C_27  and  O_32
REMARK   11  A    between atoms: C_28  and  O_31
REMARK   12  A    between atoms: O_32  and  C_33
REMARK   13  A    between atoms: O_34  and  C_35
REMARK   14  A    between atoms: C_37  and  O_59
REMARK   15  A    between atoms: C_38  and  O_58
REMARK   16  A    between atoms: C_40  and  O_57
REMARK   17  A    between atoms: C_42  and  C_44
REMARK   18  A    between atoms: C_44  and  O_45
REMARK   19  A    between atoms: O_45  and  C_46
REMARK   20  A    between atoms: C_46  and  C_48
REMARK   21  A    between atoms: C_49  and  C_50
REMARK   22  A    between atoms: C_53  and  O_56
REMARK                            x       y       z     vdW  Elec       q    Type
REMARK                         _______ _______ _______ _____ _____    ______ ____
ROOT
ATOM      1  C   UNL     1       9.869  -1.440  22.053  0.00  0.00    +0.041 C 
ATOM      2  C   UNL     1      10.193  -0.534  23.237  0.00  0.00    +0.150 C 
ATOM      3  O   UNL     1       9.375  -0.676  24.410  0.00  0.00    -0.334 OA
ATOM      4  C   UNL     1       8.166   0.117  24.614  0.00  0.00    +0.340 C 
ATOM      5  C   UNL     1       8.044   1.550  23.854  0.00  0.00    +0.221 C 
ATOM      6  C   UNL     1       8.794   1.351  22.542  0.00  0.00    +0.180 C 
ATOM      7  C   UNL     1      10.258   0.915  22.836  0.00  0.00    +0.174 C 
ENDROOT
BRANCH   6   8
ATOM      8  O   UNL     1       8.680   2.367  21.552  0.00  0.00    -0.386 OA
ATOM      9  H   UNL     1       7.856   2.250  21.046  0.00  0.00    +0.210 HD
ENDBRANCH   6   8
BRANCH   7  10
ATOM     10  O   UNL     1      10.928   1.489  23.982  0.00  0.00    -0.387 OA
ATOM     11  H   UNL     1      11.875   1.619  23.759  0.00  0.00    +0.210 HD
ENDBRANCH   7  10
BRANCH   5  12
ATOM     12  O   UNL     1       8.584   2.673  24.615  0.00  0.00    -0.337 OA
BRANCH  12  13
ATOM     13  C   UNL     1       7.621   3.513  25.322  0.00  0.00    +0.282 C 
ATOM     14  O   UNL     1       6.258   3.353  24.847  0.00  0.00    -0.339 OA
ATOM     15  C   UNL     1       6.151   3.585  23.422  0.00  0.00    +0.190 C 
ATOM     16  C   UNL     1       6.602   4.980  22.977  0.00  0.00    +0.178 C 
ATOM     17  C   UNL     1       7.868   5.470  23.727  0.00  0.00    +0.179 C 
ATOM     18  C   UNL     1       7.905   5.029  25.200  0.00  0.00    +0.201 C 
BRANCH  17  19
ATOM     19  O   UNL     1       9.085   5.009  23.111  0.00  0.00    -0.386 OA
ATOM     20  H   UNL     1       9.654   4.614  23.793  0.00  0.00    +0.210 HD
ENDBRANCH  17  19
BRANCH  16  21
ATOM     21  O   UNL     1       5.556   5.929  23.148  0.00  0.00    -0.386 OA
ATOM     22  H   UNL     1       5.789   6.692  22.584  0.00  0.00    +0.210 HD
ENDBRANCH  16  21
BRANCH  18  23
ATOM     23  O   UNL     1       9.150   5.402  25.801  0.00  0.00    -0.384 OA
ATOM     24  H   UNL     1       9.278   4.766  26.535  0.00  0.00    +0.210 HD
ENDBRANCH  18  23
BRANCH  15  25
ATOM     25  C   UNL     1       4.864   2.952  22.818  0.00  0.00    +0.266 C 
BRANCH  25  26
ATOM     26  O   UNL     1       3.617   3.398  23.429  0.00  0.00    -0.459 OA
BRANCH  26  27
ATOM     27  C   UNL     1       2.493   3.344  22.681  0.00  0.00    +0.332 C 
ATOM     28  O   UNL     1       1.545   2.614  22.895  0.00  0.00    -0.246 OA
BRANCH  27  29
ATOM     29  C   UNL     1       2.575   4.290  21.544  0.00  0.00    +0.092 C 
ATOM     30  C   UNL     1       1.748   4.151  20.492  0.00  0.00    +0.015 C 
BRANCH  30  31
ATOM     31  C   UNL     1       1.789   4.943  19.252  0.00  0.00    -0.025 A 
ATOM     32  C   UNL     1       1.977   6.330  19.227  0.00  0.00    +0.011 A 
ATOM     33  C   UNL     1       2.013   7.013  18.003  0.00  0.00    +0.046 A 
ATOM     34  C   UNL     1       1.845   6.325  16.809  0.00  0.00    +0.117 A 
ATOM     35  C   UNL     1       1.620   4.957  16.814  0.00  0.00    +0.046 A 
ATOM     36  C   UNL     1       1.585   4.271  18.034  0.00  0.00    +0.011 A 
BRANCH  34  37
ATOM     37  O   UNL     1       1.914   7.039  15.651  0.00  0.00    -0.507 OA
ATOM     38  H   UNL     1       1.338   7.817  15.726  0.00  0.00    +0.292 HD
ENDBRANCH  34  37
ENDBRANCH  30  31
ENDBRANCH  27  29
ENDBRANCH  26  27
ENDBRANCH  25  26
ENDBRANCH  15  25
ENDBRANCH  12  13
ENDBRANCH   5  12
BRANCH   4  39
ATOM     39  O   UNL     1       8.031   0.279  26.063  0.00  0.00    -0.453 OA
BRANCH  39  40
ATOM     40  C   UNL     1       6.926  -0.264  26.716  0.00  0.00    +0.214 A 
ATOM     41  C   UNL     1       6.152   0.614  27.680  0.00  0.00    +0.238 A 
ATOM     42  O   UNL     1       6.580   1.716  28.007  0.00  0.00    -0.283 OA
ATOM     43  C   UNL     1       4.904   0.105  28.267  0.00  0.00    +0.109 A 
ATOM     44  C   UNL     1       4.635  -1.243  28.086  0.00  0.00    +0.147 A 
ATOM     45  C   UNL     1       3.496  -1.833  28.656  0.00  0.00    +0.092 A 
ATOM     46  C   UNL     1       2.621  -1.042  29.392  0.00  0.00    +0.124 A 
ATOM     47  C   UNL     1       2.872   0.308  29.587  0.00  0.00    +0.091 A 
ATOM     48  O   UNL     1       5.455  -2.066  27.367  0.00  0.00    -0.451 OA
ATOM     49  C   UNL     1       4.014   0.882  29.027  0.00  0.00    +0.135 A 
ATOM     50  C   UNL     1       6.575  -1.584  26.665  0.00  0.00    +0.181 A 
BRANCH  50  51
ATOM     51  C   UNL     1       7.268  -2.776  25.982  0.00  0.00    +0.025 A 
ATOM     52  C   UNL     1       8.303  -3.430  26.715  0.00  0.00    +0.015 A 
ATOM     53  C   UNL     1       9.087  -4.466  26.195  0.00  0.00    +0.050 A 
ATOM     54  C   UNL     1       8.829  -4.922  24.924  0.00  0.00    +0.158 A 
ATOM     55  C   UNL     1       7.786  -4.375  24.168  0.00  0.00    +0.162 A 
ATOM     56  C   UNL     1       7.016  -3.298  24.691  0.00  0.00    +0.061 A 
BRANCH  55  57
ATOM     57  O   UNL     1       7.662  -4.979  22.942  0.00  0.00    -0.491 OA
ATOM     58  C   UNL     1       6.483  -5.727  22.705  0.00  0.00    +0.277 C 
ENDBRANCH  55  57
BRANCH  54  59
ATOM     59  O   UNL     1       9.609  -5.937  24.437  0.00  0.00    -0.503 OA
ATOM     60  H   UNL     1      10.530  -5.635  24.553  0.00  0.00    +0.292 HD
ENDBRANCH  54  59
ENDBRANCH  50  51
BRANCH  49  61
ATOM     61  O   UNL     1       4.225   2.221  29.227  0.00  0.00    -0.506 OA
ATOM     62  H   UNL     1       4.249   2.678  28.371  0.00  0.00    +0.292 HD
ENDBRANCH  49  61
BRANCH  46  63
ATOM     63  O   UNL     1       1.489  -1.563  29.945  0.00  0.00    -0.507 OA
ATOM     64  H   UNL     1       0.701  -1.165  29.542  0.00  0.00    +0.292 HD
ENDBRANCH  46  63
ENDBRANCH  39  40
ENDBRANCH   4  39
TORSDOF 20
ENDMDL
MODEL 5
REMARK VINA RESULT:      -6.9      2.167      9.145
REMARK  Name = 
REMARK  22 active torsions:
REMARK  status: ('A' for Active; 'I' for Inactive)
REMARK    1  A    between atoms: C_1  and  C_2
REMARK    2  A    between atoms: C_3  and  O_61
REMARK    3  A    between atoms: C_5  and  O_60
REMARK    4  A    between atoms: C_6  and  O_34
REMARK    5  A    between atoms: C_8  and  O_11
REMARK    6  A    between atoms: O_11  and  C_12
REMARK    7  A    between atoms: C_13  and  C_25
REMARK    8  A    between atoms: C_17  and  O_24
REMARK    9  A    between atoms: C_19  and  O_23
REMARK   10  A    between atoms: C_27  and  O_32
REMARK   11  A    between atoms: C_28  and  O_31
REMARK   12  A    between atoms: O_32  and  C_33
REMARK   13  A    between atoms: O_34  and  C_35
REMARK   14  A    between atoms: C_37  and  O_59
REMARK   15  A    between atoms: C_38  and  O_58
REMARK   16  A    between atoms: C_40  and  O_57
REMARK   17  A    between atoms: C_42  and  C_44
REMARK   18  A    between atoms: C_44  and  O_45
REMARK   19  A    between atoms: O_45  and  C_46
REMARK   20  A    between atoms: C_46  and  C_48
REMARK   21  A    between atoms: C_49  and  C_50
REMARK   22  A    between atoms: C_53  and  O_56
REMARK                            x       y       z     vdW  Elec       q    Type
REMARK                         _______ _______ _______ _____ _____    ______ ____
ROOT
ATOM      1  C   UNL     1       9.631  -2.112  23.775  0.00  0.00    +0.041 C 
ATOM      2  C   UNL     1       9.300  -1.142  24.905  0.00  0.00    +0.150 C 
ATOM      3  O   UNL     1       8.245  -1.523  25.804  0.00  0.00    -0.334 OA
ATOM      4  C   UNL     1       6.854  -1.143  25.573  0.00  0.00    +0.340 C 
ATOM      5  C   UNL     1       6.552   0.177  24.671  0.00  0.00    +0.221 C 
ATOM      6  C   UNL     1       7.689   0.211  23.654  0.00  0.00    +0.180 C 
ATOM      7  C   UNL     1       9.055   0.252  24.397  0.00  0.00    +0.174 C 
ENDROOT
BRANCH   6   8
ATOM      8  O   UNL     1       7.586   1.135  22.577  0.00  0.00    -0.386 OA
ATOM      9  H   UNL     1       7.521   2.043  22.920  0.00  0.00    +0.210 HD
ENDBRANCH   6   8
BRANCH   7  10
ATOM     10  O   UNL     1       9.146   1.014  25.624  0.00  0.00    -0.387 OA
ATOM     11  H   UNL     1       8.364   0.806  26.180  0.00  0.00    +0.210 HD
ENDBRANCH   7  10
BRANCH   5  12
ATOM     12  O   UNL     1       6.482   1.417  25.438  0.00  0.00    -0.337 OA
BRANCH  12  13
ATOM     13  C   UNL     1       5.231   1.684  26.145  0.00  0.00    +0.282 C 
ATOM     14  O   UNL     1       4.343   2.579  25.425  0.00  0.00    -0.339 OA
ATOM     15  C   UNL     1       4.990   3.831  25.092  0.00  0.00    +0.190 C 
ATOM     16  C   UNL     1       5.504   4.615  26.305  0.00  0.00    +0.178 C 
ATOM     17  C   UNL     1       6.140   3.701  27.384  0.00  0.00    +0.179 C 
ATOM     18  C   UNL     1       5.425   2.348  27.528  0.00  0.00    +0.201 C 
BRANCH  17  19
ATOM     19  O   UNL     1       7.529   3.426  27.122  0.00  0.00    -0.386 OA
ATOM     20  H   UNL     1       7.780   3.842  26.280  0.00  0.00    +0.210 HD
ENDBRANCH  17  19
BRANCH  16  21
ATOM     21  O   UNL     1       4.459   5.381  26.892  0.00  0.00    -0.386 OA
ATOM     22  H   UNL     1       3.831   5.578  26.170  0.00  0.00    +0.210 HD
ENDBRANCH  16  21
BRANCH  18  23
ATOM     23  O   UNL     1       6.132   1.505  28.445  0.00  0.00    -0.384 OA
ATOM     24  H   UNL     1       5.437   1.107  29.010  0.00  0.00    +0.210 HD
ENDBRANCH  18  23
BRANCH  15  25
ATOM     25  C   UNL     1       4.269   4.576  23.931  0.00  0.00    +0.266 C 
BRANCH  25  26
ATOM     26  O   UNL     1       5.100   4.838  22.762  0.00  0.00    -0.459 OA
BRANCH  26  27
ATOM     27  C   UNL     1       5.789   5.999  22.725  0.00  0.00    +0.332 C 
ATOM     28  O   UNL     1       5.298   7.108  22.823  0.00  0.00    -0.246 OA
BRANCH  27  29
ATOM     29  C   UNL     1       7.235   5.745  22.534  0.00  0.00    +0.092 C 
ATOM     30  C   UNL     1       7.968   5.230  23.539  0.00  0.00    +0.015 C 
BRANCH  30  31
ATOM     31  C   UNL     1       9.426   5.029  23.528  0.00  0.00    -0.025 A 
ATOM     32  C   UNL     1      10.032   3.768  23.469  0.00  0.00    +0.011 A 
ATOM     33  C   UNL     1      11.429   3.660  23.453  0.00  0.00    +0.046 A 
ATOM     34  C   UNL     1      12.223   4.796  23.513  0.00  0.00    +0.117 A 
ATOM     35  C   UNL     1      11.644   6.053  23.610  0.00  0.00    +0.046 A 
ATOM     36  C   UNL     1      10.249   6.165  23.625  0.00  0.00    +0.011 A 
BRANCH  34  37
ATOM     37  O   UNL     1      13.575   4.629  23.470  0.00  0.00    -0.507 OA
ATOM     38  H   UNL     1      13.779   3.856  22.919  0.00  0.00    +0.292 HD
ENDBRANCH  34  37
ENDBRANCH  30  31
ENDBRANCH  27  29
ENDBRANCH  26  27
ENDBRANCH  25  26
ENDBRANCH  15  25
ENDBRANCH  12  13
ENDBRANCH   5  12
BRANCH   4  39
ATOM     39  O   UNL     1       6.245  -1.022  26.899  0.00  0.00    -0.453 OA
BRANCH  39  40
ATOM     40  C   UNL     1       5.339  -1.989  27.332  0.00  0.00    +0.214 A 
ATOM     41  C   UNL     1       4.276  -1.586  28.335  0.00  0.00    +0.238 A 
ATOM     42  O   UNL     1       4.311  -0.488  28.879  0.00  0.00    -0.283 OA
ATOM     43  C   UNL     1       3.228  -2.553  28.693  0.00  0.00    +0.109 A 
ATOM     44  C   UNL     1       3.414  -3.859  28.268  0.00  0.00    +0.147 A 
ATOM     45  C   UNL     1       2.497  -4.866  28.608  0.00  0.00    +0.092 A 
ATOM     46  C   UNL     1       1.377  -4.532  29.362  0.00  0.00    +0.124 A 
ATOM     47  C   UNL     1       1.171  -3.232  29.798  0.00  0.00    +0.091 A 
ATOM     48  O   UNL     1       4.491  -4.243  27.520  0.00  0.00    -0.451 OA
ATOM     49  C   UNL     1       2.097  -2.242  29.466  0.00  0.00    +0.135 A 
ATOM     50  C   UNL     1       5.433  -3.318  27.031  0.00  0.00    +0.181 A 
BRANCH  50  51
ATOM     51  C   UNL     1       6.506  -4.091  26.244  0.00  0.00    +0.025 A 
ATOM     52  C   UNL     1       7.678  -4.481  26.959  0.00  0.00    +0.015 A 
ATOM     53  C   UNL     1       8.779  -5.105  26.363  0.00  0.00    +0.050 A 
ATOM     54  C   UNL     1       8.728  -5.408  25.024  0.00  0.00    +0.158 A 
ATOM     55  C   UNL     1       7.585  -5.117  24.270  0.00  0.00    +0.162 A 
ATOM     56  C   UNL     1       6.484  -4.451  24.876  0.00  0.00    +0.061 A 
BRANCH  55  57
ATOM     57  O   UNL     1       7.709  -5.521  22.965  0.00  0.00    -0.491 OA
ATOM     58  C   UNL     1       6.769  -5.009  22.037  0.00  0.00    +0.277 C 
ENDBRANCH  55  57
BRANCH  54  59
ATOM     59  O   UNL     1       9.818  -6.019  24.463  0.00  0.00    -0.503 OA
ATOM     60  H   UNL     1      10.042  -6.754  25.066  0.00  0.00    +0.292 HD
ENDBRANCH  54  59
ENDBRANCH  50  51
BRANCH  49  61
ATOM     61  O   UNL     1       1.857  -0.965  29.901  0.00  0.00    -0.506 OA
ATOM     62  H   UNL     1       2.409  -0.342  29.403  0.00  0.00    +0.292 HD
ENDBRANCH  49  61
BRANCH  46  63
ATOM     63  O   UNL     1       0.444  -5.469  29.697  0.00  0.00    -0.507 OA
ATOM     64  H   UNL     1      -0.364  -5.345  29.174  0.00  0.00    +0.292 HD
ENDBRANCH  46  63
ENDBRANCH  39  40
ENDBRANCH   4  39
TORSDOF 20
ENDMDL
MODEL 6
REMARK VINA RESULT:      -6.8      2.354      9.173
REMARK  Name = 
REMARK  22 active torsions:
REMARK  status: ('A' for Active; 'I' for Inactive)
REMARK    1  A    between atoms: C_1  and  C_2
REMARK    2  A    between atoms: C_3  and  O_61
REMARK    3  A    between atoms: C_5  and  O_60
REMARK    4  A    between atoms: C_6  and  O_34
REMARK    5  A    between atoms: C_8  and  O_11
REMARK    6  A    between atoms: O_11  and  C_12
REMARK    7  A    between atoms: C_13  and  C_25
REMARK    8  A    between atoms: C_17  and  O_24
REMARK    9  A    between atoms: C_19  and  O_23
REMARK   10  A    between atoms: C_27  and  O_32
REMARK   11  A    between atoms: C_28  and  O_31
REMARK   12  A    between atoms: O_32  and  C_33
REMARK   13  A    between atoms: O_34  and  C_35
REMARK   14  A    between atoms: C_37  and  O_59
REMARK   15  A    between atoms: C_38  and  O_58
REMARK   16  A    between atoms: C_40  and  O_57
REMARK   17  A    between atoms: C_42  and  C_44
REMARK   18  A    between atoms: C_44  and  O_45
REMARK   19  A    between atoms: O_45  and  C_46
REMARK   20  A    between atoms: C_46  and  C_48
REMARK   21  A    between atoms: C_49  and  C_50
REMARK   22  A    between atoms: C_53  and  O_56
REMARK                            x       y       z     vdW  Elec       q    Type
REMARK                         _______ _______ _______ _____ _____    ______ ____
ROOT
ATOM      1  C   UNL     1       3.576  -6.179  23.201  0.00  0.00    +0.041 C 
ATOM      2  C   UNL     1       4.856  -5.696  23.875  0.00  0.00    +0.150 C 
ATOM      3  O   UNL     1       4.721  -4.672  24.874  0.00  0.00    -0.334 OA
ATOM      4  C   UNL     1       4.801  -3.251  24.546  0.00  0.00    +0.340 C 
ATOM      5  C   UNL     1       5.618  -2.811  23.210  0.00  0.00    +0.221 C 
ATOM      6  C   UNL     1       5.402  -3.962  22.234  0.00  0.00    +0.180 C 
ATOM      7  C   UNL     1       5.902  -5.290  22.871  0.00  0.00    +0.174 C 
ENDROOT
BRANCH   6   8
ATOM      8  O   UNL     1       5.815  -3.775  20.886  0.00  0.00    -0.386 OA
ATOM      9  H   UNL     1       6.707  -3.386  20.861  0.00  0.00    +0.210 HD
ENDBRANCH   6   8
BRANCH   7  10
ATOM     10  O   UNL     1       7.083  -5.249  23.705  0.00  0.00    -0.387 OA
ATOM     11  H   UNL     1       7.181  -6.118  24.153  0.00  0.00    +0.210 HD
ENDBRANCH   7  10
BRANCH   5  12
ATOM     12  O   UNL     1       7.039  -2.562  23.439  0.00  0.00    -0.337 OA
BRANCH  12  13
ATOM     13  C   UNL     1       7.380  -1.413  24.274  0.00  0.00    +0.282 C 
ATOM     14  O   UNL     1       7.809  -0.254  23.513  0.00  0.00    -0.339 OA
ATOM     15  C   UNL     1       8.919  -0.564  22.636  0.00  0.00    +0.190 C 
ATOM     16  C   UNL     1      10.163  -1.090  23.359  0.00  0.00    +0.178 C 
ATOM     17  C   UNL     1       9.818  -2.068  24.512  0.00  0.00    +0.179 C 
ATOM     18  C   UNL     1       8.535  -1.683  25.267  0.00  0.00    +0.201 C 
BRANCH  17  19
ATOM     19  O   UNL     1       9.655  -3.423  24.054  0.00  0.00    -0.386 OA
ATOM     20  H   UNL     1       9.688  -4.021  24.820  0.00  0.00    +0.210 HD
ENDBRANCH  17  19
BRANCH  16  21
ATOM     21  O   UNL     1      10.945  -0.017  23.870  0.00  0.00    -0.386 OA
ATOM     22  H   UNL     1      11.067   0.604  23.125  0.00  0.00    +0.210 HD
ENDBRANCH  16  21
BRANCH  18  23
ATOM     23  O   UNL     1       8.203  -2.688  26.232  0.00  0.00    -0.384 OA
ATOM     24  H   UNL     1       7.629  -2.233  26.883  0.00  0.00    +0.210 HD
ENDBRANCH  18  23
BRANCH  15  25
ATOM     25  C   UNL     1       9.068   0.474  21.485  0.00  0.00    +0.266 C 
BRANCH  25  26
ATOM     26  O   UNL     1       9.913   1.620  21.799  0.00  0.00    -0.459 OA
BRANCH  26  27
ATOM     27  C   UNL     1       9.433   2.537  22.668  0.00  0.00    +0.332 C 
ATOM     28  O   UNL     1      10.002   2.912  23.675  0.00  0.00    -0.246 OA
BRANCH  27  29
ATOM     29  C   UNL     1       8.102   3.021  22.236  0.00  0.00    +0.092 C 
ATOM     30  C   UNL     1       7.311   3.680  23.103  0.00  0.00    +0.015 C 
BRANCH  30  31
ATOM     31  C   UNL     1       5.929   4.119  22.849  0.00  0.00    -0.025 A 
ATOM     32  C   UNL     1       5.528   5.460  22.873  0.00  0.00    +0.011 A 
ATOM     33  C   UNL     1       4.193   5.799  22.610  0.00  0.00    +0.046 A 
ATOM     34  C   UNL     1       3.256   4.811  22.342  0.00  0.00    +0.117 A 
ATOM     35  C   UNL     1       3.625   3.474  22.351  0.00  0.00    +0.046 A 
ATOM     36  C   UNL     1       4.957   3.131  22.611  0.00  0.00    +0.011 A 
BRANCH  34  37
ATOM     37  O   UNL     1       1.980   5.202  22.071  0.00  0.00    -0.507 OA
ATOM     38  H   UNL     1       1.878   5.298  21.109  0.00  0.00    +0.292 HD
ENDBRANCH  34  37
ENDBRANCH  30  31
ENDBRANCH  27  29
ENDBRANCH  26  27
ENDBRANCH  25  26
ENDBRANCH  15  25
ENDBRANCH  12  13
ENDBRANCH   5  12
BRANCH   4  39
ATOM     39  O   UNL     1       5.347  -2.594  25.735  0.00  0.00    -0.453 OA
BRANCH  39  40
ATOM     40  C   UNL     1       4.492  -1.904  26.594  0.00  0.00    +0.214 A 
ATOM     41  C   UNL     1       4.573  -0.391  26.631  0.00  0.00    +0.238 A 
ATOM     42  O   UNL     1       5.474   0.204  26.052  0.00  0.00    -0.283 OA
ATOM     43  C   UNL     1       3.585   0.358  27.422  0.00  0.00    +0.109 A 
ATOM     44  C   UNL     1       2.783  -0.380  28.278  0.00  0.00    +0.147 A 
ATOM     45  C   UNL     1       1.849   0.250  29.115  0.00  0.00    +0.092 A 
ATOM     46  C   UNL     1       1.719   1.634  29.060  0.00  0.00    +0.124 A 
ATOM     47  C   UNL     1       2.512   2.392  28.212  0.00  0.00    +0.091 A 
ATOM     48  O   UNL     1       2.863  -1.741  28.369  0.00  0.00    -0.451 OA
ATOM     49  C   UNL     1       3.447   1.756  27.394  0.00  0.00    +0.135 A 
ATOM     50  C   UNL     1       3.687  -2.503  27.520  0.00  0.00    +0.181 A 
BRANCH  50  51
ATOM     51  C   UNL     1       3.538  -3.986  27.905  0.00  0.00    +0.025 A 
ATOM     52  C   UNL     1       2.241  -4.565  27.763  0.00  0.00    +0.015 A 
ATOM     53  C   UNL     1       1.926  -5.870  28.157  0.00  0.00    +0.050 A 
ATOM     54  C   UNL     1       2.920  -6.669  28.669  0.00  0.00    +0.158 A 
ATOM     55  C   UNL     1       4.233  -6.194  28.776  0.00  0.00    +0.162 A 
ATOM     56  C   UNL     1       4.537  -4.854  28.406  0.00  0.00    +0.061 A 
BRANCH  55  57
ATOM     57  O   UNL     1       5.088  -7.142  29.278  0.00  0.00    -0.491 OA
ATOM     58  C   UNL     1       6.443  -6.767  29.448  0.00  0.00    +0.277 C 
ENDBRANCH  55  57
BRANCH  54  59
ATOM     59  O   UNL     1       2.588  -7.942  29.047  0.00  0.00    -0.503 OA
ATOM     60  H   UNL     1       3.187  -8.527  28.544  0.00  0.00    +0.292 HD
ENDBRANCH  54  59
ENDBRANCH  50  51
BRANCH  49  61
ATOM     61  O   UNL     1       4.204   2.533  26.558  0.00  0.00    -0.506 OA
ATOM     62  H   UNL     1       5.045   2.751  26.990  0.00  0.00    +0.292 HD
ENDBRANCH  49  61
BRANCH  46  63
ATOM     63  O   UNL     1       0.809   2.291  29.834  0.00  0.00    -0.507 OA
ATOM     64  H   UNL     1       0.152   1.670  30.187  0.00  0.00    +0.292 HD
ENDBRANCH  46  63
ENDBRANCH  39  40
ENDBRANCH   4  39
TORSDOF 20
ENDMDL
MODEL 7
REMARK VINA RESULT:      -6.8      2.966      9.363
REMARK  Name = 
REMARK  22 active torsions:
REMARK  status: ('A' for Active; 'I' for Inactive)
REMARK    1  A    between atoms: C_1  and  C_2
REMARK    2  A    between atoms: C_3  and  O_61
REMARK    3  A    between atoms: C_5  and  O_60
REMARK    4  A    between atoms: C_6  and  O_34
REMARK    5  A    between atoms: C_8  and  O_11
REMARK    6  A    between atoms: O_11  and  C_12
REMARK    7  A    between atoms: C_13  and  C_25
REMARK    8  A    between atoms: C_17  and  O_24
REMARK    9  A    between atoms: C_19  and  O_23
REMARK   10  A    between atoms: C_27  and  O_32
REMARK   11  A    between atoms: C_28  and  O_31
REMARK   12  A    between atoms: O_32  and  C_33
REMARK   13  A    between atoms: O_34  and  C_35
REMARK   14  A    between atoms: C_37  and  O_59
REMARK   15  A    between atoms: C_38  and  O_58
REMARK   16  A    between atoms: C_40  and  O_57
REMARK   17  A    between atoms: C_42  and  C_44
REMARK   18  A    between atoms: C_44  and  O_45
REMARK   19  A    between atoms: O_45  and  C_46
REMARK   20  A    between atoms: C_46  and  C_48
REMARK   21  A    between atoms: C_49  and  C_50
REMARK   22  A    between atoms: C_53  and  O_56
REMARK                            x       y       z     vdW  Elec       q    Type
REMARK                         _______ _______ _______ _____ _____    ______ ____
ROOT
ATOM      1  C   UNL     1       3.293  -6.317  23.180  0.00  0.00    +0.041 C 
ATOM      2  C   UNL     1       4.571  -5.877  23.888  0.00  0.00    +0.150 C 
ATOM      3  O   UNL     1       4.449  -4.831  24.865  0.00  0.00    -0.334 OA
ATOM      4  C   UNL     1       4.601  -3.421  24.516  0.00  0.00    +0.340 C 
ATOM      5  C   UNL     1       5.480  -3.040  23.201  0.00  0.00    +0.221 C 
ATOM      6  C   UNL     1       5.244  -4.199  22.238  0.00  0.00    +0.180 C 
ATOM      7  C   UNL     1       5.665  -5.536  22.913  0.00  0.00    +0.174 C 
ENDROOT
BRANCH   6   8
ATOM      8  O   UNL     1       5.709  -4.053  20.901  0.00  0.00    -0.386 OA
ATOM      9  H   UNL     1       6.680  -4.126  20.874  0.00  0.00    +0.210 HD
ENDBRANCH   6   8
BRANCH   7  10
ATOM     10  O   UNL     1       6.819  -5.531  23.784  0.00  0.00    -0.387 OA
ATOM     11  H   UNL     1       6.865  -6.395  24.249  0.00  0.00    +0.210 HD
ENDBRANCH   7  10
BRANCH   5  12
ATOM     12  O   UNL     1       6.901  -2.849  23.472  0.00  0.00    -0.337 OA
BRANCH  12  13
ATOM     13  C   UNL     1       7.279  -1.624  24.173  0.00  0.00    +0.282 C 
ATOM     14  O   UNL     1       7.756  -0.577  23.288  0.00  0.00    -0.339 OA
ATOM     15  C   UNL     1       8.859  -1.026  22.464  0.00  0.00    +0.190 C 
ATOM     16  C   UNL     1      10.079  -1.510  23.257  0.00  0.00    +0.178 C 
ATOM     17  C   UNL     1       9.690  -2.334  24.512  0.00  0.00    +0.179 C 
ATOM     18  C   UNL     1       8.417  -1.819  25.202  0.00  0.00    +0.201 C 
BRANCH  17  19
ATOM     19  O   UNL     1       9.480  -3.727  24.211  0.00  0.00    -0.386 OA
ATOM     20  H   UNL     1       9.179  -3.809  23.291  0.00  0.00    +0.210 HD
ENDBRANCH  17  19
BRANCH  16  21
ATOM     21  O   UNL     1      10.896  -0.413  23.648  0.00  0.00    -0.386 OA
ATOM     22  H   UNL     1      11.657  -0.413  23.036  0.00  0.00    +0.210 HD
ENDBRANCH  16  21
BRANCH  18  23
ATOM     23  O   UNL     1       8.042  -2.692  26.274  0.00  0.00    -0.384 OA
ATOM     24  H   UNL     1       7.301  -2.237  26.724  0.00  0.00    +0.210 HD
ENDBRANCH  18  23
BRANCH  15  25
ATOM     25  C   UNL     1       9.053  -0.135  21.203  0.00  0.00    +0.266 C 
BRANCH  25  26
ATOM     26  O   UNL     1       8.620   1.249  21.358  0.00  0.00    -0.459 OA
BRANCH  26  27
ATOM     27  C   UNL     1       9.398   2.075  22.091  0.00  0.00    +0.332 C 
ATOM     28  O   UNL     1      10.606   2.172  21.989  0.00  0.00    -0.246 OA
BRANCH  27  29
ATOM     29  C   UNL     1       8.581   2.844  23.058  0.00  0.00    +0.092 C 
ATOM     30  C   UNL     1       9.045   3.071  24.301  0.00  0.00    +0.015 C 
BRANCH  30  31
ATOM     31  C   UNL     1       8.302   3.719  25.394  0.00  0.00    -0.025 A 
ATOM     32  C   UNL     1       7.430   3.034  26.248  0.00  0.00    +0.011 A 
ATOM     33  C   UNL     1       6.765   3.723  27.273  0.00  0.00    +0.046 A 
ATOM     34  C   UNL     1       6.950   5.088  27.438  0.00  0.00    +0.117 A 
ATOM     35  C   UNL     1       7.780   5.793  26.578  0.00  0.00    +0.046 A 
ATOM     36  C   UNL     1       8.447   5.109  25.555  0.00  0.00    +0.011 A 
BRANCH  34  37
ATOM     37  O   UNL     1       6.296   5.698  28.466  0.00  0.00    -0.507 OA
ATOM     38  H   UNL     1       5.596   6.265  28.101  0.00  0.00    +0.292 HD
ENDBRANCH  34  37
ENDBRANCH  30  31
ENDBRANCH  27  29
ENDBRANCH  26  27
ENDBRANCH  25  26
ENDBRANCH  15  25
ENDBRANCH  12  13
ENDBRANCH   5  12
BRANCH   4  39
ATOM     39  O   UNL     1       5.137  -2.767  25.712  0.00  0.00    -0.453 OA
BRANCH  39  40
ATOM     40  C   UNL     1       4.276  -2.070  26.559  0.00  0.00    +0.214 A 
ATOM     41  C   UNL     1       4.234  -0.558  26.463  0.00  0.00    +0.238 A 
ATOM     42  O   UNL     1       5.052   0.050  25.781  0.00  0.00    -0.283 OA
ATOM     43  C   UNL     1       3.233   0.181  27.246  0.00  0.00    +0.109 A 
ATOM     44  C   UNL     1       2.542  -0.537  28.209  0.00  0.00    +0.147 A 
ATOM     45  C   UNL     1       1.606   0.093  29.044  0.00  0.00    +0.092 A 
ATOM     46  C   UNL     1       1.360   1.452  28.880  0.00  0.00    +0.124 A 
ATOM     47  C   UNL     1       2.041   2.189  27.923  0.00  0.00    +0.091 A 
ATOM     48  O   UNL     1       2.737  -1.874  28.410  0.00  0.00    -0.451 OA
ATOM     49  C   UNL     1       2.980   1.556  27.107  0.00  0.00    +0.135 A 
ATOM     50  C   UNL     1       3.574  -2.644  27.581  0.00  0.00    +0.181 A 
BRANCH  50  51
ATOM     51  C   UNL     1       3.567  -4.093  28.098  0.00  0.00    +0.025 A 
ATOM     52  C   UNL     1       2.295  -4.723  28.244  0.00  0.00    +0.015 A 
ATOM     53  C   UNL     1       2.119  -6.000  28.789  0.00  0.00    +0.050 A 
ATOM     54  C   UNL     1       3.227  -6.720  29.167  0.00  0.00    +0.158 A 
ATOM     55  C   UNL     1       4.513  -6.196  28.993  0.00  0.00    +0.162 A 
ATOM     56  C   UNL     1       4.681  -4.883  28.471  0.00  0.00    +0.061 A 
BRANCH  55  57
ATOM     57  O   UNL     1       5.488  -7.071  29.398  0.00  0.00    -0.491 OA
ATOM     58  C   UNL     1       6.305  -6.672  30.485  0.00  0.00    +0.277 C 
ENDBRANCH  55  57
BRANCH  54  59
ATOM     59  O   UNL     1       3.029  -7.968  29.696  0.00  0.00    -0.503 OA
ATOM     60  H   UNL     1       2.131  -8.230  29.416  0.00  0.00    +0.292 HD
ENDBRANCH  54  59
ENDBRANCH  50  51
BRANCH  49  61
ATOM     61  O   UNL     1       3.625   2.311  26.163  0.00  0.00    -0.506 OA
ATOM     62  H   UNL     1       4.327   1.784  25.749  0.00  0.00    +0.292 HD
ENDBRANCH  49  61
BRANCH  46  63
ATOM     63  O   UNL     1       0.443   2.104  29.649  0.00  0.00    -0.507 OA
ATOM     64  H   UNL     1       0.873   2.507  30.421  0.00  0.00    +0.292 HD
ENDBRANCH  46  63
ENDBRANCH  39  40
ENDBRANCH   4  39
TORSDOF 20
ENDMDL
MODEL 8
REMARK VINA RESULT:      -6.7      2.598      8.688
REMARK  Name = 
REMARK  22 active torsions:
REMARK  status: ('A' for Active; 'I' for Inactive)
REMARK    1  A    between atoms: C_1  and  C_2
REMARK    2  A    between atoms: C_3  and  O_61
REMARK    3  A    between atoms: C_5  and  O_60
REMARK    4  A    between atoms: C_6  and  O_34
REMARK    5  A    between atoms: C_8  and  O_11
REMARK    6  A    between atoms: O_11  and  C_12
REMARK    7  A    between atoms: C_13  and  C_25
REMARK    8  A    between atoms: C_17  and  O_24
REMARK    9  A    between atoms: C_19  and  O_23
REMARK   10  A    between atoms: C_27  and  O_32
REMARK   11  A    between atoms: C_28  and  O_31
REMARK   12  A    between atoms: O_32  and  C_33
REMARK   13  A    between atoms: O_34  and  C_35
REMARK   14  A    between atoms: C_37  and  O_59
REMARK   15  A    between atoms: C_38  and  O_58
REMARK   16  A    between atoms: C_40  and  O_57
REMARK   17  A    between atoms: C_42  and  C_44
REMARK   18  A    between atoms: C_44  and  O_45
REMARK   19  A    between atoms: O_45  and  C_46
REMARK   20  A    between atoms: C_46  and  C_48
REMARK   21  A    between atoms: C_49  and  C_50
REMARK   22  A    between atoms: C_53  and  O_56
REMARK                            x       y       z     vdW  Elec       q    Type
REMARK                         _______ _______ _______ _____ _____    ______ ____
ROOT
ATOM      1  C   UNL     1      10.184  -1.515  22.239  0.00  0.00    +0.041 C 
ATOM      2  C   UNL     1      10.416  -0.581  23.423  0.00  0.00    +0.150 C 
ATOM      3  O   UNL     1       9.506  -0.692  24.530  0.00  0.00    -0.334 OA
ATOM      4  C   UNL     1       8.287   0.107  24.617  0.00  0.00    +0.340 C 
ATOM      5  C   UNL     1       8.231   1.521  23.816  0.00  0.00    +0.221 C 
ATOM      6  C   UNL     1       9.083   1.289  22.572  0.00  0.00    +0.180 C 
ATOM      7  C   UNL     1      10.517   0.858  22.993  0.00  0.00    +0.174 C 
ENDROOT
BRANCH   6   8
ATOM      8  O   UNL     1       9.052   2.280  21.553  0.00  0.00    -0.386 OA
ATOM      9  H   UNL     1       8.155   2.650  21.472  0.00  0.00    +0.210 HD
ENDBRANCH   6   8
BRANCH   7  10
ATOM     10  O   UNL     1      11.095   1.459  24.176  0.00  0.00    -0.387 OA
ATOM     11  H   UNL     1      11.568   0.762  24.682  0.00  0.00    +0.210 HD
ENDBRANCH   7  10
BRANCH   5  12
ATOM     12  O   UNL     1       8.713   2.662  24.590  0.00  0.00    -0.337 OA
BRANCH  12  13
ATOM     13  C   UNL     1       7.699   3.500  25.226  0.00  0.00    +0.282 C 
ATOM     14  O   UNL     1       6.372   3.326  24.665  0.00  0.00    -0.339 OA
ATOM     15  C   UNL     1       6.356   3.545  23.234  0.00  0.00    +0.190 C 
ATOM     16  C   UNL     1       6.824   4.940  22.807  0.00  0.00    +0.178 C 
ATOM     17  C   UNL     1       8.035   5.445  23.633  0.00  0.00    +0.179 C 
ATOM     18  C   UNL     1       7.981   5.017  25.109  0.00  0.00    +0.201 C 
BRANCH  17  19
ATOM     19  O   UNL     1       9.293   4.988  23.101  0.00  0.00    -0.386 OA
ATOM     20  H   UNL     1       9.937   4.924  23.826  0.00  0.00    +0.210 HD
ENDBRANCH  17  19
BRANCH  16  21
ATOM     21  O   UNL     1       5.762   5.882  22.902  0.00  0.00    -0.386 OA
ATOM     22  H   UNL     1       4.948   5.358  23.030  0.00  0.00    +0.210 HD
ENDBRANCH  16  21
BRANCH  18  23
ATOM     23  O   UNL     1       9.181   5.405  25.785  0.00  0.00    -0.384 OA
ATOM     24  H   UNL     1       9.454   6.242  25.357  0.00  0.00    +0.210 HD
ENDBRANCH  18  23
BRANCH  15  25
ATOM     25  C   UNL     1       5.115   2.897  22.553  0.00  0.00    +0.266 C 
BRANCH  25  26
ATOM     26  O   UNL     1       3.909   3.719  22.568  0.00  0.00    -0.459 OA
BRANCH  26  27
ATOM     27  C   UNL     1       2.834   3.249  23.237  0.00  0.00    +0.332 C 
ATOM     28  O   UNL     1       1.872   2.709  22.724  0.00  0.00    -0.246 OA
BRANCH  27  29
ATOM     29  C   UNL     1       2.973   3.494  24.691  0.00  0.00    +0.092 C 
ATOM     30  C   UNL     1       3.101   4.752  25.152  0.00  0.00    +0.015 C 
BRANCH  30  31
ATOM     31  C   UNL     1       3.355   5.136  26.550  0.00  0.00    -0.025 A 
ATOM     32  C   UNL     1       2.341   5.320  27.498  0.00  0.00    +0.011 A 
ATOM     33  C   UNL     1       2.666   5.677  28.814  0.00  0.00    +0.046 A 
ATOM     34  C   UNL     1       3.989   5.868  29.185  0.00  0.00    +0.117 A 
ATOM     35  C   UNL     1       5.006   5.728  28.252  0.00  0.00    +0.046 A 
ATOM     36  C   UNL     1       4.687   5.370  26.937  0.00  0.00    +0.011 A 
BRANCH  34  37
ATOM     37  O   UNL     1       4.245   6.191  30.484  0.00  0.00    -0.507 OA
ATOM     38  H   UNL     1       3.566   6.813  30.793  0.00  0.00    +0.292 HD
ENDBRANCH  34  37
ENDBRANCH  30  31
ENDBRANCH  27  29
ENDBRANCH  26  27
ENDBRANCH  25  26
ENDBRANCH  15  25
ENDBRANCH  12  13
ENDBRANCH   5  12
BRANCH   4  39
ATOM     39  O   UNL     1       8.037   0.304  26.046  0.00  0.00    -0.453 OA
BRANCH  39  40
ATOM     40  C   UNL     1       6.884  -0.227  26.623  0.00  0.00    +0.214 A 
ATOM     41  C   UNL     1       6.055   0.661  27.530  0.00  0.00    +0.238 A 
ATOM     42  O   UNL     1       6.471   1.759  27.884  0.00  0.00    -0.283 OA
ATOM     43  C   UNL     1       4.765   0.166  28.032  0.00  0.00    +0.109 A 
ATOM     44  C   UNL     1       4.495  -1.180  27.834  0.00  0.00    +0.147 A 
ATOM     45  C   UNL     1       3.314  -1.758  28.325  0.00  0.00    +0.092 A 
ATOM     46  C   UNL     1       2.399  -0.956  28.999  0.00  0.00    +0.124 A 
ATOM     47  C   UNL     1       2.649   0.391  29.208  0.00  0.00    +0.091 A 
ATOM     48  O   UNL     1       5.354  -2.013  27.174  0.00  0.00    -0.451 OA
ATOM     49  C   UNL     1       3.833   0.953  28.727  0.00  0.00    +0.135 A 
ATOM     50  C   UNL     1       6.524  -1.543  26.550  0.00  0.00    +0.181 A 
BRANCH  50  51
ATOM     51  C   UNL     1       7.251  -2.743  25.917  0.00  0.00    +0.025 A 
ATOM     52  C   UNL     1       8.273  -3.365  26.695  0.00  0.00    +0.015 A 
ATOM     53  C   UNL     1       9.083  -4.403  26.223  0.00  0.00    +0.050 A 
ATOM     54  C   UNL     1       8.866  -4.895  24.959  0.00  0.00    +0.158 A 
ATOM     55  C   UNL     1       7.838  -4.382  24.160  0.00  0.00    +0.162 A 
ATOM     56  C   UNL     1       7.041  -3.302  24.634  0.00  0.00    +0.061 A 
BRANCH  55  57
ATOM     57  O   UNL     1       7.755  -5.018  22.948  0.00  0.00    -0.491 OA
ATOM     58  C   UNL     1       6.825  -4.507  22.010  0.00  0.00    +0.277 C 
ENDBRANCH  55  57
BRANCH  54  59
ATOM     59  O   UNL     1       9.672  -5.912  24.520  0.00  0.00    -0.503 OA
ATOM     60  H   UNL     1       9.575  -5.919  23.548  0.00  0.00    +0.292 HD
ENDBRANCH  54  59
ENDBRANCH  50  51
BRANCH  49  61
ATOM     61  O   UNL     1       4.043   2.290  28.939  0.00  0.00    -0.506 OA
ATOM     62  H   UNL     1       4.789   2.410  29.548  0.00  0.00    +0.292 HD
ENDBRANCH  49  61
BRANCH  46  63
ATOM     63  O   UNL     1       1.227  -1.465  29.474  0.00  0.00    -0.507 OA
ATOM     64  H   UNL     1       0.904  -2.172  28.893  0.00  0.00    +0.292 HD
ENDBRANCH  46  63
ENDBRANCH  39  40
ENDBRANCH   4  39
TORSDOF 20
ENDMDL
MODEL 9
REMARK VINA RESULT:      -6.6      2.509      9.236
REMARK  Name = 
REMARK  22 active torsions:
REMARK  status: ('A' for Active; 'I' for Inactive)
REMARK    1  A    between atoms: C_1  and  C_2
REMARK    2  A    between atoms: C_3  and  O_61
REMARK    3  A    between atoms: C_5  and  O_60
REMARK    4  A    between atoms: C_6  and  O_34
REMARK    5  A    between atoms: C_8  and  O_11
REMARK    6  A    between atoms: O_11  and  C_12
REMARK    7  A    between atoms: C_13  and  C_25
REMARK    8  A    between atoms: C_17  and  O_24
REMARK    9  A    between atoms: C_19  and  O_23
REMARK   10  A    between atoms: C_27  and  O_32
REMARK   11  A    between atoms: C_28  and  O_31
REMARK   12  A    between atoms: O_32  and  C_33
REMARK   13  A    between atoms: O_34  and  C_35
REMARK   14  A    between atoms: C_37  and  O_59
REMARK   15  A    between atoms: C_38  and  O_58
REMARK   16  A    between atoms: C_40  and  O_57
REMARK   17  A    between atoms: C_42  and  C_44
REMARK   18  A    between atoms: C_44  and  O_45
REMARK   19  A    between atoms: O_45  and  C_46
REMARK   20  A    between atoms: C_46  and  C_48
REMARK   21  A    between atoms: C_49  and  C_50
REMARK   22  A    between atoms: C_53  and  O_56
REMARK                            x       y       z     vdW  Elec       q    Type
REMARK                         _______ _______ _______ _____ _____    ______ ____
ROOT
ATOM      1  C   UNL     1       8.578   0.284  23.978  0.00  0.00    +0.041 C 
ATOM      2  C   UNL     1       8.029   0.694  25.341  0.00  0.00    +0.150 C 
ATOM      3  O   UNL     1       7.486  -0.350  26.167  0.00  0.00    -0.334 OA
ATOM      4  C   UNL     1       6.073  -0.718  26.125  0.00  0.00    +0.340 C 
ATOM      5  C   UNL     1       4.999   0.395  25.622  0.00  0.00    +0.221 C 
ATOM      6  C   UNL     1       5.760   1.217  24.586  0.00  0.00    +0.180 C 
ATOM      7  C   UNL     1       7.039   1.821  25.232  0.00  0.00    +0.174 C 
ENDROOT
BRANCH   6   8
ATOM      8  O   UNL     1       5.017   2.140  23.798  0.00  0.00    -0.386 OA
ATOM      9  H   UNL     1       4.369   2.609  24.353  0.00  0.00    +0.210 HD
ENDBRANCH   6   8
BRANCH   7  10
ATOM     10  O   UNL     1       6.969   2.261  26.609  0.00  0.00    -0.387 OA
ATOM     11  H   UNL     1       7.538   1.674  27.154  0.00  0.00    +0.210 HD
ENDBRANCH   7  10
BRANCH   5  12
ATOM     12  O   UNL     1       4.471   1.237  26.691  0.00  0.00    -0.337 OA
BRANCH  12  13
ATOM     13  C   UNL     1       3.211   1.926  26.424  0.00  0.00    +0.282 C 
ATOM     14  O   UNL     1       3.382   3.321  26.059  0.00  0.00    -0.339 OA
ATOM     15  C   UNL     1       4.135   4.052  27.057  0.00  0.00    +0.190 C 
ATOM     16  C   UNL     1       3.500   4.046  28.452  0.00  0.00    +0.178 C 
ATOM     17  C   UNL     1       2.890   2.671  28.827  0.00  0.00    +0.179 C 
ATOM     18  C   UNL     1       2.245   1.950  27.632  0.00  0.00    +0.201 C 
BRANCH  17  19
ATOM     19  O   UNL     1       3.863   1.773  29.394  0.00  0.00    -0.386 OA
ATOM     20  H   UNL     1       3.931   1.945  30.349  0.00  0.00    +0.210 HD
ENDBRANCH  17  19
BRANCH  16  21
ATOM     21  O   UNL     1       2.499   5.051  28.558  0.00  0.00    -0.386 OA
ATOM     22  H   UNL     1       2.422   5.255  29.510  0.00  0.00    +0.210 HD
ENDBRANCH  16  21
BRANCH  18  23
ATOM     23  O   UNL     1       1.813   0.639  28.014  0.00  0.00    -0.384 OA
ATOM     24  H   UNL     1       2.549   0.277  28.550  0.00  0.00    +0.210 HD
ENDBRANCH  18  23
BRANCH  15  25
ATOM     25  C   UNL     1       4.749   5.363  26.486  0.00  0.00    +0.266 C 
BRANCH  25  26
ATOM     26  O   UNL     1       6.047   5.202  25.841  0.00  0.00    -0.459 OA
BRANCH  26  27
ATOM     27  C   UNL     1       6.080   5.165  24.491  0.00  0.00    +0.332 C 
ATOM     28  O   UNL     1       5.119   5.329  23.763  0.00  0.00    -0.246 OA
BRANCH  27  29
ATOM     29  C   UNL     1       7.450   4.881  24.007  0.00  0.00    +0.092 C 
ATOM     30  C   UNL     1       8.515   5.338  24.692  0.00  0.00    +0.015 C 
BRANCH  30  31
ATOM     31  C   UNL     1       9.922   5.227  24.274  0.00  0.00    -0.025 A 
ATOM     32  C   UNL     1      10.449   4.105  23.623  0.00  0.00    +0.011 A 
ATOM     33  C   UNL     1      11.799   4.080  23.249  0.00  0.00    +0.046 A 
ATOM     34  C   UNL     1      12.629   5.155  23.534  0.00  0.00    +0.117 A 
ATOM     35  C   UNL     1      12.136   6.260  24.212  0.00  0.00    +0.046 A 
ATOM     36  C   UNL     1      10.788   6.290  24.587  0.00  0.00    +0.011 A 
BRANCH  34  37
ATOM     37  O   UNL     1      13.926   5.083  23.125  0.00  0.00    -0.507 OA
ATOM     38  H   UNL     1      14.065   4.237  22.667  0.00  0.00    +0.292 HD
ENDBRANCH  34  37
ENDBRANCH  30  31
ENDBRANCH  27  29
ENDBRANCH  26  27
ENDBRANCH  25  26
ENDBRANCH  15  25
ENDBRANCH  12  13
ENDBRANCH   5  12
BRANCH   4  39
ATOM     39  O   UNL     1       5.743  -1.195  27.469  0.00  0.00    -0.453 OA
BRANCH  39  40
ATOM     40  C   UNL     1       4.959  -2.338  27.621  0.00  0.00    +0.214 A 
ATOM     41  C   UNL     1       3.741  -2.264  28.521  0.00  0.00    +0.238 A 
ATOM     42  O   UNL     1       3.542  -1.283  29.229  0.00  0.00    -0.283 OA
ATOM     43  C   UNL     1       2.826  -3.413  28.581  0.00  0.00    +0.109 A 
ATOM     44  C   UNL     1       3.262  -4.588  27.988  0.00  0.00    +0.147 A 
ATOM     45  C   UNL     1       2.483  -5.755  28.041  0.00  0.00    +0.092 A 
ATOM     46  C   UNL     1       1.248  -5.714  28.679  0.00  0.00    +0.124 A 
ATOM     47  C   UNL     1       0.793  -4.550  29.280  0.00  0.00    +0.091 A 
ATOM     48  O   UNL     1       4.462  -4.685  27.341  0.00  0.00    -0.451 OA
ATOM     49  C   UNL     1       1.582  -3.399  29.233  0.00  0.00    +0.135 A 
ATOM     50  C   UNL     1       5.294  -3.569  27.133  0.00  0.00    +0.181 A 
BRANCH  50  51
ATOM     51  C   UNL     1       6.556  -4.039  26.389  0.00  0.00    +0.025 A 
ATOM     52  C   UNL     1       7.504  -4.800  27.136  0.00  0.00    +0.015 A 
ATOM     53  C   UNL     1       8.738  -5.217  26.628  0.00  0.00    +0.050 A 
ATOM     54  C   UNL     1       9.053  -4.927  25.322  0.00  0.00    +0.158 A 
ATOM     55  C   UNL     1       8.145  -4.243  24.505  0.00  0.00    +0.162 A 
ATOM     56  C   UNL     1       6.907  -3.790  25.040  0.00  0.00    +0.061 A 
BRANCH  55  57
ATOM     57  O   UNL     1       8.621  -4.074  23.229  0.00  0.00    -0.491 OA
ATOM     58  C   UNL     1       8.104  -2.986  22.484  0.00  0.00    +0.277 C 
ENDBRANCH  55  57
BRANCH  54  59
ATOM     59  O   UNL     1      10.267  -5.347  24.846  0.00  0.00    -0.503 OA
ATOM     60  H   UNL     1      10.588  -6.002  25.495  0.00  0.00    +0.292 HD
ENDBRANCH  54  59
ENDBRANCH  50  51
BRANCH  49  61
ATOM     61  O   UNL     1       1.097  -2.262  29.824  0.00  0.00    -0.506 OA
ATOM     62  H   UNL     1       1.825  -1.641  29.980  0.00  0.00    +0.292 HD
ENDBRANCH  49  61
BRANCH  46  63
ATOM     63  O   UNL     1       0.443  -6.813  28.737  0.00  0.00    -0.507 OA
ATOM     64  H   UNL     1      -0.249  -6.692  29.407  0.00  0.00    +0.292 HD
ENDBRANCH  46  63
ENDBRANCH  39  40
ENDBRANCH   4  39
TORSDOF 20
ENDMDL
