MODEL 1
REMARK VINA RESULT:      -7.4      0.000      0.000
REMARK  Name = 
REMARK  17 active torsions:
REMARK  status: ('A' for Active; 'I' for Inactive)
REMARK    1  A    between atoms: C_1  and  C_2
REMARK    2  A    between atoms: C_3  and  O_52
REMARK    3  A    between atoms: C_5  and  O_51
REMARK    4  A    between atoms: C_7  and  O_50
REMARK    5  A    between atoms: C_9  and  O_12
REMARK    6  A    between atoms: O_12  and  C_13
REMARK    7  A    between atoms: C_13  and  C_14
REMARK    8  A    between atoms: C_16  and  O_49
REMARK    9  A    between atoms: C_18  and  O_48
REMARK   10  A    between atoms: C_20  and  O_47
REMARK   11  A    between atoms: C_22  and  O_25
REMARK   12  A    between atoms: O_25  and  C_26
REMARK   13  A    between atoms: C_27  and  C_39
REMARK   14  A    between atoms: C_31  and  O_38
REMARK   15  A    between atoms: C_33  and  O_37
REMARK   16  A    between atoms: C_41  and  O_46
REMARK   17  A    between atoms: C_42  and  O_45
REMARK                            x       y       z     vdW  Elec       q    Type
REMARK                         _______ _______ _______ _____ _____    ______ ____
ROOT
ATOM      1  C   UNL     1       5.665  -1.498  25.801  0.00  0.00    +0.179 C 
ATOM      2  O   UNL     1       5.565  -0.508  24.764  0.00  0.00    -0.331 OA
ATOM      3  C   UNL     1       6.064   0.753  25.218  0.00  0.00    +0.340 C 
ATOM      4  C   UNL     1       5.035   1.313  26.230  0.00  0.00    +0.214 C 
ATOM      5  C   UNL     1       4.937   0.267  27.384  0.00  0.00    +0.180 C 
ATOM      6  C   UNL     1       4.632  -1.155  26.874  0.00  0.00    +0.177 C 
ENDROOT
BRANCH   6   7
ATOM      7  O   UNL     1       4.698  -2.057  27.987  0.00  0.00    -0.386 OA
ATOM      8  H   UNL     1       5.370  -1.694  28.595  0.00  0.00    +0.210 HD
ENDBRANCH   6   7
BRANCH   5   9
ATOM      9  O   UNL     1       3.969   0.642  28.371  0.00  0.00    -0.386 OA
ATOM     10  H   UNL     1       3.532  -0.199  28.627  0.00  0.00    +0.210 HD
ENDBRANCH   5   9
BRANCH   4  11
ATOM     11  O   UNL     1       5.473   2.587  26.730  0.00  0.00    -0.383 OA
ATOM     12  H   UNL     1       6.409   2.696  26.483  0.00  0.00    +0.210 HD
ENDBRANCH   4  11
BRANCH   3  13
ATOM     13  O   UNL     1       6.384   1.601  24.086  0.00  0.00    -0.453 OA
BRANCH  13  14
ATOM     14  C   UNL     1       7.723   2.042  24.076  0.00  0.00    +0.214 A 
ATOM     15  C   UNL     1       8.079   3.423  24.572  0.00  0.00    +0.238 A 
ATOM     16  O   UNL     1       7.462   4.016  25.451  0.00  0.00    -0.283 OA
ATOM     17  C   UNL     1       9.288   4.049  24.077  0.00  0.00    +0.109 A 
ATOM     18  C   UNL     1      10.285   3.186  23.676  0.00  0.00    +0.147 A 
ATOM     19  C   UNL     1      11.551   3.690  23.356  0.00  0.00    +0.092 A 
ATOM     20  C   UNL     1      11.773   5.065  23.458  0.00  0.00    +0.124 A 
ATOM     21  C   UNL     1      10.760   5.940  23.837  0.00  0.00    +0.091 A 
ATOM     22  O   UNL     1      10.097   1.833  23.634  0.00  0.00    -0.451 OA
ATOM     23  C   UNL     1       9.501   5.430  24.134  0.00  0.00    +0.135 A 
ATOM     24  C   UNL     1       8.803   1.280  23.742  0.00  0.00    +0.181 A 
BRANCH  24  25
ATOM     25  C   UNL     1       8.871  -0.222  23.557  0.00  0.00    +0.025 A 
ATOM     26  C   UNL     1       9.669  -0.975  24.467  0.00  0.00    +0.015 A 
ATOM     27  C   UNL     1       9.630  -2.373  24.540  0.00  0.00    +0.050 A 
ATOM     28  C   UNL     1       8.806  -3.056  23.675  0.00  0.00    +0.158 A 
ATOM     29  C   UNL     1       8.096  -2.365  22.699  0.00  0.00    +0.159 A 
ATOM     30  C   UNL     1       8.113  -0.963  22.636  0.00  0.00    +0.060 A 
BRANCH  29  31
ATOM     31  O   UNL     1       7.376  -3.122  21.811  0.00  0.00    -0.503 OA
ATOM     32  H   UNL     1       6.773  -2.520  21.340  0.00  0.00    +0.292 HD
ENDBRANCH  29  31
BRANCH  28  33
ATOM     33  O   UNL     1       8.693  -4.411  23.795  0.00  0.00    -0.503 OA
ATOM     34  H   UNL     1       7.733  -4.585  23.732  0.00  0.00    +0.292 HD
ENDBRANCH  28  33
ENDBRANCH  24  25
BRANCH  23  35
ATOM     35  O   UNL     1       8.495   6.288  24.470  0.00  0.00    -0.506 OA
ATOM     36  H   UNL     1       8.795   6.881  25.179  0.00  0.00    +0.292 HD
ENDBRANCH  23  35
BRANCH  20  37
ATOM     37  O   UNL     1      12.993   5.613  23.200  0.00  0.00    -0.507 OA
ATOM     38  H   UNL     1      13.672   5.137  23.706  0.00  0.00    +0.292 HD
ENDBRANCH  20  37
ENDBRANCH  13  14
ENDBRANCH   3  13
BRANCH   1  39
ATOM     39  C   UNL     1       5.508  -2.888  25.187  0.00  0.00    +0.197 C 
BRANCH  39  40
ATOM     40  O   UNL     1       6.341  -3.804  25.885  0.00  0.00    -0.346 OA
BRANCH  40  44
ATOM     41  C   UNL     1       3.233  -6.832  26.401  0.00  0.00    +0.041 C 
ATOM     42  C   UNL     1       3.433  -5.565  27.227  0.00  0.00    +0.149 C 
ATOM     43  O   UNL     1       4.239  -4.594  26.552  0.00  0.00    -0.343 OA
ATOM     44  C   UNL     1       5.624  -4.913  26.432  0.00  0.00    +0.282 C 
ATOM     45  C   UNL     1       6.293  -5.210  27.791  0.00  0.00    +0.201 C 
ATOM     46  C   UNL     1       5.460  -6.164  28.652  0.00  0.00    +0.179 C 
ATOM     47  C   UNL     1       3.977  -5.777  28.646  0.00  0.00    +0.174 C 
BRANCH  47  48
ATOM     48  O   UNL     1       3.829  -4.540  29.366  0.00  0.00    -0.387 OA
ATOM     49  H   UNL     1       4.231  -3.830  28.825  0.00  0.00    +0.210 HD
ENDBRANCH  47  48
BRANCH  46  50
ATOM     50  O   UNL     1       5.665  -7.526  28.249  0.00  0.00    -0.386 OA
ATOM     51  H   UNL     1       4.816  -7.999  28.246  0.00  0.00    +0.210 HD
ENDBRANCH  46  50
BRANCH  45  52
ATOM     52  O   UNL     1       7.607  -5.763  27.574  0.00  0.00    -0.384 OA
ATOM     53  H   UNL     1       8.236  -5.254  28.118  0.00  0.00    +0.210 HD
ENDBRANCH  45  52
ENDBRANCH  40  44
ENDBRANCH  39  40
ENDBRANCH   1  39
TORSDOF 16
ENDMDL
MODEL 2
REMARK VINA RESULT:      -7.3      1.817      2.678
REMARK  Name = 
REMARK  17 active torsions:
REMARK  status: ('A' for Active; 'I' for Inactive)
REMARK    1  A    between atoms: C_1  and  C_2
REMARK    2  A    between atoms: C_3  and  O_52
REMARK    3  A    between atoms: C_5  and  O_51
REMARK    4  A    between atoms: C_7  and  O_50
REMARK    5  A    between atoms: C_9  and  O_12
REMARK    6  A    between atoms: O_12  and  C_13
REMARK    7  A    between atoms: C_13  and  C_14
REMARK    8  A    between atoms: C_16  and  O_49
REMARK    9  A    between atoms: C_18  and  O_48
REMARK   10  A    between atoms: C_20  and  O_47
REMARK   11  A    between atoms: C_22  and  O_25
REMARK   12  A    between atoms: O_25  and  C_26
REMARK   13  A    between atoms: C_27  and  C_39
REMARK   14  A    between atoms: C_31  and  O_38
REMARK   15  A    between atoms: C_33  and  O_37
REMARK   16  A    between atoms: C_41  and  O_46
REMARK   17  A    between atoms: C_42  and  O_45
REMARK                            x       y       z     vdW  Elec       q    Type
REMARK                         _______ _______ _______ _____ _____    ______ ____
ROOT
ATOM      1  C   UNL     1       5.319  -0.301  26.175  0.00  0.00    +0.179 C 
ATOM      2  O   UNL     1       5.539   0.215  24.852  0.00  0.00    -0.331 OA
ATOM      3  C   UNL     1       5.971   1.577  24.905  0.00  0.00    +0.340 C 
ATOM      4  C   UNL     1       4.749   2.427  25.329  0.00  0.00    +0.214 C 
ATOM      5  C   UNL     1       4.305   1.894  26.727  0.00  0.00    +0.180 C 
ATOM      6  C   UNL     1       4.066   0.372  26.735  0.00  0.00    +0.177 C 
ENDROOT
BRANCH   6   7
ATOM      7  O   UNL     1       3.798  -0.035  28.084  0.00  0.00    -0.386 OA
ATOM      8  H   UNL     1       4.260   0.604  28.660  0.00  0.00    +0.210 HD
ENDBRANCH   6   7
BRANCH   5   9
ATOM      9  O   UNL     1       3.138   2.568  27.216  0.00  0.00    -0.386 OA
ATOM     10  H   UNL     1       2.556   1.851  27.548  0.00  0.00    +0.210 HD
ENDBRANCH   5   9
BRANCH   4  11
ATOM     11  O   UNL     1       5.112   3.815  25.402  0.00  0.00    -0.383 OA
ATOM     12  H   UNL     1       5.020   4.194  24.509  0.00  0.00    +0.210 HD
ENDBRANCH   4  11
BRANCH   3  13
ATOM     13  O   UNL     1       6.613   1.946  23.657  0.00  0.00    -0.453 OA
BRANCH  13  14
ATOM     14  C   UNL     1       7.960   2.330  23.813  0.00  0.00    +0.214 A 
ATOM     15  C   UNL     1       8.321   3.774  24.072  0.00  0.00    +0.238 A 
ATOM     16  O   UNL     1       7.601   4.562  24.675  0.00  0.00    -0.283 OA
ATOM     17  C   UNL     1       9.641   4.238  23.698  0.00  0.00    +0.109 A 
ATOM     18  C   UNL     1      10.629   3.277  23.683  0.00  0.00    +0.147 A 
ATOM     19  C   UNL     1      11.965   3.658  23.514  0.00  0.00    +0.092 A 
ATOM     20  C   UNL     1      12.264   5.014  23.370  0.00  0.00    +0.124 A 
ATOM     21  C   UNL     1      11.265   5.983  23.360  0.00  0.00    +0.091 A 
ATOM     22  O   UNL     1      10.354   1.953  23.886  0.00  0.00    -0.451 OA
ATOM     23  C   UNL     1       9.940   5.591  23.510  0.00  0.00    +0.135 A 
ATOM     24  C   UNL     1       9.025   1.480  23.856  0.00  0.00    +0.181 A 
BRANCH  24  25
ATOM     25  C   UNL     1       9.016  -0.029  24.001  0.00  0.00    +0.025 A 
ATOM     26  C   UNL     1       9.449  -0.812  22.892  0.00  0.00    +0.015 A 
ATOM     27  C   UNL     1       9.700  -2.187  22.981  0.00  0.00    +0.050 A 
ATOM     28  C   UNL     1       9.493  -2.819  24.186  0.00  0.00    +0.158 A 
ATOM     29  C   UNL     1       8.965  -2.112  25.261  0.00  0.00    +0.159 A 
ATOM     30  C   UNL     1       8.734  -0.729  25.185  0.00  0.00    +0.060 A 
BRANCH  29  31
ATOM     31  O   UNL     1       8.693  -2.832  26.396  0.00  0.00    -0.503 OA
ATOM     32  H   UNL     1       9.478  -3.373  26.590  0.00  0.00    +0.292 HD
ENDBRANCH  29  31
BRANCH  28  33
ATOM     33  O   UNL     1       9.819  -4.139  24.309  0.00  0.00    -0.503 OA
ATOM     34  H   UNL     1      10.785  -4.143  24.458  0.00  0.00    +0.292 HD
ENDBRANCH  28  33
ENDBRANCH  24  25
BRANCH  23  35
ATOM     35  O   UNL     1       8.956   6.533  23.463  0.00  0.00    -0.506 OA
ATOM     36  H   UNL     1       9.339   7.395  23.229  0.00  0.00    +0.292 HD
ENDBRANCH  23  35
BRANCH  20  37
ATOM     37  O   UNL     1      13.548   5.453  23.242  0.00  0.00    -0.507 OA
ATOM     38  H   UNL     1      14.059   5.180  24.022  0.00  0.00    +0.292 HD
ENDBRANCH  20  37
ENDBRANCH  13  14
ENDBRANCH   3  13
BRANCH   1  39
ATOM     39  C   UNL     1       5.249  -1.826  26.117  0.00  0.00    +0.197 C 
BRANCH  39  40
ATOM     40  O   UNL     1       4.204  -2.212  25.235  0.00  0.00    -0.346 OA
BRANCH  40  44
ATOM     41  C   UNL     1       3.966  -6.318  23.759  0.00  0.00    +0.041 C 
ATOM     42  C   UNL     1       4.986  -5.748  24.738  0.00  0.00    +0.149 C 
ATOM     43  O   UNL     1       4.544  -4.528  25.341  0.00  0.00    -0.343 OA
ATOM     44  C   UNL     1       4.508  -3.389  24.483  0.00  0.00    +0.282 C 
ATOM     45  C   UNL     1       5.864  -3.106  23.802  0.00  0.00    +0.201 C 
ATOM     46  C   UNL     1       6.491  -4.371  23.209  0.00  0.00    +0.179 C 
ATOM     47  C   UNL     1       6.404  -5.552  24.182  0.00  0.00    +0.174 C 
BRANCH  47  48
ATOM     48  O   UNL     1       7.283  -5.292  25.291  0.00  0.00    -0.387 OA
ATOM     49  H   UNL     1       7.614  -6.154  25.616  0.00  0.00    +0.210 HD
ENDBRANCH  47  48
BRANCH  46  50
ATOM     50  O   UNL     1       5.911  -4.678  21.932  0.00  0.00    -0.386 OA
ATOM     51  H   UNL     1       4.942  -4.696  22.007  0.00  0.00    +0.210 HD
ENDBRANCH  46  50
BRANCH  45  52
ATOM     52  O   UNL     1       5.693  -2.112  22.772  0.00  0.00    -0.384 OA
ATOM     53  H   UNL     1       6.306  -1.379  22.963  0.00  0.00    +0.210 HD
ENDBRANCH  45  52
ENDBRANCH  40  44
ENDBRANCH  39  40
ENDBRANCH   1  39
TORSDOF 16
ENDMDL
MODEL 3
REMARK VINA RESULT:      -7.3      2.162      5.629
REMARK  Name = 
REMARK  17 active torsions:
REMARK  status: ('A' for Active; 'I' for Inactive)
REMARK    1  A    between atoms: C_1  and  C_2
REMARK    2  A    between atoms: C_3  and  O_52
REMARK    3  A    between atoms: C_5  and  O_51
REMARK    4  A    between atoms: C_7  and  O_50
REMARK    5  A    between atoms: C_9  and  O_12
REMARK    6  A    between atoms: O_12  and  C_13
REMARK    7  A    between atoms: C_13  and  C_14
REMARK    8  A    between atoms: C_16  and  O_49
REMARK    9  A    between atoms: C_18  and  O_48
REMARK   10  A    between atoms: C_20  and  O_47
REMARK   11  A    between atoms: C_22  and  O_25
REMARK   12  A    between atoms: O_25  and  C_26
REMARK   13  A    between atoms: C_27  and  C_39
REMARK   14  A    between atoms: C_31  and  O_38
REMARK   15  A    between atoms: C_33  and  O_37
REMARK   16  A    between atoms: C_41  and  O_46
REMARK   17  A    between atoms: C_42  and  O_45
REMARK                            x       y       z     vdW  Elec       q    Type
REMARK                         _______ _______ _______ _____ _____    ______ ____
ROOT
ATOM      1  C   UNL     1       6.185  -2.973  26.551  0.00  0.00    +0.179 C 
ATOM      2  O   UNL     1       7.449  -2.387  26.195  0.00  0.00    -0.331 OA
ATOM      3  C   UNL     1       8.222  -3.294  25.404  0.00  0.00    +0.340 C 
ATOM      4  C   UNL     1       8.701  -4.425  26.346  0.00  0.00    +0.214 C 
ATOM      5  C   UNL     1       7.414  -5.095  26.921  0.00  0.00    +0.180 C 
ATOM      6  C   UNL     1       6.455  -4.078  27.571  0.00  0.00    +0.177 C 
ENDROOT
BRANCH   6   7
ATOM      7  O   UNL     1       5.253  -4.768  27.943  0.00  0.00    -0.386 OA
ATOM      8  H   UNL     1       5.492  -5.711  28.025  0.00  0.00    +0.210 HD
ENDBRANCH   6   7
BRANCH   5   9
ATOM      9  O   UNL     1       7.720  -6.135  27.858  0.00  0.00    -0.386 OA
ATOM     10  H   UNL     1       7.628  -6.968  27.347  0.00  0.00    +0.210 HD
ENDBRANCH   5   9
BRANCH   4  11
ATOM     11  O   UNL     1       9.490  -5.378  25.614  0.00  0.00    -0.383 OA
ATOM     12  H   UNL     1       9.190  -6.270  25.869  0.00  0.00    +0.210 HD
ENDBRANCH   4  11
BRANCH   3  13
ATOM     13  O   UNL     1       9.253  -2.573  24.683  0.00  0.00    -0.453 OA
BRANCH  13  14
ATOM     14  C   UNL     1       8.751  -1.526  23.884  0.00  0.00    +0.214 A 
ATOM     15  C   UNL     1       9.515  -0.230  23.750  0.00  0.00    +0.238 A 
ATOM     16  O   UNL     1      10.737  -0.145  23.810  0.00  0.00    -0.283 OA
ATOM     17  C   UNL     1       8.785   0.975  23.410  0.00  0.00    +0.109 A 
ATOM     18  C   UNL     1       7.624   0.786  22.692  0.00  0.00    +0.147 A 
ATOM     19  C   UNL     1       6.949   1.892  22.162  0.00  0.00    +0.092 A 
ATOM     20  C   UNL     1       7.478   3.166  22.371  0.00  0.00    +0.124 A 
ATOM     21  C   UNL     1       8.636   3.360  23.118  0.00  0.00    +0.091 A 
ATOM     22  O   UNL     1       7.132  -0.461  22.428  0.00  0.00    -0.451 OA
ATOM     23  C   UNL     1       9.288   2.257  23.655  0.00  0.00    +0.135 A 
ATOM     24  C   UNL     1       7.640  -1.595  23.097  0.00  0.00    +0.181 A 
BRANCH  24  25
ATOM     25  C   UNL     1       6.849  -2.823  22.697  0.00  0.00    +0.025 A 
ATOM     26  C   UNL     1       7.549  -3.902  22.082  0.00  0.00    +0.015 A 
ATOM     27  C   UNL     1       6.979  -5.164  21.878  0.00  0.00    +0.050 A 
ATOM     28  C   UNL     1       5.674  -5.369  22.262  0.00  0.00    +0.158 A 
ATOM     29  C   UNL     1       4.922  -4.312  22.764  0.00  0.00    +0.159 A 
ATOM     30  C   UNL     1       5.494  -3.050  22.992  0.00  0.00    +0.060 A 
BRANCH  29  31
ATOM     31  O   UNL     1       3.602  -4.568  23.029  0.00  0.00    -0.503 OA
ATOM     32  H   UNL     1       3.330  -3.969  23.747  0.00  0.00    +0.292 HD
ENDBRANCH  29  31
BRANCH  28  33
ATOM     33  O   UNL     1       5.136  -6.619  22.151  0.00  0.00    -0.503 OA
ATOM     34  H   UNL     1       4.422  -6.641  22.818  0.00  0.00    +0.292 HD
ENDBRANCH  28  33
ENDBRANCH  24  25
BRANCH  23  35
ATOM     35  O   UNL     1      10.402   2.445  24.418  0.00  0.00    -0.506 OA
ATOM     36  H   UNL     1      10.366   1.867  25.198  0.00  0.00    +0.292 HD
ENDBRANCH  23  35
BRANCH  20  37
ATOM     37  O   UNL     1       6.891   4.279  21.848  0.00  0.00    -0.507 OA
ATOM     38  H   UNL     1       6.950   5.005  22.491  0.00  0.00    +0.292 HD
ENDBRANCH  20  37
ENDBRANCH  13  14
ENDBRANCH   3  13
BRANCH   1  39
ATOM     39  C   UNL     1       5.240  -1.875  27.038  0.00  0.00    +0.197 C 
BRANCH  39  40
ATOM     40  O   UNL     1       5.381  -0.734  26.202  0.00  0.00    -0.346 OA
BRANCH  40  44
ATOM     41  C   UNL     1       4.408   2.633  28.811  0.00  0.00    +0.041 C 
ATOM     42  C   UNL     1       4.487   2.640  27.288  0.00  0.00    +0.149 C 
ATOM     43  O   UNL     1       4.396   1.325  26.731  0.00  0.00    -0.343 OA
ATOM     44  C   UNL     1       5.529   0.484  26.935  0.00  0.00    +0.282 C 
ATOM     45  C   UNL     1       6.845   1.114  26.429  0.00  0.00    +0.201 C 
ATOM     46  C   UNL     1       7.001   2.570  26.878  0.00  0.00    +0.179 C 
ATOM     47  C   UNL     1       5.702   3.360  26.689  0.00  0.00    +0.174 C 
BRANCH  47  48
ATOM     48  O   UNL     1       5.470   3.521  25.278  0.00  0.00    -0.387 OA
ATOM     49  H   UNL     1       5.214   2.648  24.917  0.00  0.00    +0.210 HD
ENDBRANCH  47  48
BRANCH  46  50
ATOM     50  O   UNL     1       7.485   2.638  28.227  0.00  0.00    -0.386 OA
ATOM     51  H   UNL     1       8.035   1.861  28.419  0.00  0.00    +0.210 HD
ENDBRANCH  46  50
BRANCH  45  52
ATOM     52  O   UNL     1       7.966   0.334  26.888  0.00  0.00    -0.384 OA
ATOM     53  H   UNL     1       7.635  -0.553  27.118  0.00  0.00    +0.210 HD
ENDBRANCH  45  52
ENDBRANCH  40  44
ENDBRANCH  39  40
ENDBRANCH   1  39
TORSDOF 16
ENDMDL
MODEL 4
REMARK VINA RESULT:      -7.2      2.439      5.918
REMARK  Name = 
REMARK  17 active torsions:
REMARK  status: ('A' for Active; 'I' for Inactive)
REMARK    1  A    between atoms: C_1  and  C_2
REMARK    2  A    between atoms: C_3  and  O_52
REMARK    3  A    between atoms: C_5  and  O_51
REMARK    4  A    between atoms: C_7  and  O_50
REMARK    5  A    between atoms: C_9  and  O_12
REMARK    6  A    between atoms: O_12  and  C_13
REMARK    7  A    between atoms: C_13  and  C_14
REMARK    8  A    between atoms: C_16  and  O_49
REMARK    9  A    between atoms: C_18  and  O_48
REMARK   10  A    between atoms: C_20  and  O_47
REMARK   11  A    between atoms: C_22  and  O_25
REMARK   12  A    between atoms: O_25  and  C_26
REMARK   13  A    between atoms: C_27  and  C_39
REMARK   14  A    between atoms: C_31  and  O_38
REMARK   15  A    between atoms: C_33  and  O_37
REMARK   16  A    between atoms: C_41  and  O_46
REMARK   17  A    between atoms: C_42  and  O_45
REMARK                            x       y       z     vdW  Elec       q    Type
REMARK                         _______ _______ _______ _____ _____    ______ ____
ROOT
ATOM      1  C   UNL     1       7.742  -0.929  24.169  0.00  0.00    +0.179 C 
ATOM      2  O   UNL     1       8.451   0.178  24.752  0.00  0.00    -0.331 OA
ATOM      3  C   UNL     1       8.571   1.252  23.815  0.00  0.00    +0.340 C 
ATOM      4  C   UNL     1       9.594   0.808  22.742  0.00  0.00    +0.214 C 
ATOM      5  C   UNL     1       9.013  -0.483  22.086  0.00  0.00    +0.180 C 
ATOM      6  C   UNL     1       8.655  -1.567  23.122  0.00  0.00    +0.177 C 
ENDROOT
BRANCH   6   7
ATOM      7  O   UNL     1       8.009  -2.648  22.437  0.00  0.00    -0.386 OA
ATOM      8  H   UNL     1       7.868  -3.349  23.102  0.00  0.00    +0.210 HD
ENDBRANCH   6   7
BRANCH   5   9
ATOM      9  O   UNL     1       9.897  -1.032  21.101  0.00  0.00    -0.386 OA
ATOM     10  H   UNL     1       9.318  -1.255  20.340  0.00  0.00    +0.210 HD
ENDBRANCH   5   9
BRANCH   4  11
ATOM     11  O   UNL     1       9.766   1.846  21.762  0.00  0.00    -0.383 OA
ATOM     12  H   UNL     1      10.642   2.248  21.906  0.00  0.00    +0.210 HD
ENDBRANCH   4  11
BRANCH   3  13
ATOM     13  O   UNL     1       8.861   2.491  24.512  0.00  0.00    -0.453 OA
BRANCH  13  14
ATOM     14  C   UNL     1       7.939   3.520  24.233  0.00  0.00    +0.214 A 
ATOM     15  C   UNL     1       6.453   3.245  24.258  0.00  0.00    +0.238 A 
ATOM     16  O   UNL     1       5.923   2.409  24.981  0.00  0.00    -0.283 OA
ATOM     17  C   UNL     1       5.577   4.093  23.476  0.00  0.00    +0.109 A 
ATOM     18  C   UNL     1       6.034   5.373  23.248  0.00  0.00    +0.147 A 
ATOM     19  C   UNL     1       5.183   6.319  22.663  0.00  0.00    +0.092 A 
ATOM     20  C   UNL     1       3.882   5.939  22.330  0.00  0.00    +0.124 A 
ATOM     21  C   UNL     1       3.428   4.639  22.536  0.00  0.00    +0.091 A 
ATOM     22  O   UNL     1       7.284   5.774  23.628  0.00  0.00    -0.451 OA
ATOM     23  C   UNL     1       4.287   3.703  23.100  0.00  0.00    +0.135 A 
ATOM     24  C   UNL     1       8.253   4.830  24.029  0.00  0.00    +0.181 A 
BRANCH  24  25
ATOM     25  C   UNL     1       9.571   5.530  24.291  0.00  0.00    +0.025 A 
ATOM     26  C   UNL     1       9.613   6.520  25.315  0.00  0.00    +0.015 A 
ATOM     27  C   UNL     1      10.808   7.066  25.801  0.00  0.00    +0.050 A 
ATOM     28  C   UNL     1      11.997   6.651  25.246  0.00  0.00    +0.158 A 
ATOM     29  C   UNL     1      11.992   5.769  24.169  0.00  0.00    +0.159 A 
ATOM     30  C   UNL     1      10.799   5.201  23.694  0.00  0.00    +0.060 A 
BRANCH  29  31
ATOM     31  O   UNL     1      13.208   5.480  23.606  0.00  0.00    -0.503 OA
ATOM     32  H   UNL     1      13.240   5.929  22.743  0.00  0.00    +0.292 HD
ENDBRANCH  29  31
BRANCH  28  33
ATOM     33  O   UNL     1      13.171   7.108  25.770  0.00  0.00    -0.503 OA
ATOM     34  H   UNL     1      12.903   7.677  26.518  0.00  0.00    +0.292 HD
ENDBRANCH  28  33
ENDBRANCH  24  25
BRANCH  23  35
ATOM     35  O   UNL     1       3.859   2.420  23.269  0.00  0.00    -0.506 OA
ATOM     36  H   UNL     1       4.614   1.812  23.203  0.00  0.00    +0.292 HD
ENDBRANCH  23  35
BRANCH  20  37
ATOM     37  O   UNL     1       2.994   6.822  21.795  0.00  0.00    -0.507 OA
ATOM     38  H   UNL     1       2.154   6.366  21.621  0.00  0.00    +0.292 HD
ENDBRANCH  20  37
ENDBRANCH  13  14
ENDBRANCH   3  13
BRANCH   1  39
ATOM     39  C   UNL     1       7.287  -1.876  25.277  0.00  0.00    +0.197 C 
BRANCH  39  40
ATOM     40  O   UNL     1       7.916  -3.138  25.100  0.00  0.00    -0.346 OA
BRANCH  40  44
ATOM     41  C   UNL     1       5.229  -6.262  23.645  0.00  0.00    +0.041 C 
ATOM     42  C   UNL     1       4.838  -4.923  24.262  0.00  0.00    +0.149 C 
ATOM     43  O   UNL     1       5.908  -3.972  24.229  0.00  0.00    -0.343 OA
ATOM     44  C   UNL     1       6.996  -4.232  25.113  0.00  0.00    +0.282 C 
ATOM     45  C   UNL     1       6.553  -4.383  26.585  0.00  0.00    +0.201 C 
ATOM     46  C   UNL     1       5.336  -5.301  26.733  0.00  0.00    +0.179 C 
ATOM     47  C   UNL     1       4.264  -4.989  25.684  0.00  0.00    +0.174 C 
BRANCH  47  48
ATOM     48  O   UNL     1       3.690  -3.705  25.990  0.00  0.00    -0.387 OA
ATOM     49  H   UNL     1       4.036  -3.425  26.862  0.00  0.00    +0.210 HD
ENDBRANCH  47  48
BRANCH  46  50
ATOM     50  O   UNL     1       5.732  -6.681  26.708  0.00  0.00    -0.386 OA
ATOM     51  H   UNL     1       6.446  -6.829  27.349  0.00  0.00    +0.210 HD
ENDBRANCH  46  50
BRANCH  45  52
ATOM     52  O   UNL     1       7.649  -4.886  27.373  0.00  0.00    -0.384 OA
ATOM     53  H   UNL     1       7.782  -5.821  27.133  0.00  0.00    +0.210 HD
ENDBRANCH  45  52
ENDBRANCH  40  44
ENDBRANCH  39  40
ENDBRANCH   1  39
TORSDOF 16
ENDMDL
MODEL 5
REMARK VINA RESULT:      -7.1      1.480      1.757
REMARK  Name = 
REMARK  17 active torsions:
REMARK  status: ('A' for Active; 'I' for Inactive)
REMARK    1  A    between atoms: C_1  and  C_2
REMARK    2  A    between atoms: C_3  and  O_52
REMARK    3  A    between atoms: C_5  and  O_51
REMARK    4  A    between atoms: C_7  and  O_50
REMARK    5  A    between atoms: C_9  and  O_12
REMARK    6  A    between atoms: O_12  and  C_13
REMARK    7  A    between atoms: C_13  and  C_14
REMARK    8  A    between atoms: C_16  and  O_49
REMARK    9  A    between atoms: C_18  and  O_48
REMARK   10  A    between atoms: C_20  and  O_47
REMARK   11  A    between atoms: C_22  and  O_25
REMARK   12  A    between atoms: O_25  and  C_26
REMARK   13  A    between atoms: C_27  and  C_39
REMARK   14  A    between atoms: C_31  and  O_38
REMARK   15  A    between atoms: C_33  and  O_37
REMARK   16  A    between atoms: C_41  and  O_46
REMARK   17  A    between atoms: C_42  and  O_45
REMARK                            x       y       z     vdW  Elec       q    Type
REMARK                         _______ _______ _______ _____ _____    ______ ____
ROOT
ATOM      1  C   UNL     1       5.725  -1.217  25.863  0.00  0.00    +0.179 C 
ATOM      2  O   UNL     1       5.722  -0.420  24.667  0.00  0.00    -0.331 OA
ATOM      3  C   UNL     1       6.000   0.950  24.971  0.00  0.00    +0.340 C 
ATOM      4  C   UNL     1       4.750   1.521  25.683  0.00  0.00    +0.214 C 
ATOM      5  C   UNL     1       4.545   0.662  26.970  0.00  0.00    +0.180 C 
ATOM      6  C   UNL     1       4.482  -0.849  26.672  0.00  0.00    +0.177 C 
ENDROOT
BRANCH   6   7
ATOM      7  O   UNL     1       4.429  -1.552  27.921  0.00  0.00    -0.386 OA
ATOM      8  H   UNL     1       3.580  -2.034  27.929  0.00  0.00    +0.210 HD
ENDBRANCH   6   7
BRANCH   5   9
ATOM      9  O   UNL     1       3.377   1.057  27.701  0.00  0.00    -0.386 OA
ATOM     10  H   UNL     1       3.720   1.404  28.553  0.00  0.00    +0.210 HD
ENDBRANCH   5   9
BRANCH   4  11
ATOM     11  O   UNL     1       4.960   2.903  26.019  0.00  0.00    -0.383 OA
ATOM     12  H   UNL     1       5.384   3.333  25.255  0.00  0.00    +0.210 HD
ENDBRANCH   4  11
BRANCH   3  13
ATOM     13  O   UNL     1       6.438   1.647  23.776  0.00  0.00    -0.453 OA
BRANCH  13  14
ATOM     14  C   UNL     1       7.767   2.109  23.854  0.00  0.00    +0.214 A 
ATOM     15  C   UNL     1       8.064   3.513  24.326  0.00  0.00    +0.238 A 
ATOM     16  O   UNL     1       7.372   4.126  25.132  0.00  0.00    -0.283 OA
ATOM     17  C   UNL     1       9.299   4.142  23.903  0.00  0.00    +0.109 A 
ATOM     18  C   UNL     1      10.337   3.283  23.613  0.00  0.00    +0.147 A 
ATOM     19  C   UNL     1      11.616   3.797  23.374  0.00  0.00    +0.092 A 
ATOM     20  C   UNL     1      11.810   5.177  23.442  0.00  0.00    +0.124 A 
ATOM     21  C   UNL     1      10.758   6.048  23.709  0.00  0.00    +0.091 A 
ATOM     22  O   UNL     1      10.172   1.926  23.605  0.00  0.00    -0.451 OA
ATOM     23  C   UNL     1       9.487   5.528  23.927  0.00  0.00    +0.135 A 
ATOM     24  C   UNL     1       8.882   1.355  23.633  0.00  0.00    +0.181 A 
BRANCH  24  25
ATOM     25  C   UNL     1       8.985  -0.151  23.509  0.00  0.00    +0.025 A 
ATOM     26  C   UNL     1       9.813  -0.846  24.438  0.00  0.00    +0.015 A 
ATOM     27  C   UNL     1       9.811  -2.240  24.569  0.00  0.00    +0.050 A 
ATOM     28  C   UNL     1       8.994  -2.979  23.744  0.00  0.00    +0.158 A 
ATOM     29  C   UNL     1       8.254  -2.347  22.750  0.00  0.00    +0.159 A 
ATOM     30  C   UNL     1       8.234  -0.948  22.629  0.00  0.00    +0.060 A 
BRANCH  29  31
ATOM     31  O   UNL     1       7.542  -3.157  21.904  0.00  0.00    -0.503 OA
ATOM     32  H   UNL     1       7.757  -4.078  22.136  0.00  0.00    +0.292 HD
ENDBRANCH  29  31
BRANCH  28  33
ATOM     33  O   UNL     1       8.916  -4.330  23.921  0.00  0.00    -0.503 OA
ATOM     34  H   UNL     1       8.448  -4.657  23.128  0.00  0.00    +0.292 HD
ENDBRANCH  28  33
ENDBRANCH  24  25
BRANCH  23  35
ATOM     35  O   UNL     1       8.446   6.379  24.152  0.00  0.00    -0.506 OA
ATOM     36  H   UNL     1       8.590   6.857  24.985  0.00  0.00    +0.292 HD
ENDBRANCH  23  35
BRANCH  20  37
ATOM     37  O   UNL     1      13.039   5.737  23.259  0.00  0.00    -0.507 OA
ATOM     38  H   UNL     1      12.955   6.705  23.274  0.00  0.00    +0.292 HD
ENDBRANCH  20  37
ENDBRANCH  13  14
ENDBRANCH   3  13
BRANCH   1  39
ATOM     39  C   UNL     1       5.822  -2.694  25.484  0.00  0.00    +0.197 C 
BRANCH  39  40
ATOM     40  O   UNL     1       5.349  -2.867  24.155  0.00  0.00    -0.346 OA
BRANCH  40  44
ATOM     41  C   UNL     1       1.816  -5.330  23.420  0.00  0.00    +0.041 C 
ATOM     42  C   UNL     1       2.465  -5.027  24.767  0.00  0.00    +0.149 C 
ATOM     43  O   UNL     1       3.310  -3.874  24.719  0.00  0.00    -0.343 OA
ATOM     44  C   UNL     1       4.530  -4.027  23.996  0.00  0.00    +0.282 C 
ATOM     45  C   UNL     1       5.384  -5.210  24.502  0.00  0.00    +0.201 C 
ATOM     46  C   UNL     1       4.556  -6.483  24.696  0.00  0.00    +0.179 C 
ATOM     47  C   UNL     1       3.233  -6.190  25.410  0.00  0.00    +0.174 C 
BRANCH  47  48
ATOM     48  O   UNL     1       3.522  -5.830  26.773  0.00  0.00    -0.387 OA
ATOM     49  H   UNL     1       4.394  -5.384  26.783  0.00  0.00    +0.210 HD
ENDBRANCH  47  48
BRANCH  46  50
ATOM     50  O   UNL     1       4.358  -7.158  23.445  0.00  0.00    -0.386 OA
ATOM     51  H   UNL     1       4.895  -6.735  22.755  0.00  0.00    +0.210 HD
ENDBRANCH  46  50
BRANCH  45  52
ATOM     52  O   UNL     1       6.464  -5.459  23.580  0.00  0.00    -0.384 OA
ATOM     53  H   UNL     1       6.956  -6.236  23.903  0.00  0.00    +0.210 HD
ENDBRANCH  45  52
ENDBRANCH  40  44
ENDBRANCH  39  40
ENDBRANCH   1  39
TORSDOF 16
ENDMDL
MODEL 6
REMARK VINA RESULT:      -7.0      2.649      8.895
REMARK  Name = 
REMARK  17 active torsions:
REMARK  status: ('A' for Active; 'I' for Inactive)
REMARK    1  A    between atoms: C_1  and  C_2
REMARK    2  A    between atoms: C_3  and  O_52
REMARK    3  A    between atoms: C_5  and  O_51
REMARK    4  A    between atoms: C_7  and  O_50
REMARK    5  A    between atoms: C_9  and  O_12
REMARK    6  A    between atoms: O_12  and  C_13
REMARK    7  A    between atoms: C_13  and  C_14
REMARK    8  A    between atoms: C_16  and  O_49
REMARK    9  A    between atoms: C_18  and  O_48
REMARK   10  A    between atoms: C_20  and  O_47
REMARK   11  A    between atoms: C_22  and  O_25
REMARK   12  A    between atoms: O_25  and  C_26
REMARK   13  A    between atoms: C_27  and  C_39
REMARK   14  A    between atoms: C_31  and  O_38
REMARK   15  A    between atoms: C_33  and  O_37
REMARK   16  A    between atoms: C_41  and  O_46
REMARK   17  A    between atoms: C_42  and  O_45
REMARK                            x       y       z     vdW  Elec       q    Type
REMARK                         _______ _______ _______ _____ _____    ______ ____
ROOT
ATOM      1  C   UNL     1       9.755   1.659  23.872  0.00  0.00    +0.179 C 
ATOM      2  O   UNL     1       9.017   0.744  24.700  0.00  0.00    -0.331 OA
ATOM      3  C   UNL     1       9.569  -0.573  24.615  0.00  0.00    +0.340 C 
ATOM      4  C   UNL     1       9.215  -1.126  23.214  0.00  0.00    +0.214 C 
ATOM      5  C   UNL     1       9.858  -0.150  22.179  0.00  0.00    +0.180 C 
ATOM      6  C   UNL     1       9.451   1.317  22.414  0.00  0.00    +0.177 C 
ENDROOT
BRANCH   6   7
ATOM      7  O   UNL     1      10.194   2.141  21.505  0.00  0.00    -0.386 OA
ATOM      8  H   UNL     1      11.132   2.058  21.764  0.00  0.00    +0.210 HD
ENDBRANCH   6   7
BRANCH   5   9
ATOM      9  O   UNL     1       9.559  -0.523  20.828  0.00  0.00    -0.386 OA
ATOM     10  H   UNL     1       9.864  -1.453  20.751  0.00  0.00    +0.210 HD
ENDBRANCH   5   9
BRANCH   4  11
ATOM     11  O   UNL     1       9.741  -2.455  23.059  0.00  0.00    -0.383 OA
ATOM     12  H   UNL     1       9.098  -2.970  22.538  0.00  0.00    +0.210 HD
ENDBRANCH   4  11
BRANCH   3  13
ATOM     13  O   UNL     1       9.140  -1.367  25.751  0.00  0.00    -0.453 OA
BRANCH  13  14
ATOM     14  C   UNL     1       7.881  -1.974  25.567  0.00  0.00    +0.214 A 
ATOM     15  C   UNL     1       7.781  -3.392  25.057  0.00  0.00    +0.238 A 
ATOM     16  O   UNL     1       8.623  -4.258  25.270  0.00  0.00    -0.283 OA
ATOM     17  C   UNL     1       6.569  -3.802  24.377  0.00  0.00    +0.109 A 
ATOM     18  C   UNL     1       5.426  -3.118  24.733  0.00  0.00    +0.147 A 
ATOM     19  C   UNL     1       4.182  -3.560  24.269  0.00  0.00    +0.092 A 
ATOM     20  C   UNL     1       4.130  -4.695  23.458  0.00  0.00    +0.124 A 
ATOM     21  C   UNL     1       5.286  -5.371  23.077  0.00  0.00    +0.091 A 
ATOM     22  O   UNL     1       5.458  -2.044  25.578  0.00  0.00    -0.451 OA
ATOM     23  C   UNL     1       6.518  -4.911  23.528  0.00  0.00    +0.135 A 
ATOM     24  C   UNL     1       6.682  -1.426  25.912  0.00  0.00    +0.181 A 
BRANCH  24  25
ATOM     25  C   UNL     1       6.420  -0.205  26.771  0.00  0.00    +0.025 A 
ATOM     26  C   UNL     1       5.089   0.302  26.828  0.00  0.00    +0.015 A 
ATOM     27  C   UNL     1       4.682   1.272  27.752  0.00  0.00    +0.050 A 
ATOM     28  C   UNL     1       5.612   1.781  28.629  0.00  0.00    +0.158 A 
ATOM     29  C   UNL     1       6.944   1.394  28.532  0.00  0.00    +0.159 A 
ATOM     30  C   UNL     1       7.355   0.405  27.623  0.00  0.00    +0.060 A 
BRANCH  29  31
ATOM     31  O   UNL     1       7.829   2.018  29.372  0.00  0.00    -0.503 OA
ATOM     32  H   UNL     1       7.655   1.690  30.271  0.00  0.00    +0.292 HD
ENDBRANCH  29  31
BRANCH  28  33
ATOM     33  O   UNL     1       5.208   2.660  29.591  0.00  0.00    -0.503 OA
ATOM     34  H   UNL     1       4.237   2.552  29.633  0.00  0.00    +0.292 HD
ENDBRANCH  28  33
ENDBRANCH  24  25
BRANCH  23  35
ATOM     35  O   UNL     1       7.656  -5.548  23.127  0.00  0.00    -0.506 OA
ATOM     36  H   UNL     1       7.970  -6.132  23.837  0.00  0.00    +0.292 HD
ENDBRANCH  23  35
BRANCH  20  37
ATOM     37  O   UNL     1       2.948  -5.199  23.007  0.00  0.00    -0.507 OA
ATOM     38  H   UNL     1       3.124  -5.867  22.324  0.00  0.00    +0.292 HD
ENDBRANCH  20  37
ENDBRANCH  13  14
ENDBRANCH   3  13
BRANCH   1  39
ATOM     39  C   UNL     1       9.411   3.092  24.275  0.00  0.00    +0.197 C 
BRANCH  39  40
ATOM     40  O   UNL     1       8.604   3.680  23.263  0.00  0.00    -0.346 OA
BRANCH  40  44
ATOM     41  C   UNL     1       5.475   4.870  26.071  0.00  0.00    +0.041 C 
ATOM     42  C   UNL     1       5.541   3.583  25.256  0.00  0.00    +0.149 C 
ATOM     43  O   UNL     1       6.863   3.301  24.785  0.00  0.00    -0.343 OA
ATOM     44  C   UNL     1       7.348   4.157  23.752  0.00  0.00    +0.282 C 
ATOM     45  C   UNL     1       6.416   4.206  22.522  0.00  0.00    +0.201 C 
ATOM     46  C   UNL     1       4.948   4.396  22.915  0.00  0.00    +0.179 C 
ATOM     47  C   UNL     1       4.555   3.487  24.084  0.00  0.00    +0.174 C 
BRANCH  47  48
ATOM     48  O   UNL     1       4.550   2.126  23.618  0.00  0.00    -0.387 OA
ATOM     49  H   UNL     1       5.426   1.739  23.822  0.00  0.00    +0.210 HD
ENDBRANCH  47  48
BRANCH  46  50
ATOM     50  O   UNL     1       4.667   5.778  23.185  0.00  0.00    -0.386 OA
ATOM     51  H   UNL     1       5.427   6.325  22.925  0.00  0.00    +0.210 HD
ENDBRANCH  46  50
BRANCH  45  52
ATOM     52  O   UNL     1       6.832   5.266  21.639  0.00  0.00    -0.384 OA
ATOM     53  H   UNL     1       6.740   6.107  22.122  0.00  0.00    +0.210 HD
ENDBRANCH  45  52
ENDBRANCH  40  44
ENDBRANCH  39  40
ENDBRANCH   1  39
TORSDOF 16
ENDMDL
MODEL 7
REMARK VINA RESULT:      -7.0      1.927      9.662
REMARK  Name = 
REMARK  17 active torsions:
REMARK  status: ('A' for Active; 'I' for Inactive)
REMARK    1  A    between atoms: C_1  and  C_2
REMARK    2  A    between atoms: C_3  and  O_52
REMARK    3  A    between atoms: C_5  and  O_51
REMARK    4  A    between atoms: C_7  and  O_50
REMARK    5  A    between atoms: C_9  and  O_12
REMARK    6  A    between atoms: O_12  and  C_13
REMARK    7  A    between atoms: C_13  and  C_14
REMARK    8  A    between atoms: C_16  and  O_49
REMARK    9  A    between atoms: C_18  and  O_48
REMARK   10  A    between atoms: C_20  and  O_47
REMARK   11  A    between atoms: C_22  and  O_25
REMARK   12  A    between atoms: O_25  and  C_26
REMARK   13  A    between atoms: C_27  and  C_39
REMARK   14  A    between atoms: C_31  and  O_38
REMARK   15  A    between atoms: C_33  and  O_37
REMARK   16  A    between atoms: C_41  and  O_46
REMARK   17  A    between atoms: C_42  and  O_45
REMARK                            x       y       z     vdW  Elec       q    Type
REMARK                         _______ _______ _______ _____ _____    ______ ____
ROOT
ATOM      1  C   UNL     1       8.762   0.359  24.364  0.00  0.00    +0.179 C 
ATOM      2  O   UNL     1       7.475   0.002  23.833  0.00  0.00    -0.331 OA
ATOM      3  C   UNL     1       7.367  -1.415  23.675  0.00  0.00    +0.340 C 
ATOM      4  C   UNL     1       8.272  -1.811  22.483  0.00  0.00    +0.214 C 
ATOM      5  C   UNL     1       9.720  -1.368  22.863  0.00  0.00    +0.180 C 
ATOM      6  C   UNL     1       9.801   0.117  23.268  0.00  0.00    +0.177 C 
ENDROOT
BRANCH   6   7
ATOM      7  O   UNL     1      11.133   0.387  23.726  0.00  0.00    -0.386 OA
ATOM      8  H   UNL     1      11.049   1.042  24.445  0.00  0.00    +0.210 HD
ENDBRANCH   6   7
BRANCH   5   9
ATOM      9  O   UNL     1      10.658  -1.632  21.812  0.00  0.00    -0.386 OA
ATOM     10  H   UNL     1      10.683  -0.804  21.285  0.00  0.00    +0.210 HD
ENDBRANCH   5   9
BRANCH   4  11
ATOM     11  O   UNL     1       8.212  -3.230  22.265  0.00  0.00    -0.383 OA
ATOM     12  H   UNL     1       9.125  -3.553  22.157  0.00  0.00    +0.210 HD
ENDBRANCH   4  11
BRANCH   3  13
ATOM     13  O   UNL     1       5.972  -1.802  23.584  0.00  0.00    -0.453 OA
BRANCH  13  14
ATOM     14  C   UNL     1       5.571  -2.693  24.600  0.00  0.00    +0.214 A 
ATOM     15  C   UNL     1       5.598  -4.185  24.366  0.00  0.00    +0.238 A 
ATOM     16  O   UNL     1       6.394  -4.748  23.623  0.00  0.00    -0.283 OA
ATOM     17  C   UNL     1       4.716  -5.028  25.149  0.00  0.00    +0.109 A 
ATOM     18  C   UNL     1       4.364  -4.534  26.387  0.00  0.00    +0.147 A 
ATOM     19  C   UNL     1       3.669  -5.350  27.286  0.00  0.00    +0.092 A 
ATOM     20  C   UNL     1       3.354  -6.655  26.905  0.00  0.00    +0.124 A 
ATOM     21  C   UNL     1       3.686  -7.146  25.646  0.00  0.00    +0.091 A 
ATOM     22  O   UNL     1       4.723  -3.279  26.794  0.00  0.00    -0.451 OA
ATOM     23  C   UNL     1       4.359  -6.320  24.753  0.00  0.00    +0.135 A 
ATOM     24  C   UNL     1       5.238  -2.341  25.874  0.00  0.00    +0.181 A 
BRANCH  24  25
ATOM     25  C   UNL     1       5.449  -1.010  26.566  0.00  0.00    +0.025 A 
ATOM     26  C   UNL     1       4.332  -0.133  26.690  0.00  0.00    +0.015 A 
ATOM     27  C   UNL     1       4.346   1.010  27.499  0.00  0.00    +0.050 A 
ATOM     28  C   UNL     1       5.498   1.320  28.185  0.00  0.00    +0.158 A 
ATOM     29  C   UNL     1       6.643   0.552  28.003  0.00  0.00    +0.159 A 
ATOM     30  C   UNL     1       6.630  -0.608  27.212  0.00  0.00    +0.060 A 
BRANCH  29  31
ATOM     31  O   UNL     1       7.778   0.981  28.641  0.00  0.00    -0.503 OA
ATOM     32  H   UNL     1       8.198   1.646  28.068  0.00  0.00    +0.292 HD
ENDBRANCH  29  31
BRANCH  28  33
ATOM     33  O   UNL     1       5.495   2.380  29.044  0.00  0.00    -0.503 OA
ATOM     34  H   UNL     1       5.797   2.008  29.897  0.00  0.00    +0.292 HD
ENDBRANCH  28  33
ENDBRANCH  24  25
BRANCH  23  35
ATOM     35  O   UNL     1       4.654  -6.785  23.505  0.00  0.00    -0.506 OA
ATOM     36  H   UNL     1       4.099  -7.557  23.306  0.00  0.00    +0.292 HD
ENDBRANCH  23  35
BRANCH  20  37
ATOM     37  O   UNL     1       2.714  -7.512  27.749  0.00  0.00    -0.507 OA
ATOM     38  H   UNL     1       1.871  -7.117  28.029  0.00  0.00    +0.292 HD
ENDBRANCH  20  37
ENDBRANCH  13  14
ENDBRANCH   3  13
BRANCH   1  39
ATOM     39  C   UNL     1       8.712   1.794  24.886  0.00  0.00    +0.197 C 
BRANCH  39  40
ATOM     40  O   UNL     1       9.631   2.590  24.151  0.00  0.00    -0.346 OA
BRANCH  40  44
ATOM     41  C   UNL     1       8.942   6.904  24.028  0.00  0.00    +0.041 C 
ATOM     42  C   UNL     1       8.040   5.843  24.650  0.00  0.00    +0.149 C 
ATOM     43  O   UNL     1       8.733   4.618  24.907  0.00  0.00    -0.343 OA
ATOM     44  C   UNL     1       9.091   3.854  23.757  0.00  0.00    +0.282 C 
ATOM     45  C   UNL     1       7.882   3.524  22.855  0.00  0.00    +0.201 C 
ATOM     46  C   UNL     1       6.999   4.748  22.597  0.00  0.00    +0.179 C 
ATOM     47  C   UNL     1       6.745   5.540  23.884  0.00  0.00    +0.174 C 
BRANCH  47  48
ATOM     48  O   UNL     1       5.897   4.754  24.740  0.00  0.00    -0.387 OA
ATOM     49  H   UNL     1       4.972   4.893  24.452  0.00  0.00    +0.210 HD
ENDBRANCH  47  48
BRANCH  46  50
ATOM     50  O   UNL     1       7.555   5.568  21.558  0.00  0.00    -0.386 OA
ATOM     51  H   UNL     1       8.493   5.350  21.433  0.00  0.00    +0.210 HD
ENDBRANCH  46  50
BRANCH  45  52
ATOM     52  O   UNL     1       8.345   2.978  21.603  0.00  0.00    -0.384 OA
ATOM     53  H   UNL     1       8.668   2.075  21.776  0.00  0.00    +0.210 HD
ENDBRANCH  45  52
ENDBRANCH  40  44
ENDBRANCH  39  40
ENDBRANCH   1  39
TORSDOF 16
ENDMDL
MODEL 8
REMARK VINA RESULT:      -6.9      2.668      8.658
REMARK  Name = 
REMARK  17 active torsions:
REMARK  status: ('A' for Active; 'I' for Inactive)
REMARK    1  A    between atoms: C_1  and  C_2
REMARK    2  A    between atoms: C_3  and  O_52
REMARK    3  A    between atoms: C_5  and  O_51
REMARK    4  A    between atoms: C_7  and  O_50
REMARK    5  A    between atoms: C_9  and  O_12
REMARK    6  A    between atoms: O_12  and  C_13
REMARK    7  A    between atoms: C_13  and  C_14
REMARK    8  A    between atoms: C_16  and  O_49
REMARK    9  A    between atoms: C_18  and  O_48
REMARK   10  A    between atoms: C_20  and  O_47
REMARK   11  A    between atoms: C_22  and  O_25
REMARK   12  A    between atoms: O_25  and  C_26
REMARK   13  A    between atoms: C_27  and  C_39
REMARK   14  A    between atoms: C_31  and  O_38
REMARK   15  A    between atoms: C_33  and  O_37
REMARK   16  A    between atoms: C_41  and  O_46
REMARK   17  A    between atoms: C_42  and  O_45
REMARK                            x       y       z     vdW  Elec       q    Type
REMARK                         _______ _______ _______ _____ _____    ______ ____
ROOT
ATOM      1  C   UNL     1       9.301   1.482  23.935  0.00  0.00    +0.179 C 
ATOM      2  O   UNL     1       8.607   0.499  24.722  0.00  0.00    -0.331 OA
ATOM      3  C   UNL     1       9.402  -0.680  24.876  0.00  0.00    +0.340 C 
ATOM      4  C   UNL     1       9.425  -1.396  23.504  0.00  0.00    +0.214 C 
ATOM      5  C   UNL     1      10.054  -0.388  22.491  0.00  0.00    +0.180 C 
ATOM      6  C   UNL     1       9.343   0.979  22.493  0.00  0.00    +0.177 C 
ENDROOT
BRANCH   6   7
ATOM      7  O   UNL     1      10.074   1.868  21.637  0.00  0.00    -0.386 OA
ATOM      8  H   UNL     1       9.833   2.773  21.912  0.00  0.00    +0.210 HD
ENDBRANCH   6   7
BRANCH   5   9
ATOM      9  O   UNL     1      10.086  -0.913  21.158  0.00  0.00    -0.386 OA
ATOM     10  H   UNL     1       9.511  -0.311  20.638  0.00  0.00    +0.210 HD
ENDBRANCH   5   9
BRANCH   4  11
ATOM     11  O   UNL     1      10.210  -2.597  23.585  0.00  0.00    -0.383 OA
ATOM     12  H   UNL     1       9.696  -3.316  23.174  0.00  0.00    +0.210 HD
ENDBRANCH   4  11
BRANCH   3  13
ATOM     13  O   UNL     1       8.927  -1.459  26.003  0.00  0.00    -0.453 OA
BRANCH  13  14
ATOM     14  C   UNL     1       7.687  -2.085  25.768  0.00  0.00    +0.214 A 
ATOM     15  C   UNL     1       7.628  -3.457  25.139  0.00  0.00    +0.238 A 
ATOM     16  O   UNL     1       8.496  -4.312  25.276  0.00  0.00    -0.283 OA
ATOM     17  C   UNL     1       6.427  -3.844  24.426  0.00  0.00    +0.109 A 
ATOM     18  C   UNL     1       5.265  -3.229  24.839  0.00  0.00    +0.147 A 
ATOM     19  C   UNL     1       4.034  -3.667  24.339  0.00  0.00    +0.092 A 
ATOM     20  C   UNL     1       4.015  -4.729  23.433  0.00  0.00    +0.124 A 
ATOM     21  C   UNL     1       5.189  -5.334  22.996  0.00  0.00    +0.091 A 
ATOM     22  O   UNL     1       5.267  -2.231  25.773  0.00  0.00    -0.451 OA
ATOM     23  C   UNL     1       6.408  -4.878  23.485  0.00  0.00    +0.135 A 
ATOM     24  C   UNL     1       6.472  -1.606  26.159  0.00  0.00    +0.181 A 
BRANCH  24  25
ATOM     25  C   UNL     1       6.175  -0.472  27.119  0.00  0.00    +0.025 A 
ATOM     26  C   UNL     1       5.083  -0.625  28.022  0.00  0.00    +0.015 A 
ATOM     27  C   UNL     1       4.854   0.242  29.097  0.00  0.00    +0.050 A 
ATOM     28  C   UNL     1       5.704   1.309  29.277  0.00  0.00    +0.158 A 
ATOM     29  C   UNL     1       6.715   1.557  28.354  0.00  0.00    +0.159 A 
ATOM     30  C   UNL     1       6.964   0.678  27.287  0.00  0.00    +0.060 A 
BRANCH  29  31
ATOM     31  O   UNL     1       7.456   2.694  28.544  0.00  0.00    -0.503 OA
ATOM     32  H   UNL     1       8.380   2.418  28.675  0.00  0.00    +0.292 HD
ENDBRANCH  29  31
BRANCH  28  33
ATOM     33  O   UNL     1       5.545   2.110  30.371  0.00  0.00    -0.503 OA
ATOM     34  H   UNL     1       5.922   1.595  31.111  0.00  0.00    +0.292 HD
ENDBRANCH  28  33
ENDBRANCH  24  25
BRANCH  23  35
ATOM     35  O   UNL     1       7.563  -5.443  23.031  0.00  0.00    -0.506 OA
ATOM     36  H   UNL     1       7.448  -5.726  22.109  0.00  0.00    +0.292 HD
ENDBRANCH  23  35
BRANCH  20  37
ATOM     37  O   UNL     1       2.847  -5.229  22.941  0.00  0.00    -0.507 OA
ATOM     38  H   UNL     1       2.241  -4.495  22.748  0.00  0.00    +0.292 HD
ENDBRANCH  20  37
ENDBRANCH  13  14
ENDBRANCH   3  13
BRANCH   1  39
ATOM     39  C   UNL     1       8.626   2.840  24.116  0.00  0.00    +0.197 C 
BRANCH  39  40
ATOM     40  O   UNL     1       7.866   3.142  22.953  0.00  0.00    -0.346 OA
BRANCH  40  44
ATOM     41  C   UNL     1       4.219   5.532  23.237  0.00  0.00    +0.041 C 
ATOM     42  C   UNL     1       5.177   5.173  24.368  0.00  0.00    +0.149 C 
ATOM     43  O   UNL     1       6.463   4.768  23.888  0.00  0.00    -0.343 OA
ATOM     44  C   UNL     1       6.513   3.498  23.242  0.00  0.00    +0.282 C 
ATOM     45  C   UNL     1       5.963   2.354  24.122  0.00  0.00    +0.201 C 
ATOM     46  C   UNL     1       4.629   2.718  24.781  0.00  0.00    +0.179 C 
ATOM     47  C   UNL     1       4.661   4.132  25.371  0.00  0.00    +0.174 C 
BRANCH  47  48
ATOM     48  O   UNL     1       5.547   4.131  26.504  0.00  0.00    -0.387 OA
ATOM     49  H   UNL     1       4.995   4.124  27.313  0.00  0.00    +0.210 HD
ENDBRANCH  47  48
BRANCH  46  50
ATOM     50  O   UNL     1       3.541   2.539  23.862  0.00  0.00    -0.386 OA
ATOM     51  H   UNL     1       2.706   2.461  24.353  0.00  0.00    +0.210 HD
ENDBRANCH  46  50
BRANCH  45  52
ATOM     52  O   UNL     1       5.810   1.160  23.327  0.00  0.00    -0.384 OA
ATOM     53  H   UNL     1       6.687   0.926  22.974  0.00  0.00    +0.210 HD
ENDBRANCH  45  52
ENDBRANCH  40  44
ENDBRANCH  39  40
ENDBRANCH   1  39
TORSDOF 16
ENDMDL
MODEL 9
REMARK VINA RESULT:      -6.8      1.894      9.083
REMARK  Name = 
REMARK  17 active torsions:
REMARK  status: ('A' for Active; 'I' for Inactive)
REMARK    1  A    between atoms: C_1  and  C_2
REMARK    2  A    between atoms: C_3  and  O_52
REMARK    3  A    between atoms: C_5  and  O_51
REMARK    4  A    between atoms: C_7  and  O_50
REMARK    5  A    between atoms: C_9  and  O_12
REMARK    6  A    between atoms: O_12  and  C_13
REMARK    7  A    between atoms: C_13  and  C_14
REMARK    8  A    between atoms: C_16  and  O_49
REMARK    9  A    between atoms: C_18  and  O_48
REMARK   10  A    between atoms: C_20  and  O_47
REMARK   11  A    between atoms: C_22  and  O_25
REMARK   12  A    between atoms: O_25  and  C_26
REMARK   13  A    between atoms: C_27  and  C_39
REMARK   14  A    between atoms: C_31  and  O_38
REMARK   15  A    between atoms: C_33  and  O_37
REMARK   16  A    between atoms: C_41  and  O_46
REMARK   17  A    between atoms: C_42  and  O_45
REMARK                            x       y       z     vdW  Elec       q    Type
REMARK                         _______ _______ _______ _____ _____    ______ ____
ROOT
ATOM      1  C   UNL     1       7.632   1.140  25.560  0.00  0.00    +0.179 C 
ATOM      2  O   UNL     1       8.017  -0.092  26.192  0.00  0.00    -0.331 OA
ATOM      3  C   UNL     1       6.864  -0.823  26.619  0.00  0.00    +0.340 C 
ATOM      4  C   UNL     1       6.270  -0.069  27.833  0.00  0.00    +0.214 C 
ATOM      5  C   UNL     1       5.906   1.362  27.327  0.00  0.00    +0.180 C 
ATOM      6  C   UNL     1       7.092   2.071  26.645  0.00  0.00    +0.177 C 
ENDROOT
BRANCH   6   7
ATOM      7  O   UNL     1       6.622   3.312  26.100  0.00  0.00    -0.386 OA
ATOM      8  H   UNL     1       5.708   3.150  25.798  0.00  0.00    +0.210 HD
ENDBRANCH   6   7
BRANCH   5   9
ATOM      9  O   UNL     1       5.389   2.190  28.377  0.00  0.00    -0.386 OA
ATOM     10  H   UNL     1       4.415   2.165  28.260  0.00  0.00    +0.210 HD
ENDBRANCH   5   9
BRANCH   4  11
ATOM     11  O   UNL     1       5.102  -0.752  28.318  0.00  0.00    -0.383 OA
ATOM     12  H   UNL     1       4.640  -1.133  27.550  0.00  0.00    +0.210 HD
ENDBRANCH   4  11
BRANCH   3  13
ATOM     13  O   UNL     1       7.207  -2.217  26.829  0.00  0.00    -0.453 OA
BRANCH  13  14
ATOM     14  C   UNL     1       6.438  -3.107  26.052  0.00  0.00    +0.214 A 
ATOM     15  C   UNL     1       5.226  -3.789  26.642  0.00  0.00    +0.238 A 
ATOM     16  O   UNL     1       4.520  -3.297  27.515  0.00  0.00    -0.283 OA
ATOM     17  C   UNL     1       4.789  -5.046  26.069  0.00  0.00    +0.109 A 
ATOM     18  C   UNL     1       5.107  -5.239  24.742  0.00  0.00    +0.147 A 
ATOM     19  C   UNL     1       4.573  -6.334  24.054  0.00  0.00    +0.092 A 
ATOM     20  C   UNL     1       3.720  -7.206  24.734  0.00  0.00    +0.124 A 
ATOM     21  C   UNL     1       3.420  -7.026  26.081  0.00  0.00    +0.091 A 
ATOM     22  O   UNL     1       5.888  -4.357  24.049  0.00  0.00    -0.451 OA
ATOM     23  C   UNL     1       3.971  -5.946  26.759  0.00  0.00    +0.135 A 
ATOM     24  C   UNL     1       6.620  -3.356  24.724  0.00  0.00    +0.181 A 
BRANCH  24  25
ATOM     25  C   UNL     1       7.477  -2.594  23.735  0.00  0.00    +0.025 A 
ATOM     26  C   UNL     1       6.865  -1.551  22.980  0.00  0.00    +0.015 A 
ATOM     27  C   UNL     1       7.595  -0.636  22.212  0.00  0.00    +0.050 A 
ATOM     28  C   UNL     1       8.964  -0.763  22.159  0.00  0.00    +0.158 A 
ATOM     29  C   UNL     1       9.589  -1.832  22.791  0.00  0.00    +0.159 A 
ATOM     30  C   UNL     1       8.866  -2.740  23.582  0.00  0.00    +0.060 A 
BRANCH  29  31
ATOM     31  O   UNL     1      10.943  -1.948  22.610  0.00  0.00    -0.503 OA
ATOM     32  H   UNL     1      11.134  -1.695  21.690  0.00  0.00    +0.292 HD
ENDBRANCH  29  31
BRANCH  28  33
ATOM     33  O   UNL     1       9.694   0.175  21.487  0.00  0.00    -0.503 OA
ATOM     34  H   UNL     1       9.177   1.001  21.576  0.00  0.00    +0.292 HD
ENDBRANCH  28  33
ENDBRANCH  24  25
BRANCH  23  35
ATOM     35  O   UNL     1       3.709  -5.788  28.088  0.00  0.00    -0.506 OA
ATOM     36  H   UNL     1       3.341  -4.903  28.245  0.00  0.00    +0.292 HD
ENDBRANCH  23  35
BRANCH  20  37
ATOM     37  O   UNL     1       3.137  -8.267  24.110  0.00  0.00    -0.507 OA
ATOM     38  H   UNL     1       2.171  -8.166  24.142  0.00  0.00    +0.292 HD
ENDBRANCH  20  37
ENDBRANCH  13  14
ENDBRANCH   3  13
BRANCH   1  39
ATOM     39  C   UNL     1       8.819   1.697  24.777  0.00  0.00    +0.197 C 
BRANCH  39  40
ATOM     40  O   UNL     1       8.355   2.235  23.546  0.00  0.00    -0.346 OA
BRANCH  40  44
ATOM     41  C   UNL     1      10.593   5.983  23.735  0.00  0.00    +0.041 C 
ATOM     42  C   UNL     1       9.413   5.568  24.608  0.00  0.00    +0.149 C 
ATOM     43  O   UNL     1       9.194   4.154  24.595  0.00  0.00    -0.343 OA
ATOM     44  C   UNL     1       8.675   3.618  23.380  0.00  0.00    +0.282 C 
ATOM     45  C   UNL     1       7.362   4.297  22.934  0.00  0.00    +0.201 C 
ATOM     46  C   UNL     1       7.443   5.824  23.011  0.00  0.00    +0.179 C 
ATOM     47  C   UNL     1       8.088   6.288  24.321  0.00  0.00    +0.174 C 
BRANCH  47  48
ATOM     48  O   UNL     1       7.183   5.998  25.400  0.00  0.00    -0.387 OA
ATOM     49  H   UNL     1       7.699   5.571  26.114  0.00  0.00    +0.210 HD
ENDBRANCH  47  48
BRANCH  46  50
ATOM     50  O   UNL     1       8.113   6.358  21.859  0.00  0.00    -0.386 OA
ATOM     51  H   UNL     1       8.181   5.675  21.172  0.00  0.00    +0.210 HD
ENDBRANCH  46  50
BRANCH  45  52
ATOM     52  O   UNL     1       7.035   3.888  21.591  0.00  0.00    -0.384 OA
ATOM     53  H   UNL     1       7.872   3.741  21.114  0.00  0.00    +0.210 HD
ENDBRANCH  45  52
ENDBRANCH  40  44
ENDBRANCH  39  40
ENDBRANCH   1  39
TORSDOF 16
ENDMDL
