MODEL 1
REMARK VINA RESULT:      -6.7      0.000      0.000
REMARK  Name = 
REMARK  19 active torsions:
REMARK  status: ('A' for Active; 'I' for Inactive)
REMARK    1  A    between atoms: C_1  and  O_2
REMARK    2  A    between atoms: O_2  and  C_3
REMARK    3  A    between atoms: C_4  and  O_50
REMARK    4  A    between atoms: C_6  and  C_9
REMARK    5  A    between atoms: C_10  and  O_22
REMARK    6  A    between atoms: C_14  and  O_21
REMARK    7  A    between atoms: C_16  and  O_20
REMARK    8  A    between atoms: O_22  and  C_23
REMARK    9  A    between atoms: C_25  and  O_35
REMARK   10  A    between atoms: C_26  and  O_34
REMARK   11  A    between atoms: C_27  and  O_33
REMARK   12  A    between atoms: C_29  and  C_31
REMARK   13  A    between atoms: C_31  and  O_32
REMARK   14  A    between atoms: O_35  and  C_36
REMARK   15  A    between atoms: C_38  and  O_49
REMARK   16  A    between atoms: C_40  and  O_48
REMARK   17  A    between atoms: C_41  and  O_47
REMARK   18  A    between atoms: C_43  and  C_45
REMARK   19  A    between atoms: C_45  and  O_46
REMARK                            x       y       z     vdW  Elec       q    Type
REMARK                         _______ _______ _______ _____ _____    ______ ____
ROOT
ATOM      1  C   UNL     1       4.820  -1.098  26.280  0.00  0.00    +0.340 C 
ATOM      2  O   UNL     1       3.941   0.065  26.321  0.00  0.00    -0.331 OA
ATOM      3  C   UNL     1       3.561   0.542  27.639  0.00  0.00    +0.179 C 
ATOM      4  C   UNL     1       3.292  -0.540  28.726  0.00  0.00    +0.177 C 
ATOM      5  C   UNL     1       4.108  -1.828  28.557  0.00  0.00    +0.180 C 
ATOM      6  C   UNL     1       4.052  -2.164  27.074  0.00  0.00    +0.221 C 
ENDROOT
BRANCH   5   7
ATOM      7  O   UNL     1       3.530  -2.868  29.356  0.00  0.00    -0.386 OA
ATOM      8  H   UNL     1       2.585  -2.914  29.115  0.00  0.00    +0.210 HD
ENDBRANCH   5   7
BRANCH   4   9
ATOM      9  O   UNL     1       3.461  -0.022  30.051  0.00  0.00    -0.386 OA
ATOM     10  H   UNL     1       3.411   0.951  30.019  0.00  0.00    +0.210 HD
ENDBRANCH   4   9
BRANCH   6  11
ATOM     11  O   UNL     1       4.033  -3.509  26.671  0.00  0.00    -0.337 OA
BRANCH  11  12
ATOM     12  C   UNL     1       5.061  -4.171  25.985  0.00  0.00    +0.282 C 
ATOM     13  O   UNL     1       4.459  -4.767  24.814  0.00  0.00    -0.341 OA
ATOM     14  C   UNL     1       3.298  -5.558  25.143  0.00  0.00    +0.178 C 
ATOM     15  C   UNL     1       3.617  -6.687  26.143  0.00  0.00    +0.177 C 
ATOM     16  C   UNL     1       4.558  -6.253  27.275  0.00  0.00    +0.179 C 
ATOM     17  C   UNL     1       5.673  -5.295  26.827  0.00  0.00    +0.201 C 
BRANCH  17  18
ATOM     18  O   UNL     1       6.714  -5.949  26.087  0.00  0.00    -0.384 OA
ATOM     19  H   UNL     1       6.328  -6.210  25.231  0.00  0.00    +0.210 HD
ENDBRANCH  17  18
BRANCH  16  20
ATOM     20  O   UNL     1       5.133  -7.441  27.857  0.00  0.00    -0.386 OA
ATOM     21  H   UNL     1       5.659  -7.870  27.158  0.00  0.00    +0.210 HD
ENDBRANCH  16  20
BRANCH  15  22
ATOM     22  O   UNL     1       4.189  -7.833  25.491  0.00  0.00    -0.386 OA
ATOM     23  H   UNL     1       5.139  -7.610  25.384  0.00  0.00    +0.210 HD
ENDBRANCH  15  22
BRANCH  14  24
ATOM     24  C   UNL     1       2.666  -6.084  23.849  0.00  0.00    +0.190 C 
BRANCH  24  25
ATOM     25  O   UNL     1       3.654  -6.652  22.992  0.00  0.00    -0.392 OA
ATOM     26  H   UNL     1       3.672  -6.102  22.189  0.00  0.00    +0.210 HD
ENDBRANCH  24  25
ENDBRANCH  14  24
ENDBRANCH  11  12
ENDBRANCH   6  11
BRANCH   3  27
ATOM     27  C   UNL     1       2.228   1.328  27.475  0.00  0.00    +0.190 C 
BRANCH  27  28
ATOM     28  O   UNL     1       1.437   0.912  26.359  0.00  0.00    -0.392 OA
ATOM     29  H   UNL     1       1.923   0.183  25.914  0.00  0.00    +0.210 HD
ENDBRANCH  27  28
ENDBRANCH   3  27
BRANCH   1  30
ATOM     30  O   UNL     1       6.104  -0.652  26.741  0.00  0.00    -0.453 OA
BRANCH  30  41
ATOM     31  C   UNL     1       7.401  -0.155  24.718  0.00  0.00    +0.181 A 
ATOM     32  O   UNL     1       7.962   0.841  23.882  0.00  0.00    -0.451 OA
ATOM     33  C   UNL     1       8.037   2.153  24.289  0.00  0.00    +0.147 A 
ATOM     34  C   UNL     1       7.684   2.548  25.567  0.00  0.00    +0.109 A 
ATOM     35  C   UNL     1       7.871   3.881  25.973  0.00  0.00    +0.135 A 
ATOM     36  C   UNL     1       8.355   4.831  25.082  0.00  0.00    +0.091 A 
ATOM     37  C   UNL     1       8.641   4.450  23.781  0.00  0.00    +0.124 A 
ATOM     38  C   UNL     1       7.067   1.553  26.430  0.00  0.00    +0.238 A 
ATOM     39  O   UNL     1       6.633   1.910  27.523  0.00  0.00    -0.283 OA
ATOM     40  C   UNL     1       8.486   3.114  23.377  0.00  0.00    +0.092 A 
ATOM     41  C   UNL     1       6.939   0.134  25.965  0.00  0.00    +0.214 A 
BRANCH  31  45
ATOM     42  C   UNL     1       7.302  -4.089  22.718  0.00  0.00    +0.161 A 
ATOM     43  C   UNL     1       6.509  -3.056  22.258  0.00  0.00    +0.050 A 
ATOM     44  C   UNL     1       6.577  -1.786  22.876  0.00  0.00    +0.015 A 
ATOM     45  C   UNL     1       7.364  -1.501  24.008  0.00  0.00    +0.025 A 
ATOM     46  C   UNL     1       8.126  -2.588  24.480  0.00  0.00    +0.060 A 
ATOM     47  C   UNL     1       8.119  -3.827  23.820  0.00  0.00    +0.159 A 
BRANCH  47  48
ATOM     48  O   UNL     1       8.972  -4.805  24.262  0.00  0.00    -0.503 OA
ATOM     49  H   UNL     1       8.925  -4.755  25.237  0.00  0.00    +0.292 HD
ENDBRANCH  47  48
BRANCH  42  51
ATOM     50  C   UNL     1       6.479  -5.732  21.181  0.00  0.00    +0.277 C 
ATOM     51  O   UNL     1       7.405  -5.347  22.194  0.00  0.00    -0.491 OA
ENDBRANCH  42  51
ENDBRANCH  31  45
BRANCH  37  52
ATOM     52  O   UNL     1       9.082   5.365  22.873  0.00  0.00    -0.507 OA
ATOM     53  H   UNL     1       9.544   4.898  22.147  0.00  0.00    +0.292 HD
ENDBRANCH  37  52
BRANCH  35  54
ATOM     54  O   UNL     1       7.582   4.339  27.229  0.00  0.00    -0.506 OA
ATOM     55  H   UNL     1       7.284   3.580  27.771  0.00  0.00    +0.292 HD
ENDBRANCH  35  54
ENDBRANCH  30  41
ENDBRANCH   1  30
TORSDOF 18
ENDMDL
MODEL 2
REMARK VINA RESULT:      -6.4      2.721      9.209
REMARK  Name = 
REMARK  19 active torsions:
REMARK  status: ('A' for Active; 'I' for Inactive)
REMARK    1  A    between atoms: C_1  and  O_2
REMARK    2  A    between atoms: O_2  and  C_3
REMARK    3  A    between atoms: C_4  and  O_50
REMARK    4  A    between atoms: C_6  and  C_9
REMARK    5  A    between atoms: C_10  and  O_22
REMARK    6  A    between atoms: C_14  and  O_21
REMARK    7  A    between atoms: C_16  and  O_20
REMARK    8  A    between atoms: O_22  and  C_23
REMARK    9  A    between atoms: C_25  and  O_35
REMARK   10  A    between atoms: C_26  and  O_34
REMARK   11  A    between atoms: C_27  and  O_33
REMARK   12  A    between atoms: C_29  and  C_31
REMARK   13  A    between atoms: C_31  and  O_32
REMARK   14  A    between atoms: O_35  and  C_36
REMARK   15  A    between atoms: C_38  and  O_49
REMARK   16  A    between atoms: C_40  and  O_48
REMARK   17  A    between atoms: C_41  and  O_47
REMARK   18  A    between atoms: C_43  and  C_45
REMARK   19  A    between atoms: C_45  and  O_46
REMARK                            x       y       z     vdW  Elec       q    Type
REMARK                         _______ _______ _______ _____ _____    ______ ____
ROOT
ATOM      1  C   UNL     1       7.561  -0.119  24.607  0.00  0.00    +0.340 C 
ATOM      2  O   UNL     1       8.332  -1.019  23.757  0.00  0.00    -0.331 OA
ATOM      3  C   UNL     1       9.771  -0.834  23.758  0.00  0.00    +0.179 C 
ATOM      4  C   UNL     1      10.291   0.632  23.825  0.00  0.00    +0.177 C 
ATOM      5  C   UNL     1       9.370   1.599  24.580  0.00  0.00    +0.180 C 
ATOM      6  C   UNL     1       7.958   1.279  24.113  0.00  0.00    +0.221 C 
ENDROOT
BRANCH   5   7
ATOM      7  O   UNL     1       9.736   2.950  24.269  0.00  0.00    -0.386 OA
ATOM      8  H   UNL     1       8.909   3.468  24.258  0.00  0.00    +0.210 HD
ENDBRANCH   5   7
BRANCH   4   9
ATOM      9  O   UNL     1      11.621   0.707  24.354  0.00  0.00    -0.386 OA
ATOM     10  H   UNL     1      11.586   1.117  25.238  0.00  0.00    +0.210 HD
ENDBRANCH   4   9
BRANCH   6  11
ATOM     11  O   UNL     1       7.016   2.315  24.002  0.00  0.00    -0.337 OA
BRANCH  11  12
ATOM     12  C   UNL     1       6.312   2.658  22.840  0.00  0.00    +0.282 C 
ATOM     13  O   UNL     1       6.972   3.818  22.285  0.00  0.00    -0.341 OA
ATOM     14  C   UNL     1       7.142   4.865  23.261  0.00  0.00    +0.178 C 
ATOM     15  C   UNL     1       5.803   5.325  23.873  0.00  0.00    +0.177 C 
ATOM     16  C   UNL     1       4.848   4.168  24.192  0.00  0.00    +0.179 C 
ATOM     17  C   UNL     1       4.861   3.041  23.146  0.00  0.00    +0.201 C 
BRANCH  17  18
ATOM     18  O   UNL     1       4.180   3.390  21.932  0.00  0.00    -0.384 OA
ATOM     19  H   UNL     1       3.258   3.593  22.176  0.00  0.00    +0.210 HD
ENDBRANCH  17  18
BRANCH  16  20
ATOM     20  O   UNL     1       3.517   4.709  24.316  0.00  0.00    -0.386 OA
ATOM     21  H   UNL     1       3.181   4.840  23.411  0.00  0.00    +0.210 HD
ENDBRANCH  16  20
BRANCH  15  22
ATOM     22  O   UNL     1       5.118   6.257  23.020  0.00  0.00    -0.386 OA
ATOM     23  H   UNL     1       5.489   7.133  23.259  0.00  0.00    +0.210 HD
ENDBRANCH  15  22
BRANCH  14  24
ATOM     24  C   UNL     1       7.922   6.023  22.628  0.00  0.00    +0.190 C 
BRANCH  24  25
ATOM     25  O   UNL     1       7.497   6.250  21.285  0.00  0.00    -0.392 OA
ATOM     26  H   UNL     1       7.596   7.205  21.122  0.00  0.00    +0.210 HD
ENDBRANCH  24  25
ENDBRANCH  14  24
ENDBRANCH  11  12
ENDBRANCH   6  11
BRANCH   3  27
ATOM     27  C   UNL     1      10.310  -1.420  22.421  0.00  0.00    +0.190 C 
BRANCH  27  28
ATOM     28  O   UNL     1       9.800  -0.774  21.252  0.00  0.00    -0.392 OA
ATOM     29  H   UNL     1      10.321  -1.102  20.487  0.00  0.00    +0.210 HD
ENDBRANCH  27  28
ENDBRANCH   3  27
BRANCH   1  30
ATOM     30  O   UNL     1       7.840  -0.502  25.962  0.00  0.00    -0.453 OA
BRANCH  30  41
ATOM     31  C   UNL     1       5.763  -1.044  27.152  0.00  0.00    +0.181 A 
ATOM     32  O   UNL     1       4.866  -2.054  27.574  0.00  0.00    -0.451 OA
ATOM     33  C   UNL     1       5.206  -3.386  27.500  0.00  0.00    +0.147 A 
ATOM     34  C   UNL     1       6.471  -3.801  27.127  0.00  0.00    +0.109 A 
ATOM     35  C   UNL     1       6.807  -5.167  27.161  0.00  0.00    +0.135 A 
ATOM     36  C   UNL     1       5.859  -6.120  27.512  0.00  0.00    +0.091 A 
ATOM     37  C   UNL     1       4.571  -5.709  27.816  0.00  0.00    +0.124 A 
ATOM     38  C   UNL     1       7.398  -2.787  26.649  0.00  0.00    +0.238 A 
ATOM     39  O   UNL     1       8.482  -3.146  26.197  0.00  0.00    -0.283 OA
ATOM     40  C   UNL     1       4.237  -4.344  27.815  0.00  0.00    +0.092 A 
ATOM     41  C   UNL     1       7.006  -1.340  26.682  0.00  0.00    +0.214 A 
BRANCH  31  45
ATOM     42  C   UNL     1       3.841   2.918  27.459  0.00  0.00    +0.161 A 
ATOM     43  C   UNL     1       4.935   2.614  28.246  0.00  0.00    +0.050 A 
ATOM     44  C   UNL     1       5.572   1.359  28.112  0.00  0.00    +0.015 A 
ATOM     45  C   UNL     1       5.121   0.332  27.262  0.00  0.00    +0.025 A 
ATOM     46  C   UNL     1       3.977   0.657  26.506  0.00  0.00    +0.060 A 
ATOM     47  C   UNL     1       3.390   1.930  26.581  0.00  0.00    +0.159 A 
BRANCH  47  48
ATOM     48  O   UNL     1       2.352   2.219  25.733  0.00  0.00    -0.503 OA
ATOM     49  H   UNL     1       2.070   1.352  25.380  0.00  0.00    +0.292 HD
ENDBRANCH  47  48
BRANCH  42  51
ATOM     50  C   UNL     1       3.857   5.295  27.758  0.00  0.00    +0.277 C 
ATOM     51  O   UNL     1       3.158   4.101  27.417  0.00  0.00    -0.491 OA
ENDBRANCH  42  51
ENDBRANCH  31  45
BRANCH  37  52
ATOM     52  O   UNL     1       3.608  -6.621  28.129  0.00  0.00    -0.507 OA
ATOM     53  H   UNL     1       2.994  -6.227  28.780  0.00  0.00    +0.292 HD
ENDBRANCH  37  52
BRANCH  35  54
ATOM     54  O   UNL     1       8.045  -5.651  26.844  0.00  0.00    -0.506 OA
ATOM     55  H   UNL     1       7.994  -6.068  25.959  0.00  0.00    +0.292 HD
ENDBRANCH  35  54
ENDBRANCH  30  41
ENDBRANCH   1  30
TORSDOF 18
ENDMDL
MODEL 3
REMARK VINA RESULT:      -6.4      1.526      2.475
REMARK  Name = 
REMARK  19 active torsions:
REMARK  status: ('A' for Active; 'I' for Inactive)
REMARK    1  A    between atoms: C_1  and  O_2
REMARK    2  A    between atoms: O_2  and  C_3
REMARK    3  A    between atoms: C_4  and  O_50
REMARK    4  A    between atoms: C_6  and  C_9
REMARK    5  A    between atoms: C_10  and  O_22
REMARK    6  A    between atoms: C_14  and  O_21
REMARK    7  A    between atoms: C_16  and  O_20
REMARK    8  A    between atoms: O_22  and  C_23
REMARK    9  A    between atoms: C_25  and  O_35
REMARK   10  A    between atoms: C_26  and  O_34
REMARK   11  A    between atoms: C_27  and  O_33
REMARK   12  A    between atoms: C_29  and  C_31
REMARK   13  A    between atoms: C_31  and  O_32
REMARK   14  A    between atoms: O_35  and  C_36
REMARK   15  A    between atoms: C_38  and  O_49
REMARK   16  A    between atoms: C_40  and  O_48
REMARK   17  A    between atoms: C_41  and  O_47
REMARK   18  A    between atoms: C_43  and  C_45
REMARK   19  A    between atoms: C_45  and  O_46
REMARK                            x       y       z     vdW  Elec       q    Type
REMARK                         _______ _______ _______ _____ _____    ______ ____
ROOT
ATOM      1  C   UNL     1       5.082   0.094  26.047  0.00  0.00    +0.340 C 
ATOM      2  O   UNL     1       3.939   0.996  26.133  0.00  0.00    -0.331 OA
ATOM      3  C   UNL     1       3.239   1.033  27.404  0.00  0.00    +0.179 C 
ATOM      4  C   UNL     1       3.083  -0.320  28.159  0.00  0.00    +0.177 C 
ATOM      5  C   UNL     1       4.219  -1.321  27.911  0.00  0.00    +0.180 C 
ATOM      6  C   UNL     1       4.495  -1.275  26.417  0.00  0.00    +0.221 C 
ENDROOT
BRANCH   5   7
ATOM      7  O   UNL     1       3.805  -2.627  28.333  0.00  0.00    -0.386 OA
ATOM      8  H   UNL     1       3.977  -3.230  27.584  0.00  0.00    +0.210 HD
ENDBRANCH   5   7
BRANCH   4   9
ATOM      9  O   UNL     1       2.893  -0.130  29.567  0.00  0.00    -0.386 OA
ATOM     10  H   UNL     1       3.745   0.125  29.968  0.00  0.00    +0.210 HD
ENDBRANCH   4   9
BRANCH   6  11
ATOM     11  O   UNL     1       4.889  -2.447  25.750  0.00  0.00    -0.337 OA
BRANCH  11  12
ATOM     12  C   UNL     1       4.101  -3.181  24.853  0.00  0.00    +0.282 C 
ATOM     13  O   UNL     1       3.623  -4.338  25.575  0.00  0.00    -0.341 OA
ATOM     14  C   UNL     1       4.693  -5.057  26.220  0.00  0.00    +0.178 C 
ATOM     15  C   UNL     1       5.772  -5.529  25.225  0.00  0.00    +0.177 C 
ATOM     16  C   UNL     1       6.124  -4.478  24.163  0.00  0.00    +0.179 C 
ATOM     17  C   UNL     1       4.916  -3.675  23.654  0.00  0.00    +0.201 C 
BRANCH  17  18
ATOM     18  O   UNL     1       4.075  -4.425  22.766  0.00  0.00    -0.384 OA
ATOM     19  H   UNL     1       3.559  -3.775  22.253  0.00  0.00    +0.210 HD
ENDBRANCH  17  18
BRANCH  16  20
ATOM     20  O   UNL     1       6.766  -5.153  23.062  0.00  0.00    -0.386 OA
ATOM     21  H   UNL     1       6.671  -4.575  22.284  0.00  0.00    +0.210 HD
ENDBRANCH  16  20
BRANCH  15  22
ATOM     22  O   UNL     1       5.388  -6.740  24.553  0.00  0.00    -0.386 OA
ATOM     23  H   UNL     1       5.025  -6.443  23.692  0.00  0.00    +0.210 HD
ENDBRANCH  15  22
BRANCH  14  24
ATOM     24  C   UNL     1       4.103  -6.215  27.033  0.00  0.00    +0.190 C 
BRANCH  24  25
ATOM     25  O   UNL     1       5.109  -7.172  27.362  0.00  0.00    -0.392 OA
ATOM     26  H   UNL     1       5.439  -7.527  26.518  0.00  0.00    +0.210 HD
ENDBRANCH  24  25
ENDBRANCH  14  24
ENDBRANCH  11  12
ENDBRANCH   6  11
BRANCH   3  27
ATOM     27  C   UNL     1       1.794   1.535  27.118  0.00  0.00    +0.190 C 
BRANCH  27  28
ATOM     28  O   UNL     1       0.934   1.521  28.260  0.00  0.00    -0.392 OA
ATOM     29  H   UNL     1       1.467   1.818  29.030  0.00  0.00    +0.210 HD
ENDBRANCH  27  28
ENDBRANCH   3  27
BRANCH   1  30
ATOM     30  O   UNL     1       6.115   0.670  26.861  0.00  0.00    -0.453 OA
BRANCH  30  41
ATOM     31  C   UNL     1       8.170   0.915  25.542  0.00  0.00    +0.181 A 
ATOM     32  O   UNL     1       8.992   1.775  24.775  0.00  0.00    -0.451 OA
ATOM     33  C   UNL     1       8.788   3.136  24.765  0.00  0.00    +0.147 A 
ATOM     34  C   UNL     1       7.858   3.745  25.588  0.00  0.00    +0.109 A 
ATOM     35  C   UNL     1       7.752   5.147  25.620  0.00  0.00    +0.135 A 
ATOM     36  C   UNL     1       8.535   5.936  24.786  0.00  0.00    +0.091 A 
ATOM     37  C   UNL     1       9.415   5.321  23.910  0.00  0.00    +0.124 A 
ATOM     38  C   UNL     1       6.974   2.883  26.356  0.00  0.00    +0.238 A 
ATOM     39  O   UNL     1       6.060   3.397  26.997  0.00  0.00    -0.283 OA
ATOM     40  C   UNL     1       9.550   3.923  23.895  0.00  0.00    +0.092 A 
ATOM     41  C   UNL     1       7.164   1.396  26.323  0.00  0.00    +0.214 A 
BRANCH  31  45
ATOM     42  C   UNL     1       9.329  -3.289  24.863  0.00  0.00    +0.161 A 
ATOM     43  C   UNL     1       8.668  -2.930  26.021  0.00  0.00    +0.050 A 
ATOM     44  C   UNL     1       8.261  -1.589  26.213  0.00  0.00    +0.015 A 
ATOM     45  C   UNL     1       8.550  -0.541  25.319  0.00  0.00    +0.025 A 
ATOM     46  C   UNL     1       9.266  -0.933  24.170  0.00  0.00    +0.060 A 
ATOM     47  C   UNL     1       9.602  -2.276  23.941  0.00  0.00    +0.159 A 
BRANCH  47  48
ATOM     48  O   UNL     1      10.193  -2.605  22.748  0.00  0.00    -0.503 OA
ATOM     49  H   UNL     1       9.454  -2.886  22.173  0.00  0.00    +0.292 HD
ENDBRANCH  47  48
BRANCH  42  51
ATOM     50  C   UNL     1       9.448  -5.625  25.380  0.00  0.00    +0.277 C 
ATOM     51  O   UNL     1       9.727  -4.544  24.495  0.00  0.00    -0.491 OA
ENDBRANCH  42  51
ENDBRANCH  31  45
BRANCH  37  52
ATOM     52  O   UNL     1      10.171   6.064  23.053  0.00  0.00    -0.507 OA
ATOM     53  H   UNL     1      10.235   6.979  23.394  0.00  0.00    +0.292 HD
ENDBRANCH  37  52
BRANCH  35  54
ATOM     54  O   UNL     1       6.885   5.824  26.433  0.00  0.00    -0.506 OA
ATOM     55  H   UNL     1       7.388   6.516  26.910  0.00  0.00    +0.292 HD
ENDBRANCH  35  54
ENDBRANCH  30  41
ENDBRANCH   1  30
TORSDOF 18
ENDMDL
MODEL 4
REMARK VINA RESULT:      -6.4      2.540      8.375
REMARK  Name = 
REMARK  19 active torsions:
REMARK  status: ('A' for Active; 'I' for Inactive)
REMARK    1  A    between atoms: C_1  and  O_2
REMARK    2  A    between atoms: O_2  and  C_3
REMARK    3  A    between atoms: C_4  and  O_50
REMARK    4  A    between atoms: C_6  and  C_9
REMARK    5  A    between atoms: C_10  and  O_22
REMARK    6  A    between atoms: C_14  and  O_21
REMARK    7  A    between atoms: C_16  and  O_20
REMARK    8  A    between atoms: O_22  and  C_23
REMARK    9  A    between atoms: C_25  and  O_35
REMARK   10  A    between atoms: C_26  and  O_34
REMARK   11  A    between atoms: C_27  and  O_33
REMARK   12  A    between atoms: C_29  and  C_31
REMARK   13  A    between atoms: C_31  and  O_32
REMARK   14  A    between atoms: O_35  and  C_36
REMARK   15  A    between atoms: C_38  and  O_49
REMARK   16  A    between atoms: C_40  and  O_48
REMARK   17  A    between atoms: C_41  and  O_47
REMARK   18  A    between atoms: C_43  and  C_45
REMARK   19  A    between atoms: C_45  and  O_46
REMARK                            x       y       z     vdW  Elec       q    Type
REMARK                         _______ _______ _______ _____ _____    ______ ____
ROOT
ATOM      1  C   UNL     1       5.358   1.572  25.794  0.00  0.00    +0.340 C 
ATOM      2  O   UNL     1       4.658   1.333  27.051  0.00  0.00    -0.331 OA
ATOM      3  C   UNL     1       3.210   1.410  27.009  0.00  0.00    +0.179 C 
ATOM      4  C   UNL     1       2.591   2.510  26.097  0.00  0.00    +0.177 C 
ATOM      5  C   UNL     1       3.437   2.866  24.868  0.00  0.00    +0.180 C 
ATOM      6  C   UNL     1       4.872   2.962  25.364  0.00  0.00    +0.221 C 
ENDROOT
BRANCH   5   7
ATOM      7  O   UNL     1       2.983   4.110  24.319  0.00  0.00    -0.386 OA
ATOM      8  H   UNL     1       2.987   4.005  23.348  0.00  0.00    +0.210 HD
ENDBRANCH   5   7
BRANCH   4   9
ATOM      9  O   UNL     1       1.254   2.186  25.696  0.00  0.00    -0.386 OA
ATOM     10  H   UNL     1       0.823   1.684  26.412  0.00  0.00    +0.210 HD
ENDBRANCH   4   9
BRANCH   6  11
ATOM     11  O   UNL     1       5.743   3.898  24.781  0.00  0.00    -0.337 OA
BRANCH  11  12
ATOM     12  C   UNL     1       6.876   3.593  24.015  0.00  0.00    +0.282 C 
ATOM     13  O   UNL     1       8.013   4.131  24.727  0.00  0.00    -0.341 OA
ATOM     14  C   UNL     1       7.830   5.520  25.071  0.00  0.00    +0.178 C 
ATOM     15  C   UNL     1       7.577   6.406  23.835  0.00  0.00    +0.177 C 
ATOM     16  C   UNL     1       6.629   5.769  22.811  0.00  0.00    +0.179 C 
ATOM     17  C   UNL     1       6.825   4.255  22.635  0.00  0.00    +0.201 C 
BRANCH  17  18
ATOM     18  O   UNL     1       8.004   3.922  21.888  0.00  0.00    -0.384 OA
ATOM     19  H   UNL     1       8.367   3.109  22.286  0.00  0.00    +0.210 HD
ENDBRANCH  17  18
BRANCH  16  20
ATOM     20  O   UNL     1       6.819   6.440  21.549  0.00  0.00    -0.386 OA
ATOM     21  H   UNL     1       7.781   6.492  21.400  0.00  0.00    +0.210 HD
ENDBRANCH  16  20
BRANCH  15  22
ATOM     22  O   UNL     1       8.801   6.752  23.166  0.00  0.00    -0.386 OA
ATOM     23  H   UNL     1       9.474   6.150  23.549  0.00  0.00    +0.210 HD
ENDBRANCH  15  22
BRANCH  14  24
ATOM     24  C   UNL     1       9.032   5.996  25.895  0.00  0.00    +0.190 C 
BRANCH  24  25
ATOM     25  O   UNL     1       8.643   6.305  27.232  0.00  0.00    -0.392 OA
ATOM     26  H   UNL     1       9.326   6.901  27.588  0.00  0.00    +0.210 HD
ENDBRANCH  24  25
ENDBRANCH  14  24
ENDBRANCH  11  12
ENDBRANCH   6  11
BRANCH   3  27
ATOM     27  C   UNL     1       2.725   1.727  28.454  0.00  0.00    +0.190 C 
BRANCH  27  28
ATOM     28  O   UNL     1       1.310   1.625  28.631  0.00  0.00    -0.392 OA
ATOM     29  H   UNL     1       1.055   2.276  29.320  0.00  0.00    +0.210 HD
ENDBRANCH  27  28
ENDBRANCH   3  27
BRANCH   1  30
ATOM     30  O   UNL     1       5.092   0.434  24.960  0.00  0.00    -0.453 OA
BRANCH  30  41
ATOM     31  C   UNL     1       7.085  -0.997  25.020  0.00  0.00    +0.181 A 
ATOM     32  O   UNL     1       7.687  -2.173  25.529  0.00  0.00    -0.451 OA
ATOM     33  C   UNL     1       6.943  -3.131  26.178  0.00  0.00    +0.147 A 
ATOM     34  C   UNL     1       5.564  -3.058  26.262  0.00  0.00    +0.109 A 
ATOM     35  C   UNL     1       4.834  -4.109  26.845  0.00  0.00    +0.135 A 
ATOM     36  C   UNL     1       5.487  -5.205  27.396  0.00  0.00    +0.091 A 
ATOM     37  C   UNL     1       6.872  -5.243  27.376  0.00  0.00    +0.124 A 
ATOM     38  C   UNL     1       4.925  -1.842  25.784  0.00  0.00    +0.238 A 
ATOM     39  O   UNL     1       3.717  -1.703  25.961  0.00  0.00    -0.283 OA
ATOM     40  C   UNL     1       7.607  -4.212  26.767  0.00  0.00    +0.092 A 
ATOM     41  C   UNL     1       5.746  -0.775  25.124  0.00  0.00    +0.214 A 
BRANCH  31  45
ATOM     42  C   UNL     1      10.073   1.723  23.243  0.00  0.00    +0.161 A 
ATOM     43  C   UNL     1      10.106   1.444  24.595  0.00  0.00    +0.050 A 
ATOM     44  C   UNL     1       9.173   0.538  25.151  0.00  0.00    +0.015 A 
ATOM     45  C   UNL     1       8.132  -0.067  24.422  0.00  0.00    +0.025 A 
ATOM     46  C   UNL     1       8.098   0.274  23.055  0.00  0.00    +0.060 A 
ATOM     47  C   UNL     1       9.071   1.111  22.487  0.00  0.00    +0.159 A 
BRANCH  47  48
ATOM     48  O   UNL     1       9.049   1.308  21.130  0.00  0.00    -0.503 OA
ATOM     49  H   UNL     1       8.426   2.049  20.996  0.00  0.00    +0.292 HD
ENDBRANCH  47  48
BRANCH  42  51
ATOM     50  C   UNL     1      11.341   3.752  23.126  0.00  0.00    +0.277 C 
ATOM     51  O   UNL     1      10.939   2.516  22.543  0.00  0.00    -0.491 OA
ENDBRANCH  42  51
ENDBRANCH  31  45
BRANCH  37  52
ATOM     52  O   UNL     1       7.545  -6.284  27.941  0.00  0.00    -0.507 OA
ATOM     53  H   UNL     1       8.488  -6.232  27.685  0.00  0.00    +0.292 HD
ENDBRANCH  37  52
BRANCH  35  54
ATOM     54  O   UNL     1       3.469  -4.128  26.932  0.00  0.00    -0.506 OA
ATOM     55  H   UNL     1       3.220  -4.002  27.871  0.00  0.00    +0.292 HD
ENDBRANCH  35  54
ENDBRANCH  30  41
ENDBRANCH   1  30
TORSDOF 18
ENDMDL
MODEL 5
REMARK VINA RESULT:      -6.3      2.101      5.761
REMARK  Name = 
REMARK  19 active torsions:
REMARK  status: ('A' for Active; 'I' for Inactive)
REMARK    1  A    between atoms: C_1  and  O_2
REMARK    2  A    between atoms: O_2  and  C_3
REMARK    3  A    between atoms: C_4  and  O_50
REMARK    4  A    between atoms: C_6  and  C_9
REMARK    5  A    between atoms: C_10  and  O_22
REMARK    6  A    between atoms: C_14  and  O_21
REMARK    7  A    between atoms: C_16  and  O_20
REMARK    8  A    between atoms: O_22  and  C_23
REMARK    9  A    between atoms: C_25  and  O_35
REMARK   10  A    between atoms: C_26  and  O_34
REMARK   11  A    between atoms: C_27  and  O_33
REMARK   12  A    between atoms: C_29  and  C_31
REMARK   13  A    between atoms: C_31  and  O_32
REMARK   14  A    between atoms: O_35  and  C_36
REMARK   15  A    between atoms: C_38  and  O_49
REMARK   16  A    between atoms: C_40  and  O_48
REMARK   17  A    between atoms: C_41  and  O_47
REMARK   18  A    between atoms: C_43  and  C_45
REMARK   19  A    between atoms: C_45  and  O_46
REMARK                            x       y       z     vdW  Elec       q    Type
REMARK                         _______ _______ _______ _____ _____    ______ ____
ROOT
ATOM      1  C   UNL     1       6.324  -3.086  25.495  0.00  0.00    +0.340 C 
ATOM      2  O   UNL     1       7.775  -3.222  25.549  0.00  0.00    -0.331 OA
ATOM      3  C   UNL     1       8.390  -3.996  24.485  0.00  0.00    +0.179 C 
ATOM      4  C   UNL     1       7.616  -5.254  23.994  0.00  0.00    +0.177 C 
ATOM      5  C   UNL     1       6.090  -5.149  24.113  0.00  0.00    +0.180 C 
ATOM      6  C   UNL     1       5.821  -4.535  25.478  0.00  0.00    +0.221 C 
ENDROOT
BRANCH   5   7
ATOM      7  O   UNL     1       5.510  -6.454  23.996  0.00  0.00    -0.386 OA
ATOM      8  H   UNL     1       6.251  -7.090  23.991  0.00  0.00    +0.210 HD
ENDBRANCH   5   7
BRANCH   4   9
ATOM      9  O   UNL     1       7.981  -5.621  22.658  0.00  0.00    -0.386 OA
ATOM     10  H   UNL     1       8.823  -5.185  22.429  0.00  0.00    +0.210 HD
ENDBRANCH   4   9
BRANCH   6  11
ATOM     11  O   UNL     1       4.679  -4.926  26.197  0.00  0.00    -0.337 OA
BRANCH  11  12
ATOM     12  C   UNL     1       4.510  -6.148  26.861  0.00  0.00    +0.282 C 
ATOM     13  O   UNL     1       3.171  -6.140  27.407  0.00  0.00    -0.341 OA
ATOM     14  C   UNL     1       2.908  -4.952  28.181  0.00  0.00    +0.178 C 
ATOM     15  C   UNL     1       3.900  -4.775  29.347  0.00  0.00    +0.177 C 
ATOM     16  C   UNL     1       5.351  -5.102  28.970  0.00  0.00    +0.179 C 
ATOM     17  C   UNL     1       5.495  -6.305  28.024  0.00  0.00    +0.201 C 
BRANCH  17  18
ATOM     18  O   UNL     1       5.283  -7.565  28.677  0.00  0.00    -0.384 OA
ATOM     19  H   UNL     1       4.319  -7.666  28.785  0.00  0.00    +0.210 HD
ENDBRANCH  17  18
BRANCH  16  20
ATOM     20  O   UNL     1       6.086  -5.343  30.187  0.00  0.00    -0.386 OA
ATOM     21  H   UNL     1       5.504  -5.867  30.768  0.00  0.00    +0.210 HD
ENDBRANCH  16  20
BRANCH  15  22
ATOM     22  O   UNL     1       3.537  -5.574  30.485  0.00  0.00    -0.386 OA
ATOM     23  H   UNL     1       2.558  -5.516  30.528  0.00  0.00    +0.210 HD
ENDBRANCH  15  22
BRANCH  14  24
ATOM     24  C   UNL     1       1.449  -4.973  28.653  0.00  0.00    +0.190 C 
BRANCH  24  25
ATOM     25  O   UNL     1       1.050  -6.292  29.019  0.00  0.00    -0.392 OA
ATOM     26  H   UNL     1       1.688  -6.599  29.687  0.00  0.00    +0.210 HD
ENDBRANCH  24  25
ENDBRANCH  14  24
ENDBRANCH  11  12
ENDBRANCH   6  11
BRANCH   3  27
ATOM     27  C   UNL     1       9.755  -4.514  25.026  0.00  0.00    +0.190 C 
BRANCH  27  28
ATOM     28  O   UNL     1       9.851  -5.938  25.099  0.00  0.00    -0.392 OA
ATOM     29  H   UNL     1       9.897  -6.179  26.050  0.00  0.00    +0.210 HD
ENDBRANCH  27  28
ENDBRANCH   3  27
BRANCH   1  30
ATOM     30  O   UNL     1       6.039  -2.218  24.387  0.00  0.00    -0.453 OA
BRANCH  30  41
ATOM     31  C   UNL     1       6.572   0.030  25.213  0.00  0.00    +0.181 A 
ATOM     32  O   UNL     1       7.440   1.147  25.140  0.00  0.00    -0.451 OA
ATOM     33  C   UNL     1       8.363   1.267  24.127  0.00  0.00    +0.147 A 
ATOM     34  C   UNL     1       8.413   0.377  23.068  0.00  0.00    +0.109 A 
ATOM     35  C   UNL     1       9.304   0.594  22.003  0.00  0.00    +0.135 A 
ATOM     36  C   UNL     1      10.186   1.668  22.024  0.00  0.00    +0.091 A 
ATOM     37  C   UNL     1      10.185   2.518  23.119  0.00  0.00    +0.124 A 
ATOM     38  C   UNL     1       7.561  -0.799  23.139  0.00  0.00    +0.238 A 
ATOM     39  O   UNL     1       7.677  -1.664  22.274  0.00  0.00    -0.283 OA
ATOM     40  C   UNL     1       9.276   2.326  24.173  0.00  0.00    +0.092 A 
ATOM     41  C   UNL     1       6.592  -0.955  24.273  0.00  0.00    +0.214 A 
BRANCH  31  45
ATOM     42  C   UNL     1       4.100   0.274  28.861  0.00  0.00    +0.161 A 
ATOM     43  C   UNL     1       3.533  -0.118  27.664  0.00  0.00    +0.050 A 
ATOM     44  C   UNL     1       4.340  -0.235  26.509  0.00  0.00    +0.015 A 
ATOM     45  C   UNL     1       5.707   0.096  26.464  0.00  0.00    +0.025 A 
ATOM     46  C   UNL     1       6.244   0.536  27.690  0.00  0.00    +0.060 A 
ATOM     47  C   UNL     1       5.463   0.578  28.856  0.00  0.00    +0.159 A 
BRANCH  47  48
ATOM     48  O   UNL     1       6.076   0.902  30.038  0.00  0.00    -0.503 OA
ATOM     49  H   UNL     1       6.594   0.107  30.276  0.00  0.00    +0.292 HD
ENDBRANCH  47  48
BRANCH  42  51
ATOM     50  C   UNL     1       2.055   0.384  30.104  0.00  0.00    +0.277 C 
ATOM     51  O   UNL     1       3.479   0.371  30.075  0.00  0.00    -0.491 OA
ENDBRANCH  42  51
ENDBRANCH  31  45
BRANCH  37  52
ATOM     52  O   UNL     1      11.062   3.558  23.189  0.00  0.00    -0.507 OA
ATOM     53  H   UNL     1      11.960   3.235  22.972  0.00  0.00    +0.292 HD
ENDBRANCH  37  52
BRANCH  35  54
ATOM     54  O   UNL     1       9.387  -0.218  20.905  0.00  0.00    -0.506 OA
ATOM     55  H   UNL     1       9.860   0.268  20.199  0.00  0.00    +0.292 HD
ENDBRANCH  35  54
ENDBRANCH  30  41
ENDBRANCH   1  30
TORSDOF 18
ENDMDL
MODEL 6
REMARK VINA RESULT:      -6.3      2.059      8.867
REMARK  Name = 
REMARK  19 active torsions:
REMARK  status: ('A' for Active; 'I' for Inactive)
REMARK    1  A    between atoms: C_1  and  O_2
REMARK    2  A    between atoms: O_2  and  C_3
REMARK    3  A    between atoms: C_4  and  O_50
REMARK    4  A    between atoms: C_6  and  C_9
REMARK    5  A    between atoms: C_10  and  O_22
REMARK    6  A    between atoms: C_14  and  O_21
REMARK    7  A    between atoms: C_16  and  O_20
REMARK    8  A    between atoms: O_22  and  C_23
REMARK    9  A    between atoms: C_25  and  O_35
REMARK   10  A    between atoms: C_26  and  O_34
REMARK   11  A    between atoms: C_27  and  O_33
REMARK   12  A    between atoms: C_29  and  C_31
REMARK   13  A    between atoms: C_31  and  O_32
REMARK   14  A    between atoms: O_35  and  C_36
REMARK   15  A    between atoms: C_38  and  O_49
REMARK   16  A    between atoms: C_40  and  O_48
REMARK   17  A    between atoms: C_41  and  O_47
REMARK   18  A    between atoms: C_43  and  C_45
REMARK   19  A    between atoms: C_45  and  O_46
REMARK                            x       y       z     vdW  Elec       q    Type
REMARK                         _______ _______ _______ _____ _____    ______ ____
ROOT
ATOM      1  C   UNL     1       6.087  -2.440  24.566  0.00  0.00    +0.340 C 
ATOM      2  O   UNL     1       5.325  -3.566  24.038  0.00  0.00    -0.331 OA
ATOM      3  C   UNL     1       6.095  -4.705  23.574  0.00  0.00    +0.179 C 
ATOM      4  C   UNL     1       7.432  -4.397  22.838  0.00  0.00    +0.177 C 
ATOM      5  C   UNL     1       8.126  -3.108  23.296  0.00  0.00    +0.180 C 
ATOM      6  C   UNL     1       7.028  -2.063  23.415  0.00  0.00    +0.221 C 
ENDROOT
BRANCH   5   7
ATOM      7  O   UNL     1       9.115  -2.729  22.329  0.00  0.00    -0.386 OA
ATOM      8  H   UNL     1       8.729  -2.909  21.450  0.00  0.00    +0.210 HD
ENDBRANCH   5   7
BRANCH   4   9
ATOM      9  O   UNL     1       8.346  -5.498  22.903  0.00  0.00    -0.386 OA
ATOM     10  H   UNL     1       8.706  -5.662  22.012  0.00  0.00    +0.210 HD
ENDBRANCH   4   9
BRANCH   6  11
ATOM     11  O   UNL     1       7.314  -0.722  23.107  0.00  0.00    -0.337 OA
BRANCH  11  12
ATOM     12  C   UNL     1       7.922   0.201  23.968  0.00  0.00    +0.282 C 
ATOM     13  O   UNL     1       6.998   1.303  24.112  0.00  0.00    -0.341 OA
ATOM     14  C   UNL     1       6.558   1.813  22.837  0.00  0.00    +0.178 C 
ATOM     15  C   UNL     1       7.730   2.285  21.953  0.00  0.00    +0.177 C 
ATOM     16  C   UNL     1       8.942   1.345  21.993  0.00  0.00    +0.179 C 
ATOM     17  C   UNL     1       9.227   0.750  23.381  0.00  0.00    +0.201 C 
BRANCH  17  18
ATOM     18  O   UNL     1       9.812   1.694  24.290  0.00  0.00    -0.384 OA
ATOM     19  H   UNL     1      10.418   1.191  24.865  0.00  0.00    +0.210 HD
ENDBRANCH  17  18
BRANCH  16  20
ATOM     20  O   UNL     1      10.092   2.080  21.527  0.00  0.00    -0.386 OA
ATOM     21  H   UNL     1       9.986   2.997  21.840  0.00  0.00    +0.210 HD
ENDBRANCH  16  20
BRANCH  15  22
ATOM     22  O   UNL     1       8.169   3.606  22.309  0.00  0.00    -0.386 OA
ATOM     23  H   UNL     1       7.463   3.955  22.894  0.00  0.00    +0.210 HD
ENDBRANCH  15  22
BRANCH  14  24
ATOM     24  C   UNL     1       5.519   2.916  23.067  0.00  0.00    +0.190 C 
BRANCH  24  25
ATOM     25  O   UNL     1       5.446   3.791  21.943  0.00  0.00    -0.392 OA
ATOM     26  H   UNL     1       4.992   3.296  21.237  0.00  0.00    +0.210 HD
ENDBRANCH  24  25
ENDBRANCH  14  24
ENDBRANCH  11  12
ENDBRANCH   6  11
BRANCH   3  27
ATOM     27  C   UNL     1       5.207  -5.472  22.550  0.00  0.00    +0.190 C 
BRANCH  27  28
ATOM     28  O   UNL     1       5.741  -6.734  22.145  0.00  0.00    -0.392 OA
ATOM     29  H   UNL     1       6.644  -6.805  22.525  0.00  0.00    +0.210 HD
ENDBRANCH  27  28
ENDBRANCH   3  27
BRANCH   1  30
ATOM     30  O   UNL     1       6.633  -2.873  25.821  0.00  0.00    -0.453 OA
BRANCH  30  41
ATOM     31  C   UNL     1       4.965  -2.342  27.541  0.00  0.00    +0.181 A 
ATOM     32  O   UNL     1       3.964  -2.831  28.415  0.00  0.00    -0.451 OA
ATOM     33  C   UNL     1       3.813  -4.179  28.643  0.00  0.00    +0.147 A 
ATOM     34  C   UNL     1       4.696  -5.114  28.132  0.00  0.00    +0.109 A 
ATOM     35  C   UNL     1       4.563  -6.472  28.472  0.00  0.00    +0.135 A 
ATOM     36  C   UNL     1       3.514  -6.902  29.274  0.00  0.00    +0.091 A 
ATOM     37  C   UNL     1       2.588  -5.975  29.727  0.00  0.00    +0.124 A 
ATOM     38  C   UNL     1       5.707  -4.643  27.199  0.00  0.00    +0.238 A 
ATOM     39  O   UNL     1       6.422  -5.471  26.638  0.00  0.00    -0.283 OA
ATOM     40  C   UNL     1       2.732  -4.612  29.418  0.00  0.00    +0.092 A 
ATOM     41  C   UNL     1       5.836  -3.178  26.912  0.00  0.00    +0.214 A 
BRANCH  31  45
ATOM     42  C   UNL     1       4.628   2.042  27.150  0.00  0.00    +0.161 A 
ATOM     43  C   UNL     1       5.782   1.477  27.656  0.00  0.00    +0.050 A 
ATOM     44  C   UNL     1       5.900   0.071  27.738  0.00  0.00    +0.015 A 
ATOM     45  C   UNL     1       4.871  -0.829  27.401  0.00  0.00    +0.025 A 
ATOM     46  C   UNL     1       3.691  -0.219  26.931  0.00  0.00    +0.060 A 
ATOM     47  C   UNL     1       3.601   1.173  26.775  0.00  0.00    +0.159 A 
BRANCH  47  48
ATOM     48  O   UNL     1       2.468   1.691  26.202  0.00  0.00    -0.503 OA
ATOM     49  H   UNL     1       2.516   1.419  25.264  0.00  0.00    +0.292 HD
ENDBRANCH  47  48
BRANCH  42  51
ATOM     50  C   UNL     1       5.470   4.283  27.055  0.00  0.00    +0.277 C 
ATOM     51  O   UNL     1       4.381   3.370  26.941  0.00  0.00    -0.491 OA
ENDBRANCH  42  51
ENDBRANCH  31  45
BRANCH  37  52
ATOM     52  O   UNL     1       1.527  -6.369  30.485  0.00  0.00    -0.507 OA
ATOM     53  H   UNL     1       1.128  -7.168  30.086  0.00  0.00    +0.292 HD
ENDBRANCH  37  52
BRANCH  35  54
ATOM     54  O   UNL     1       5.416  -7.449  28.038  0.00  0.00    -0.506 OA
ATOM     55  H   UNL     1       5.315  -7.536  27.068  0.00  0.00    +0.292 HD
ENDBRANCH  35  54
ENDBRANCH  30  41
ENDBRANCH   1  30
TORSDOF 18
ENDMDL
MODEL 7
REMARK VINA RESULT:      -6.2      2.003      5.685
REMARK  Name = 
REMARK  19 active torsions:
REMARK  status: ('A' for Active; 'I' for Inactive)
REMARK    1  A    between atoms: C_1  and  O_2
REMARK    2  A    between atoms: O_2  and  C_3
REMARK    3  A    between atoms: C_4  and  O_50
REMARK    4  A    between atoms: C_6  and  C_9
REMARK    5  A    between atoms: C_10  and  O_22
REMARK    6  A    between atoms: C_14  and  O_21
REMARK    7  A    between atoms: C_16  and  O_20
REMARK    8  A    between atoms: O_22  and  C_23
REMARK    9  A    between atoms: C_25  and  O_35
REMARK   10  A    between atoms: C_26  and  O_34
REMARK   11  A    between atoms: C_27  and  O_33
REMARK   12  A    between atoms: C_29  and  C_31
REMARK   13  A    between atoms: C_31  and  O_32
REMARK   14  A    between atoms: O_35  and  C_36
REMARK   15  A    between atoms: C_38  and  O_49
REMARK   16  A    between atoms: C_40  and  O_48
REMARK   17  A    between atoms: C_41  and  O_47
REMARK   18  A    between atoms: C_43  and  C_45
REMARK   19  A    between atoms: C_45  and  O_46
REMARK                            x       y       z     vdW  Elec       q    Type
REMARK                         _______ _______ _______ _____ _____    ______ ____
ROOT
ATOM      1  C   UNL     1       6.288  -2.967  25.553  0.00  0.00    +0.340 C 
ATOM      2  O   UNL     1       7.733  -3.137  25.650  0.00  0.00    -0.331 OA
ATOM      3  C   UNL     1       8.357  -3.961  24.630  0.00  0.00    +0.179 C 
ATOM      4  C   UNL     1       7.564  -5.216  24.160  0.00  0.00    +0.177 C 
ATOM      5  C   UNL     1       6.039  -5.069  24.233  0.00  0.00    +0.180 C 
ATOM      6  C   UNL     1       5.749  -4.404  25.570  0.00  0.00    +0.221 C 
ENDROOT
BRANCH   5   7
ATOM      7  O   UNL     1       5.429  -6.364  24.144  0.00  0.00    -0.386 OA
ATOM      8  H   UNL     1       5.394  -6.719  25.052  0.00  0.00    +0.210 HD
ENDBRANCH   5   7
BRANCH   4   9
ATOM      9  O   UNL     1       7.955  -5.637  22.847  0.00  0.00    -0.386 OA
ATOM     10  H   UNL     1       8.263  -4.859  22.345  0.00  0.00    +0.210 HD
ENDBRANCH   4   9
BRANCH   6  11
ATOM     11  O   UNL     1       4.579  -4.741  26.270  0.00  0.00    -0.337 OA
BRANCH  11  12
ATOM     12  C   UNL     1       4.485  -5.699  27.289  0.00  0.00    +0.282 C 
ATOM     13  O   UNL     1       3.937  -6.892  26.685  0.00  0.00    -0.341 OA
ATOM     14  C   UNL     1       2.726  -6.622  25.950  0.00  0.00    +0.178 C 
ATOM     15  C   UNL     1       1.631  -5.985  26.828  0.00  0.00    +0.177 C 
ATOM     16  C   UNL     1       2.164  -4.914  27.790  0.00  0.00    +0.179 C 
ATOM     17  C   UNL     1       3.533  -5.252  28.403  0.00  0.00    +0.201 C 
BRANCH  17  18
ATOM     18  O   UNL     1       3.461  -6.261  29.420  0.00  0.00    -0.384 OA
ATOM     19  H   UNL     1       3.154  -5.819  30.233  0.00  0.00    +0.210 HD
ENDBRANCH  17  18
BRANCH  16  20
ATOM     20  O   UNL     1       1.189  -4.727  28.835  0.00  0.00    -0.386 OA
ATOM     21  H   UNL     1       1.265  -3.800  29.127  0.00  0.00    +0.210 HD
ENDBRANCH  16  20
BRANCH  15  22
ATOM     22  O   UNL     1       0.921  -6.971  27.596  0.00  0.00    -0.386 OA
ATOM     23  H   UNL     1       1.496  -7.766  27.573  0.00  0.00    +0.210 HD
ENDBRANCH  15  22
BRANCH  14  24
ATOM     24  C   UNL     1       2.253  -7.911  25.269  0.00  0.00    +0.190 C 
BRANCH  24  25
ATOM     25  O   UNL     1       3.118  -8.267  24.192  0.00  0.00    -0.392 OA
ATOM     26  H   UNL     1       2.547  -8.432  23.421  0.00  0.00    +0.210 HD
ENDBRANCH  24  25
ENDBRANCH  14  24
ENDBRANCH  11  12
ENDBRANCH   6  11
BRANCH   3  27
ATOM     27  C   UNL     1       9.693  -4.493  25.224  0.00  0.00    +0.190 C 
BRANCH  27  28
ATOM     28  O   UNL     1       9.853  -5.910  25.124  0.00  0.00    -0.392 OA
ATOM     29  H   UNL     1      10.604  -6.076  24.512  0.00  0.00    +0.210 HD
ENDBRANCH  27  28
ENDBRANCH   3  27
BRANCH   1  30
ATOM     30  O   UNL     1       6.054  -2.131  24.409  0.00  0.00    -0.453 OA
BRANCH  30  41
ATOM     31  C   UNL     1       6.588   0.125  25.214  0.00  0.00    +0.181 A 
ATOM     32  O   UNL     1       7.461   1.238  25.136  0.00  0.00    -0.451 OA
ATOM     33  C   UNL     1       8.392   1.344  24.129  0.00  0.00    +0.147 A 
ATOM     34  C   UNL     1       8.448   0.442  23.081  0.00  0.00    +0.109 A 
ATOM     35  C   UNL     1       9.349   0.644  22.020  0.00  0.00    +0.135 A 
ATOM     36  C   UNL     1      10.234   1.715  22.037  0.00  0.00    +0.091 A 
ATOM     37  C   UNL     1      10.227   2.577  23.122  0.00  0.00    +0.124 A 
ATOM     38  C   UNL     1       7.591  -0.731  23.158  0.00  0.00    +0.238 A 
ATOM     39  O   UNL     1       7.712  -1.605  22.303  0.00  0.00    -0.283 OA
ATOM     40  C   UNL     1       9.309   2.400  24.171  0.00  0.00    +0.092 A 
ATOM     41  C   UNL     1       6.613  -0.870  24.286  0.00  0.00    +0.214 A 
BRANCH  31  45
ATOM     42  C   UNL     1       4.010   0.321  28.791  0.00  0.00    +0.161 A 
ATOM     43  C   UNL     1       5.383   0.391  28.921  0.00  0.00    +0.050 A 
ATOM     44  C   UNL     1       6.201   0.371  27.768  0.00  0.00    +0.015 A 
ATOM     45  C   UNL     1       5.714   0.207  26.457  0.00  0.00    +0.025 A 
ATOM     46  C   UNL     1       4.313   0.093  26.363  0.00  0.00    +0.060 A 
ATOM     47  C   UNL     1       3.494   0.191  27.499  0.00  0.00    +0.159 A 
BRANCH  47  48
ATOM     48  O   UNL     1       2.135   0.190  27.324  0.00  0.00    -0.503 OA
ATOM     49  H   UNL     1       1.836   1.047  27.687  0.00  0.00    +0.292 HD
ENDBRANCH  47  48
BRANCH  42  51
ATOM     50  C   UNL     1       2.936   1.632  30.485  0.00  0.00    +0.277 C 
ATOM     51  O   UNL     1       3.082   0.396  29.791  0.00  0.00    -0.491 OA
ENDBRANCH  42  51
ENDBRANCH  31  45
BRANCH  37  52
ATOM     52  O   UNL     1      11.107   3.615  23.188  0.00  0.00    -0.507 OA
ATOM     53  H   UNL     1      10.622   4.454  23.054  0.00  0.00    +0.292 HD
ENDBRANCH  37  52
BRANCH  35  54
ATOM     54  O   UNL     1       9.437  -0.180  20.933  0.00  0.00    -0.506 OA
ATOM     55  H   UNL     1       8.547  -0.251  20.529  0.00  0.00    +0.292 HD
ENDBRANCH  35  54
ENDBRANCH  30  41
ENDBRANCH   1  30
TORSDOF 18
ENDMDL
MODEL 8
REMARK VINA RESULT:      -6.2      2.243      3.242
REMARK  Name = 
REMARK  19 active torsions:
REMARK  status: ('A' for Active; 'I' for Inactive)
REMARK    1  A    between atoms: C_1  and  O_2
REMARK    2  A    between atoms: O_2  and  C_3
REMARK    3  A    between atoms: C_4  and  O_50
REMARK    4  A    between atoms: C_6  and  C_9
REMARK    5  A    between atoms: C_10  and  O_22
REMARK    6  A    between atoms: C_14  and  O_21
REMARK    7  A    between atoms: C_16  and  O_20
REMARK    8  A    between atoms: O_22  and  C_23
REMARK    9  A    between atoms: C_25  and  O_35
REMARK   10  A    between atoms: C_26  and  O_34
REMARK   11  A    between atoms: C_27  and  O_33
REMARK   12  A    between atoms: C_29  and  C_31
REMARK   13  A    between atoms: C_31  and  O_32
REMARK   14  A    between atoms: O_35  and  C_36
REMARK   15  A    between atoms: C_38  and  O_49
REMARK   16  A    between atoms: C_40  and  O_48
REMARK   17  A    between atoms: C_41  and  O_47
REMARK   18  A    between atoms: C_43  and  C_45
REMARK   19  A    between atoms: C_45  and  O_46
REMARK                            x       y       z     vdW  Elec       q    Type
REMARK                         _______ _______ _______ _____ _____    ______ ____
ROOT
ATOM      1  C   UNL     1       6.150   0.857  24.762  0.00  0.00    +0.340 C 
ATOM      2  O   UNL     1       5.782   1.770  23.687  0.00  0.00    -0.331 OA
ATOM      3  C   UNL     1       4.902   2.868  24.045  0.00  0.00    +0.179 C 
ATOM      4  C   UNL     1       3.777   2.559  25.076  0.00  0.00    +0.177 C 
ATOM      5  C   UNL     1       4.130   1.465  26.092  0.00  0.00    +0.180 C 
ATOM      6  C   UNL     1       4.801   0.357  25.295  0.00  0.00    +0.221 C 
ENDROOT
BRANCH   5   7
ATOM      7  O   UNL     1       2.933   1.004  26.733  0.00  0.00    -0.386 OA
ATOM      8  H   UNL     1       2.245   1.674  26.555  0.00  0.00    +0.210 HD
ENDBRANCH   5   7
BRANCH   4   9
ATOM      9  O   UNL     1       3.334   3.738  25.758  0.00  0.00    -0.386 OA
ATOM     10  H   UNL     1       2.359   3.747  25.773  0.00  0.00    +0.210 HD
ENDBRANCH   4   9
BRANCH   6  11
ATOM     11  O   UNL     1       4.612  -0.981  25.678  0.00  0.00    -0.337 OA
BRANCH  11  12
ATOM     12  C   UNL     1       5.629  -1.895  25.985  0.00  0.00    +0.282 C 
ATOM     13  O   UNL     1       5.813  -2.718  24.811  0.00  0.00    -0.341 OA
ATOM     14  C   UNL     1       4.571  -3.281  24.342  0.00  0.00    +0.178 C 
ATOM     15  C   UNL     1       3.865  -4.132  25.416  0.00  0.00    +0.177 C 
ATOM     16  C   UNL     1       3.908  -3.507  26.817  0.00  0.00    +0.179 C 
ATOM     17  C   UNL     1       5.238  -2.810  27.149  0.00  0.00    +0.201 C 
BRANCH  17  18
ATOM     18  O   UNL     1       6.303  -3.732  27.426  0.00  0.00    -0.384 OA
ATOM     19  H   UNL     1       6.557  -4.131  26.573  0.00  0.00    +0.210 HD
ENDBRANCH  17  18
BRANCH  16  20
ATOM     20  O   UNL     1       3.644  -4.548  27.779  0.00  0.00    -0.386 OA
ATOM     21  H   UNL     1       2.879  -4.255  28.307  0.00  0.00    +0.210 HD
ENDBRANCH  16  20
BRANCH  15  22
ATOM     22  O   UNL     1       4.413  -5.458  25.494  0.00  0.00    -0.386 OA
ATOM     23  H   UNL     1       3.812  -5.941  26.100  0.00  0.00    +0.210 HD
ENDBRANCH  15  22
BRANCH  14  24
ATOM     24  C   UNL     1       4.830  -4.067  23.052  0.00  0.00    +0.190 C 
BRANCH  24  25
ATOM     25  O   UNL     1       3.738  -4.935  22.755  0.00  0.00    -0.392 OA
ATOM     26  H   UNL     1       3.144  -4.440  22.164  0.00  0.00    +0.210 HD
ENDBRANCH  24  25
ENDBRANCH  14  24
ENDBRANCH  11  12
ENDBRANCH   6  11
BRANCH   3  27
ATOM     27  C   UNL     1       4.179   3.320  22.743  0.00  0.00    +0.190 C 
BRANCH  27  28
ATOM     28  O   UNL     1       2.811   2.915  22.664  0.00  0.00    -0.392 OA
ATOM     29  H   UNL     1       2.325   3.388  23.374  0.00  0.00    +0.210 HD
ENDBRANCH  27  28
ENDBRANCH   3  27
BRANCH   1  30
ATOM     30  O   UNL     1       7.034   1.585  25.628  0.00  0.00    -0.453 OA
BRANCH  30  41
ATOM     31  C   UNL     1       9.244   1.273  24.608  0.00  0.00    +0.181 A 
ATOM     32  O   UNL     1      10.335   1.872  23.933  0.00  0.00    -0.451 OA
ATOM     33  C   UNL     1      10.452   3.240  23.841  0.00  0.00    +0.147 A 
ATOM     34  C   UNL     1       9.588   4.097  24.499  0.00  0.00    +0.109 A 
ATOM     35  C   UNL     1       9.804   5.486  24.461  0.00  0.00    +0.135 A 
ATOM     36  C   UNL     1      10.850   6.020  23.717  0.00  0.00    +0.091 A 
ATOM     37  C   UNL     1      11.671   5.165  23.000  0.00  0.00    +0.124 A 
ATOM     38  C   UNL     1       8.437   3.509  25.165  0.00  0.00    +0.238 A 
ATOM     39  O   UNL     1       7.591   4.258  25.649  0.00  0.00    -0.283 OA
ATOM     40  C   UNL     1      11.481   3.774  23.059  0.00  0.00    +0.092 A 
ATOM     41  C   UNL     1       8.283   2.019  25.218  0.00  0.00    +0.214 A 
BRANCH  31  45
ATOM     42  C   UNL     1       9.370  -3.130  24.333  0.00  0.00    +0.161 A 
ATOM     43  C   UNL     1       9.620  -2.358  23.216  0.00  0.00    +0.050 A 
ATOM     44  C   UNL     1       9.620  -0.948  23.320  0.00  0.00    +0.015 A 
ATOM     45  C   UNL     1       9.305  -0.244  24.498  0.00  0.00    +0.025 A 
ATOM     46  C   UNL     1       9.010  -1.061  25.608  0.00  0.00    +0.060 A 
ATOM     47  C   UNL     1       9.086  -2.460  25.525  0.00  0.00    +0.159 A 
BRANCH  47  48
ATOM     48  O   UNL     1       8.903  -3.190  26.671  0.00  0.00    -0.503 OA
ATOM     49  H   UNL     1       9.801  -3.476  26.930  0.00  0.00    +0.292 HD
ENDBRANCH  47  48
BRANCH  42  51
ATOM     50  C   UNL     1       8.243  -5.219  24.006  0.00  0.00    +0.277 C 
ATOM     51  O   UNL     1       9.399  -4.495  24.417  0.00  0.00    -0.491 OA
ENDBRANCH  42  51
ENDBRANCH  31  45
BRANCH  37  52
ATOM     52  O   UNL     1      12.683   5.658  22.232  0.00  0.00    -0.507 OA
ATOM     53  H   UNL     1      12.772   6.618  22.399  0.00  0.00    +0.292 HD
ENDBRANCH  37  52
BRANCH  35  54
ATOM     54  O   UNL     1       9.018   6.394  25.114  0.00  0.00    -0.506 OA
ATOM     55  H   UNL     1       8.105   6.041  25.147  0.00  0.00    +0.292 HD
ENDBRANCH  35  54
ENDBRANCH  30  41
ENDBRANCH   1  30
TORSDOF 18
ENDMDL
MODEL 9
REMARK VINA RESULT:      -6.1      2.261      5.911
REMARK  Name = 
REMARK  19 active torsions:
REMARK  status: ('A' for Active; 'I' for Inactive)
REMARK    1  A    between atoms: C_1  and  O_2
REMARK    2  A    between atoms: O_2  and  C_3
REMARK    3  A    between atoms: C_4  and  O_50
REMARK    4  A    between atoms: C_6  and  C_9
REMARK    5  A    between atoms: C_10  and  O_22
REMARK    6  A    between atoms: C_14  and  O_21
REMARK    7  A    between atoms: C_16  and  O_20
REMARK    8  A    between atoms: O_22  and  C_23
REMARK    9  A    between atoms: C_25  and  O_35
REMARK   10  A    between atoms: C_26  and  O_34
REMARK   11  A    between atoms: C_27  and  O_33
REMARK   12  A    between atoms: C_29  and  C_31
REMARK   13  A    between atoms: C_31  and  O_32
REMARK   14  A    between atoms: O_35  and  C_36
REMARK   15  A    between atoms: C_38  and  O_49
REMARK   16  A    between atoms: C_40  and  O_48
REMARK   17  A    between atoms: C_41  and  O_47
REMARK   18  A    between atoms: C_43  and  C_45
REMARK   19  A    between atoms: C_45  and  O_46
REMARK                            x       y       z     vdW  Elec       q    Type
REMARK                         _______ _______ _______ _____ _____    ______ ____
ROOT
ATOM      1  C   UNL     1       5.089  -3.747  26.813  0.00  0.00    +0.340 C 
ATOM      2  O   UNL     1       4.030  -4.666  27.214  0.00  0.00    -0.331 OA
ATOM      3  C   UNL     1       4.351  -5.595  28.282  0.00  0.00    +0.179 C 
ATOM      4  C   UNL     1       5.791  -6.189  28.286  0.00  0.00    +0.177 C 
ATOM      5  C   UNL     1       6.862  -5.264  27.695  0.00  0.00    +0.180 C 
ATOM      6  C   UNL     1       6.252  -4.674  26.433  0.00  0.00    +0.221 C 
ENDROOT
BRANCH   5   7
ATOM      7  O   UNL     1       8.043  -6.023  27.406  0.00  0.00    -0.386 OA
ATOM      8  H   UNL     1       7.747  -6.928  27.190  0.00  0.00    +0.210 HD
ENDBRANCH   5   7
BRANCH   4   9
ATOM      9  O   UNL     1       6.186  -6.628  29.591  0.00  0.00    -0.386 OA
ATOM     10  H   UNL     1       6.664  -7.474  29.508  0.00  0.00    +0.210 HD
ENDBRANCH   4   9
BRANCH   6  11
ATOM     11  O   UNL     1       7.076  -4.404  25.328  0.00  0.00    -0.337 OA
BRANCH  11  12
ATOM     12  C   UNL     1       7.200  -5.206  24.186  0.00  0.00    +0.282 C 
ATOM     13  O   UNL     1       7.874  -4.404  23.190  0.00  0.00    -0.341 OA
ATOM     14  C   UNL     1       7.239  -3.123  23.003  0.00  0.00    +0.178 C 
ATOM     15  C   UNL     1       5.759  -3.251  22.591  0.00  0.00    +0.177 C 
ATOM     16  C   UNL     1       5.004  -4.344  23.360  0.00  0.00    +0.179 C 
ATOM     17  C   UNL     1       5.834  -5.610  23.624  0.00  0.00    +0.201 C 
BRANCH  17  18
ATOM     18  O   UNL     1       6.007  -6.424  22.455  0.00  0.00    -0.384 OA
ATOM     19  H   UNL     1       5.135  -6.806  22.247  0.00  0.00    +0.210 HD
ENDBRANCH  17  18
BRANCH  16  20
ATOM     20  O   UNL     1       3.818  -4.679  22.611  0.00  0.00    -0.386 OA
ATOM     21  H   UNL     1       4.118  -5.091  21.780  0.00  0.00    +0.210 HD
ENDBRANCH  16  20
BRANCH  15  22
ATOM     22  O   UNL     1       5.616  -3.506  21.184  0.00  0.00    -0.386 OA
ATOM     23  H   UNL     1       4.647  -3.570  21.040  0.00  0.00    +0.210 HD
ENDBRANCH  15  22
BRANCH  14  24
ATOM     24  C   UNL     1       8.055  -2.298  22.001  0.00  0.00    +0.190 C 
BRANCH  24  25
ATOM     25  O   UNL     1       9.441  -2.309  22.339  0.00  0.00    -0.392 OA
ATOM     26  H   UNL     1       9.930  -2.240  21.500  0.00  0.00    +0.210 HD
ENDBRANCH  24  25
ENDBRANCH  14  24
ENDBRANCH  11  12
ENDBRANCH   6  11
BRANCH   3  27
ATOM     27  C   UNL     1       3.386  -6.808  28.140  0.00  0.00    +0.190 C 
BRANCH  27  28
ATOM     28  O   UNL     1       3.355  -7.666  29.283  0.00  0.00    -0.392 OA
ATOM     29  H   UNL     1       3.252  -7.094  30.075  0.00  0.00    +0.210 HD
ENDBRANCH  27  28
ENDBRANCH   3  27
BRANCH   1  30
ATOM     30  O   UNL     1       5.245  -2.812  27.891  0.00  0.00    -0.453 OA
BRANCH  30  41
ATOM     31  C   UNL     1       5.228  -0.501  27.066  0.00  0.00    +0.181 A 
ATOM     32  O   UNL     1       4.464   0.665  26.818  0.00  0.00    -0.451 OA
ATOM     33  C   UNL     1       3.190   0.803  27.320  0.00  0.00    +0.147 A 
ATOM     34  C   UNL     1       2.636  -0.125  28.184  0.00  0.00    +0.109 A 
ATOM     35  C   UNL     1       1.371   0.105  28.753  0.00  0.00    +0.135 A 
ATOM     36  C   UNL     1       0.636   1.234  28.413  0.00  0.00    +0.091 A 
ATOM     37  C   UNL     1       1.161   2.127  27.492  0.00  0.00    +0.124 A 
ATOM     38  C   UNL     1       3.383  -1.350  28.422  0.00  0.00    +0.238 A 
ATOM     39  O   UNL     1       2.857  -2.241  29.085  0.00  0.00    -0.283 OA
ATOM     40  C   UNL     1       2.438   1.920  26.943  0.00  0.00    +0.092 A 
ATOM     41  C   UNL     1       4.749  -1.521  27.830  0.00  0.00    +0.214 A 
BRANCH  31  45
ATOM     42  C   UNL     1       9.086  -0.260  24.936  0.00  0.00    +0.161 A 
ATOM     43  C   UNL     1       8.986  -0.977  26.112  0.00  0.00    +0.050 A 
ATOM     44  C   UNL     1       7.738  -1.086  26.767  0.00  0.00    +0.015 A 
ATOM     45  C   UNL     1       6.563  -0.440  26.338  0.00  0.00    +0.025 A 
ATOM     46  C   UNL     1       6.709   0.320  25.160  0.00  0.00    +0.060 A 
ATOM     47  C   UNL     1       7.929   0.366  24.467  0.00  0.00    +0.159 A 
BRANCH  47  48
ATOM     48  O   UNL     1       7.971   1.027  23.266  0.00  0.00    -0.503 OA
ATOM     49  H   UNL     1       7.048   1.302  23.101  0.00  0.00    +0.292 HD
ENDBRANCH  47  48
BRANCH  42  51
ATOM     50  C   UNL     1      11.216   0.780  24.583  0.00  0.00    +0.277 C 
ATOM     51  O   UNL     1      10.195  -0.115  24.149  0.00  0.00    -0.491 OA
ENDBRANCH  42  51
ENDBRANCH  31  45
BRANCH  37  52
ATOM     52  O   UNL     1       0.450   3.224  27.108  0.00  0.00    -0.507 OA
ATOM     53  H   UNL     1       0.902   4.028  27.435  0.00  0.00    +0.292 HD
ENDBRANCH  37  52
BRANCH  35  54
ATOM     54  O   UNL     1       0.774  -0.745  29.643  0.00  0.00    -0.506 OA
ATOM     55  H   UNL     1       1.440  -1.007  30.311  0.00  0.00    +0.292 HD
ENDBRANCH  35  54
ENDBRANCH  30  41
ENDBRANCH   1  30
TORSDOF 18
ENDMDL
