MODEL 1
REMARK VINA RESULT:      -6.4      0.000      0.000
REMARK  Name = 
REMARK  14 active torsions:
REMARK  status: ('A' for Active; 'I' for Inactive)
REMARK    1  A    between atoms: C_1  and  C_2
REMARK    2  A    between atoms: C_2  and  O_3
REMARK    3  A    between atoms: O_3  and  C_4
REMARK    4  A    between atoms: C_5  and  C_19
REMARK    5  A    between atoms: C_9  and  O_16
REMARK    6  A    between atoms: C_11  and  O_15
REMARK    7  A    between atoms: O_16  and  C_17
REMARK    8  A    between atoms: C_17  and  C_18
REMARK    9  A    between atoms: C_21  and  O_28
REMARK   10  A    between atoms: C_22  and  O_25
REMARK   11  A    between atoms: O_25  and  C_26
REMARK   12  A    between atoms: C_26  and  C_27
REMARK   13  A    between atoms: O_28  and  C_29
REMARK   14  A    between atoms: C_29  and  C_30
REMARK                            x       y       z     vdW  Elec       q    Type
REMARK                         _______ _______ _______ _____ _____    ______ ____
ROOT
ATOM      1  C   UNL     1       7.076   1.047  25.432  0.00  0.00    +0.234 C 
ATOM      2  C   UNL     1       7.450   2.384  26.083  0.00  0.00    +0.203 C 
ATOM      3  O   UNL     1       7.081   2.733  27.198  0.00  0.00    -0.289 OA
ATOM      4  C   UNL     1       8.348   3.244  25.291  0.00  0.00    +0.103 A 
ATOM      5  C   UNL     1       9.183   2.623  24.370  0.00  0.00    +0.139 A 
ATOM      6  C   UNL     1      10.103   3.378  23.631  0.00  0.00    +0.092 A 
ATOM      7  C   UNL     1      10.193   4.756  23.818  0.00  0.00    +0.127 A 
ATOM      8  C   UNL     1       9.329   5.382  24.719  0.00  0.00    +0.092 A 
ATOM      9  O   UNL     1       9.166   1.289  24.092  0.00  0.00    -0.480 OA
ATOM     10  C   UNL     1       8.403   4.632  25.445  0.00  0.00    +0.134 A 
ATOM     11  C   UNL     1       8.437   0.446  25.006  0.00  0.00    +0.240 C 
ENDROOT
BRANCH  11  12
ATOM     12  C   UNL     1       8.375  -0.885  24.270  0.00  0.00    -0.001 A 
ATOM     13  C   UNL     1       7.548  -1.023  23.150  0.00  0.00    +0.011 A 
ATOM     14  C   UNL     1       7.357  -2.273  22.551  0.00  0.00    +0.050 A 
ATOM     15  C   UNL     1       7.990  -3.416  23.050  0.00  0.00    +0.162 A 
ATOM     16  C   UNL     1       8.848  -3.289  24.161  0.00  0.00    +0.162 A 
ATOM     17  C   UNL     1       9.020  -2.031  24.762  0.00  0.00    +0.056 A 
BRANCH  15  18
ATOM     18  O   UNL     1       7.817  -4.678  22.531  0.00  0.00    -0.489 OA
BRANCH  18  19
ATOM     19  C   UNL     1       6.502  -5.232  22.599  0.00  0.00    +0.226 C 
ATOM     20  C   UNL     1       6.117  -5.787  21.239  0.00  0.00    +0.048 C 
ENDBRANCH  18  19
ENDBRANCH  15  18
BRANCH  16  21
ATOM     21  O   UNL     1       9.458  -4.436  24.611  0.00  0.00    -0.489 OA
BRANCH  21  22
ATOM     22  C   UNL     1       9.272  -4.771  25.985  0.00  0.00    +0.226 C 
ATOM     23  C   UNL     1       7.844  -5.247  26.199  0.00  0.00    +0.048 C 
ENDBRANCH  21  22
ENDBRANCH  16  21
ENDBRANCH  11  12
BRANCH  10  24
ATOM     24  O   UNL     1       7.522   5.278  26.266  0.00  0.00    -0.506 OA
ATOM     25  H   UNL     1       7.968   5.555  27.083  0.00  0.00    +0.292 HD
ENDBRANCH  10  24
BRANCH   1  26
ATOM     26  O   UNL     1       6.388   0.128  26.290  0.00  0.00    -0.365 OA
BRANCH  26  28
ATOM     27  C   UNL     1       4.996  -1.760  25.770  0.00  0.00    +0.034 C 
ATOM     28  C   UNL     1       5.091  -0.246  25.818  0.00  0.00    +0.157 C 
ENDBRANCH  26  28
ENDBRANCH   1  26
BRANCH   7  29
ATOM     29  O   UNL     1      11.059   5.602  23.184  0.00  0.00    -0.492 OA
BRANCH  29  30
ATOM     30  C   UNL     1      12.451   5.431  23.455  0.00  0.00    +0.225 C 
ATOM     31  C   UNL     1      13.209   5.650  22.158  0.00  0.00    +0.048 C 
ENDBRANCH  29  30
ENDBRANCH   7  29
TORSDOF 10
ENDMDL
MODEL 2
REMARK VINA RESULT:      -6.3      2.358      4.149
REMARK  Name = 
REMARK  14 active torsions:
REMARK  status: ('A' for Active; 'I' for Inactive)
REMARK    1  A    between atoms: C_1  and  C_2
REMARK    2  A    between atoms: C_2  and  O_3
REMARK    3  A    between atoms: O_3  and  C_4
REMARK    4  A    between atoms: C_5  and  C_19
REMARK    5  A    between atoms: C_9  and  O_16
REMARK    6  A    between atoms: C_11  and  O_15
REMARK    7  A    between atoms: O_16  and  C_17
REMARK    8  A    between atoms: C_17  and  C_18
REMARK    9  A    between atoms: C_21  and  O_28
REMARK   10  A    between atoms: C_22  and  O_25
REMARK   11  A    between atoms: O_25  and  C_26
REMARK   12  A    between atoms: C_26  and  C_27
REMARK   13  A    between atoms: O_28  and  C_29
REMARK   14  A    between atoms: C_29  and  C_30
REMARK                            x       y       z     vdW  Elec       q    Type
REMARK                         _______ _______ _______ _____ _____    ______ ____
ROOT
ATOM      1  C   UNL     1       8.688  -1.020  23.838  0.00  0.00    +0.234 C 
ATOM      2  C   UNL     1       9.559   0.162  23.397  0.00  0.00    +0.203 C 
ATOM      3  O   UNL     1      10.723   0.059  23.027  0.00  0.00    -0.289 OA
ATOM      4  C   UNL     1       8.890   1.475  23.396  0.00  0.00    +0.103 A 
ATOM      5  C   UNL     1       7.508   1.492  23.244  0.00  0.00    +0.139 A 
ATOM      6  C   UNL     1       6.821   2.710  23.172  0.00  0.00    +0.092 A 
ATOM      7  C   UNL     1       7.516   3.916  23.247  0.00  0.00    +0.127 A 
ATOM      8  C   UNL     1       8.901   3.897  23.436  0.00  0.00    +0.092 A 
ATOM      9  O   UNL     1       6.728   0.376  23.181  0.00  0.00    -0.480 OA
ATOM     10  C   UNL     1       9.584   2.683  23.520  0.00  0.00    +0.134 A 
ATOM     11  C   UNL     1       7.407  -0.880  22.981  0.00  0.00    +0.240 C 
ENDROOT
BRANCH  11  12
ATOM     12  C   UNL     1       6.315  -1.906  23.244  0.00  0.00    -0.001 A 
ATOM     13  C   UNL     1       5.598  -1.867  24.445  0.00  0.00    +0.011 A 
ATOM     14  C   UNL     1       4.699  -2.886  24.776  0.00  0.00    +0.050 A 
ATOM     15  C   UNL     1       4.488  -3.969  23.914  0.00  0.00    +0.162 A 
ATOM     16  C   UNL     1       5.182  -4.009  22.689  0.00  0.00    +0.162 A 
ATOM     17  C   UNL     1       6.093  -2.986  22.375  0.00  0.00    +0.056 A 
BRANCH  15  18
ATOM     18  O   UNL     1       3.646  -5.020  24.195  0.00  0.00    -0.489 OA
BRANCH  18  19
ATOM     19  C   UNL     1       3.724  -5.579  25.508  0.00  0.00    +0.226 C 
ATOM     20  C   UNL     1       4.867  -6.577  25.564  0.00  0.00    +0.048 C 
ENDBRANCH  18  19
ENDBRANCH  15  18
BRANCH  16  21
ATOM     21  O   UNL     1       4.936  -5.085  21.868  0.00  0.00    -0.489 OA
BRANCH  21  22
ATOM     22  C   UNL     1       6.042  -5.605  21.133  0.00  0.00    +0.226 C 
ATOM     23  C   UNL     1       6.924  -6.424  22.062  0.00  0.00    +0.048 C 
ENDBRANCH  21  22
ENDBRANCH  16  21
ENDBRANCH  11  12
BRANCH  10  24
ATOM     24  O   UNL     1      10.925   2.693  23.776  0.00  0.00    -0.506 OA
ATOM     25  H   UNL     1      11.422   2.502  22.965  0.00  0.00    +0.292 HD
ENDBRANCH  10  24
BRANCH   1  26
ATOM     26  O   UNL     1       9.271  -2.312  23.630  0.00  0.00    -0.365 OA
BRANCH  26  28
ATOM     27  C   UNL     1       8.694  -4.434  24.598  0.00  0.00    +0.034 C 
ATOM     28  C   UNL     1       9.381  -3.098  24.819  0.00  0.00    +0.157 C 
ENDBRANCH  26  28
ENDBRANCH   1  26
BRANCH   7  29
ATOM     29  O   UNL     1       6.974   5.167  23.166  0.00  0.00    -0.492 OA
BRANCH  29  30
ATOM     30  C   UNL     1       7.615   6.100  22.296  0.00  0.00    +0.225 C 
ATOM     31  C   UNL     1       6.574   7.108  21.844  0.00  0.00    +0.048 C 
ENDBRANCH  29  30
ENDBRANCH   7  29
TORSDOF 10
ENDMDL
MODEL 3
REMARK VINA RESULT:      -6.3      2.177      8.572
REMARK  Name = 
REMARK  14 active torsions:
REMARK  status: ('A' for Active; 'I' for Inactive)
REMARK    1  A    between atoms: C_1  and  C_2
REMARK    2  A    between atoms: C_2  and  O_3
REMARK    3  A    between atoms: O_3  and  C_4
REMARK    4  A    between atoms: C_5  and  C_19
REMARK    5  A    between atoms: C_9  and  O_16
REMARK    6  A    between atoms: C_11  and  O_15
REMARK    7  A    between atoms: O_16  and  C_17
REMARK    8  A    between atoms: C_17  and  C_18
REMARK    9  A    between atoms: C_21  and  O_28
REMARK   10  A    between atoms: C_22  and  O_25
REMARK   11  A    between atoms: O_25  and  C_26
REMARK   12  A    between atoms: C_26  and  C_27
REMARK   13  A    between atoms: O_28  and  C_29
REMARK   14  A    between atoms: C_29  and  C_30
REMARK                            x       y       z     vdW  Elec       q    Type
REMARK                         _______ _______ _______ _____ _____    ______ ____
ROOT
ATOM      1  C   UNL     1       8.997  -1.348  23.621  0.00  0.00    +0.234 C 
ATOM      2  C   UNL     1       9.539  -2.691  24.124  0.00  0.00    +0.203 C 
ATOM      3  O   UNL     1      10.609  -3.175  23.777  0.00  0.00    -0.289 OA
ATOM      4  C   UNL     1       8.698  -3.379  25.120  0.00  0.00    +0.103 A 
ATOM      5  C   UNL     1       7.854  -2.595  25.900  0.00  0.00    +0.139 A 
ATOM      6  C   UNL     1       7.076  -3.181  26.905  0.00  0.00    +0.092 A 
ATOM      7  C   UNL     1       7.145  -4.553  27.139  0.00  0.00    +0.127 A 
ATOM      8  C   UNL     1       7.967  -5.344  26.332  0.00  0.00    +0.092 A 
ATOM      9  O   UNL     1       7.693  -1.251  25.745  0.00  0.00    -0.480 OA
ATOM     10  C   UNL     1       8.732  -4.762  25.320  0.00  0.00    +0.134 A 
ATOM     11  C   UNL     1       8.658  -0.572  24.916  0.00  0.00    +0.240 C 
ENDROOT
BRANCH  11  12
ATOM     12  C   UNL     1       8.039   0.804  24.725  0.00  0.00    -0.001 A 
ATOM     13  C   UNL     1       6.734   0.919  24.234  0.00  0.00    +0.011 A 
ATOM     14  C   UNL     1       6.200   2.169  23.905  0.00  0.00    +0.050 A 
ATOM     15  C   UNL     1       6.951   3.339  24.063  0.00  0.00    +0.162 A 
ATOM     16  C   UNL     1       8.257   3.243  24.583  0.00  0.00    +0.162 A 
ATOM     17  C   UNL     1       8.787   1.980  24.895  0.00  0.00    +0.056 A 
BRANCH  15  18
ATOM     18  O   UNL     1       6.499   4.593  23.726  0.00  0.00    -0.489 OA
BRANCH  18  19
ATOM     19  C   UNL     1       6.602   4.972  22.352  0.00  0.00    +0.226 C 
ATOM     20  C   UNL     1       7.226   6.353  22.255  0.00  0.00    +0.048 C 
ENDBRANCH  18  19
ENDBRANCH  15  18
BRANCH  16  21
ATOM     21  O   UNL     1       8.956   4.419  24.732  0.00  0.00    -0.489 OA
BRANCH  21  22
ATOM     22  C   UNL     1      10.091   4.608  23.890  0.00  0.00    +0.226 C 
ATOM     23  C   UNL     1      10.524   6.065  23.946  0.00  0.00    +0.048 C 
ENDBRANCH  21  22
ENDBRANCH  16  21
ENDBRANCH  11  12
BRANCH  10  24
ATOM     24  O   UNL     1       9.471  -5.566  24.501  0.00  0.00    -0.506 OA
ATOM     25  H   UNL     1      10.320  -5.144  24.294  0.00  0.00    +0.292 HD
ENDBRANCH  10  24
BRANCH   1  26
ATOM     26  O   UNL     1       9.913  -0.586  22.825  0.00  0.00    -0.365 OA
BRANCH  26  28
ATOM     27  C   UNL     1       9.068   1.053  21.285  0.00  0.00    +0.034 C 
ATOM     28  C   UNL     1       9.488  -0.393  21.474  0.00  0.00    +0.157 C 
ENDBRANCH  26  28
ENDBRANCH   1  26
BRANCH   7  29
ATOM     29  O   UNL     1       6.462  -5.244  28.100  0.00  0.00    -0.492 OA
BRANCH  29  30
ATOM     30  C   UNL     1       5.049  -5.365  27.935  0.00  0.00    +0.225 C 
ATOM     31  C   UNL     1       4.758  -6.753  27.395  0.00  0.00    +0.048 C 
ENDBRANCH  29  30
ENDBRANCH   7  29
TORSDOF 10
ENDMDL
MODEL 4
REMARK VINA RESULT:      -5.8      2.823      5.287
REMARK  Name = 
REMARK  14 active torsions:
REMARK  status: ('A' for Active; 'I' for Inactive)
REMARK    1  A    between atoms: C_1  and  C_2
REMARK    2  A    between atoms: C_2  and  O_3
REMARK    3  A    between atoms: O_3  and  C_4
REMARK    4  A    between atoms: C_5  and  C_19
REMARK    5  A    between atoms: C_9  and  O_16
REMARK    6  A    between atoms: C_11  and  O_15
REMARK    7  A    between atoms: O_16  and  C_17
REMARK    8  A    between atoms: C_17  and  C_18
REMARK    9  A    between atoms: C_21  and  O_28
REMARK   10  A    between atoms: C_22  and  O_25
REMARK   11  A    between atoms: O_25  and  C_26
REMARK   12  A    between atoms: C_26  and  C_27
REMARK   13  A    between atoms: O_28  and  C_29
REMARK   14  A    between atoms: C_29  and  C_30
REMARK                            x       y       z     vdW  Elec       q    Type
REMARK                         _______ _______ _______ _____ _____    ______ ____
ROOT
ATOM      1  C   UNL     1       8.483  -3.464  24.103  0.00  0.00    +0.234 C 
ATOM      2  C   UNL     1       9.465  -2.408  23.580  0.00  0.00    +0.203 C 
ATOM      3  O   UNL     1      10.638  -2.634  23.309  0.00  0.00    -0.289 OA
ATOM      4  C   UNL     1       8.896  -1.065  23.368  0.00  0.00    +0.103 A 
ATOM      5  C   UNL     1       7.531  -0.978  23.117  0.00  0.00    +0.139 A 
ATOM      6  C   UNL     1       6.941   0.262  22.846  0.00  0.00    +0.092 A 
ATOM      7  C   UNL     1       7.717   1.419  22.818  0.00  0.00    +0.127 A 
ATOM      8  C   UNL     1       9.082   1.335  23.104  0.00  0.00    +0.092 A 
ATOM      9  O   UNL     1       6.676  -2.040  23.140  0.00  0.00    -0.480 OA
ATOM     10  C   UNL     1       9.667   0.100  23.388  0.00  0.00    +0.134 A 
ATOM     11  C   UNL     1       7.272  -3.352  23.147  0.00  0.00    +0.240 C 
ENDROOT
BRANCH  11  12
ATOM     12  C   UNL     1       6.092  -4.262  23.460  0.00  0.00    -0.001 A 
ATOM     13  C   UNL     1       5.684  -5.220  22.526  0.00  0.00    +0.011 A 
ATOM     14  C   UNL     1       4.514  -5.960  22.723  0.00  0.00    +0.050 A 
ATOM     15  C   UNL     1       3.723  -5.768  23.862  0.00  0.00    +0.162 A 
ATOM     16  C   UNL     1       4.135  -4.827  24.826  0.00  0.00    +0.162 A 
ATOM     17  C   UNL     1       5.304  -4.079  24.608  0.00  0.00    +0.056 A 
BRANCH  15  18
ATOM     18  O   UNL     1       2.544  -6.436  24.099  0.00  0.00    -0.489 OA
BRANCH  18  19
ATOM     19  C   UNL     1       1.567  -6.416  23.056  0.00  0.00    +0.226 C 
ATOM     20  C   UNL     1       0.761  -5.132  23.146  0.00  0.00    +0.048 C 
ENDBRANCH  18  19
ENDBRANCH  15  18
BRANCH  16  21
ATOM     21  O   UNL     1       3.333  -4.678  25.934  0.00  0.00    -0.489 OA
BRANCH  21  22
ATOM     22  C   UNL     1       3.832  -5.195  27.167  0.00  0.00    +0.226 C 
ATOM     23  C   UNL     1       4.076  -4.047  28.133  0.00  0.00    +0.048 C 
ENDBRANCH  21  22
ENDBRANCH  16  21
ENDBRANCH  11  12
BRANCH  10  24
ATOM     24  O   UNL     1      10.987   0.056  23.734  0.00  0.00    -0.506 OA
ATOM     25  H   UNL     1      11.198  -0.799  24.142  0.00  0.00    +0.292 HD
ENDBRANCH  10  24
BRANCH   1  26
ATOM     26  O   UNL     1       8.981  -4.807  24.100  0.00  0.00    -0.365 OA
BRANCH  26  28
ATOM     27  C   UNL     1       8.463  -4.852  26.446  0.00  0.00    +0.034 C 
ATOM     28  C   UNL     1       9.458  -5.252  25.372  0.00  0.00    +0.157 C 
ENDBRANCH  26  28
ENDBRANCH   1  26
BRANCH   7  29
ATOM     29  O   UNL     1       7.274   2.682  22.542  0.00  0.00    -0.492 OA
BRANCH  29  30
ATOM     30  C   UNL     1       7.555   3.696  23.508  0.00  0.00    +0.225 C 
ATOM     31  C   UNL     1       6.479   3.635  24.576  0.00  0.00    +0.048 C 
ENDBRANCH  29  30
ENDBRANCH   7  29
TORSDOF 10
ENDMDL
MODEL 5
REMARK VINA RESULT:      -5.7      2.881      4.924
REMARK  Name = 
REMARK  14 active torsions:
REMARK  status: ('A' for Active; 'I' for Inactive)
REMARK    1  A    between atoms: C_1  and  C_2
REMARK    2  A    between atoms: C_2  and  O_3
REMARK    3  A    between atoms: O_3  and  C_4
REMARK    4  A    between atoms: C_5  and  C_19
REMARK    5  A    between atoms: C_9  and  O_16
REMARK    6  A    between atoms: C_11  and  O_15
REMARK    7  A    between atoms: O_16  and  C_17
REMARK    8  A    between atoms: C_17  and  C_18
REMARK    9  A    between atoms: C_21  and  O_28
REMARK   10  A    between atoms: C_22  and  O_25
REMARK   11  A    between atoms: O_25  and  C_26
REMARK   12  A    between atoms: C_26  and  C_27
REMARK   13  A    between atoms: O_28  and  C_29
REMARK   14  A    between atoms: C_29  and  C_30
REMARK                            x       y       z     vdW  Elec       q    Type
REMARK                         _______ _______ _______ _____ _____    ______ ____
ROOT
ATOM      1  C   UNL     1       8.314  -1.360  23.435  0.00  0.00    +0.234 C 
ATOM      2  C   UNL     1       8.723  -0.305  22.399  0.00  0.00    +0.203 C 
ATOM      3  O   UNL     1       9.515  -0.507  21.487  0.00  0.00    -0.289 OA
ATOM      4  C   UNL     1       8.056   1.003  22.532  0.00  0.00    +0.103 A 
ATOM      5  C   UNL     1       6.808   1.029  23.144  0.00  0.00    +0.139 A 
ATOM      6  C   UNL     1       6.096   2.230  23.245  0.00  0.00    +0.092 A 
ATOM      7  C   UNL     1       6.628   3.409  22.726  0.00  0.00    +0.127 A 
ATOM      8  C   UNL     1       7.898   3.387  22.142  0.00  0.00    +0.092 A 
ATOM      9  O   UNL     1       6.204  -0.058  23.703  0.00  0.00    -0.480 OA
ATOM     10  C   UNL     1       8.613   2.193  22.054  0.00  0.00    +0.134 A 
ATOM     11  C   UNL     1       6.768  -1.347  23.390  0.00  0.00    +0.240 C 
ENDROOT
BRANCH  11  12
ATOM     12  C   UNL     1       6.066  -2.275  24.371  0.00  0.00    -0.001 A 
ATOM     13  C   UNL     1       6.184  -2.052  25.747  0.00  0.00    +0.011 A 
ATOM     14  C   UNL     1       5.679  -2.976  26.668  0.00  0.00    +0.050 A 
ATOM     15  C   UNL     1       5.038  -4.144  26.240  0.00  0.00    +0.162 A 
ATOM     16  C   UNL     1       4.886  -4.370  24.858  0.00  0.00    +0.162 A 
ATOM     17  C   UNL     1       5.411  -3.441  23.943  0.00  0.00    +0.056 A 
BRANCH  15  18
ATOM     18  O   UNL     1       4.551  -5.108  27.092  0.00  0.00    -0.489 OA
BRANCH  18  19
ATOM     19  C   UNL     1       5.511  -5.847  27.850  0.00  0.00    +0.226 C 
ATOM     20  C   UNL     1       4.792  -6.863  28.721  0.00  0.00    +0.048 C 
ENDBRANCH  18  19
ENDBRANCH  15  18
BRANCH  16  21
ATOM     21  O   UNL     1       4.240  -5.524  24.482  0.00  0.00    -0.489 OA
BRANCH  21  22
ATOM     22  C   UNL     1       3.594  -5.520  23.210  0.00  0.00    +0.226 C 
ATOM     23  C   UNL     1       2.108  -5.259  23.400  0.00  0.00    +0.048 C 
ENDBRANCH  21  22
ENDBRANCH  16  21
ENDBRANCH  11  12
BRANCH  10  24
ATOM     24  O   UNL     1       9.880   2.214  21.544  0.00  0.00    -0.506 OA
ATOM     25  H   UNL     1      10.232   1.311  21.484  0.00  0.00    +0.292 HD
ENDBRANCH  10  24
BRANCH   1  26
ATOM     26  O   UNL     1       8.796  -2.683  23.172  0.00  0.00    -0.365 OA
BRANCH  26  28
ATOM     27  C   UNL     1       8.996  -4.410  24.831  0.00  0.00    +0.034 C 
ATOM     28  C   UNL     1       9.655  -3.201  24.191  0.00  0.00    +0.157 C 
ENDBRANCH  26  28
ENDBRANCH   1  26
BRANCH   7  29
ATOM     29  O   UNL     1       6.030   4.637  22.735  0.00  0.00    -0.492 OA
BRANCH  29  30
ATOM     30  C   UNL     1       6.828   5.753  22.337  0.00  0.00    +0.225 C 
ATOM     31  C   UNL     1       6.766   6.789  23.444  0.00  0.00    +0.048 C 
ENDBRANCH  29  30
ENDBRANCH   7  29
TORSDOF 10
ENDMDL
MODEL 6
REMARK VINA RESULT:      -5.7      2.597      8.593
REMARK  Name = 
REMARK  14 active torsions:
REMARK  status: ('A' for Active; 'I' for Inactive)
REMARK    1  A    between atoms: C_1  and  C_2
REMARK    2  A    between atoms: C_2  and  O_3
REMARK    3  A    between atoms: O_3  and  C_4
REMARK    4  A    between atoms: C_5  and  C_19
REMARK    5  A    between atoms: C_9  and  O_16
REMARK    6  A    between atoms: C_11  and  O_15
REMARK    7  A    between atoms: O_16  and  C_17
REMARK    8  A    between atoms: C_17  and  C_18
REMARK    9  A    between atoms: C_21  and  O_28
REMARK   10  A    between atoms: C_22  and  O_25
REMARK   11  A    between atoms: O_25  and  C_26
REMARK   12  A    between atoms: C_26  and  C_27
REMARK   13  A    between atoms: O_28  and  C_29
REMARK   14  A    between atoms: C_29  and  C_30
REMARK                            x       y       z     vdW  Elec       q    Type
REMARK                         _______ _______ _______ _____ _____    ______ ____
ROOT
ATOM      1  C   UNL     1       8.936  -1.158  23.527  0.00  0.00    +0.234 C 
ATOM      2  C   UNL     1       9.428  -2.519  24.034  0.00  0.00    +0.203 C 
ATOM      3  O   UNL     1      10.476  -3.047  23.681  0.00  0.00    -0.289 OA
ATOM      4  C   UNL     1       8.568  -3.167  25.041  0.00  0.00    +0.103 A 
ATOM      5  C   UNL     1       7.763  -2.347  25.822  0.00  0.00    +0.139 A 
ATOM      6  C   UNL     1       6.970  -2.896  26.837  0.00  0.00    +0.092 A 
ATOM      7  C   UNL     1       6.986  -4.268  27.078  0.00  0.00    +0.127 A 
ATOM      8  C   UNL     1       7.769  -5.095  26.269  0.00  0.00    +0.092 A 
ATOM      9  O   UNL     1       7.654  -0.998  25.661  0.00  0.00    -0.480 OA
ATOM     10  C   UNL     1       8.549  -4.550  25.248  0.00  0.00    +0.134 A 
ATOM     11  C   UNL     1       8.639  -0.363  24.821  0.00  0.00    +0.240 C 
ENDROOT
BRANCH  11  12
ATOM     12  C   UNL     1       8.074   1.037  24.627  0.00  0.00    -0.001 A 
ATOM     13  C   UNL     1       8.869   2.154  24.902  0.00  0.00    +0.011 A 
ATOM     14  C   UNL     1       8.326   3.443  24.879  0.00  0.00    +0.050 A 
ATOM     15  C   UNL     1       6.976   3.651  24.575  0.00  0.00    +0.162 A 
ATOM     16  C   UNL     1       6.168   2.538  24.268  0.00  0.00    +0.162 A 
ATOM     17  C   UNL     1       6.722   1.248  24.310  0.00  0.00    +0.056 A 
BRANCH  15  18
ATOM     18  O   UNL     1       6.372   4.887  24.571  0.00  0.00    -0.489 OA
BRANCH  18  19
ATOM     19  C   UNL     1       7.095   5.959  23.963  0.00  0.00    +0.226 C 
ATOM     20  C   UNL     1       6.898   5.911  22.458  0.00  0.00    +0.048 C 
ENDBRANCH  18  19
ENDBRANCH  15  18
BRANCH  16  21
ATOM     21  O   UNL     1       4.850   2.790  23.964  0.00  0.00    -0.489 OA
BRANCH  21  22
ATOM     22  C   UNL     1       4.539   3.040  22.595  0.00  0.00    +0.226 C 
ATOM     23  C   UNL     1       3.521   4.166  22.507  0.00  0.00    +0.048 C 
ENDBRANCH  21  22
ENDBRANCH  16  21
ENDBRANCH  11  12
BRANCH  10  24
ATOM     24  O   UNL     1       9.248  -5.387  24.427  0.00  0.00    -0.506 OA
ATOM     25  H   UNL     1       9.192  -5.080  23.508  0.00  0.00    +0.292 HD
ENDBRANCH  10  24
BRANCH   1  26
ATOM     26  O   UNL     1       9.876  -0.438  22.721  0.00  0.00    -0.365 OA
BRANCH  26  28
ATOM     27  C   UNL     1       8.928   1.214  21.256  0.00  0.00    +0.034 C 
ATOM     28  C   UNL     1       9.436  -0.211  21.380  0.00  0.00    +0.157 C 
ENDBRANCH  26  28
ENDBRANCH   1  26
BRANCH   7  29
ATOM     29  O   UNL     1       6.284  -4.927  28.048  0.00  0.00    -0.492 OA
BRANCH  29  30
ATOM     30  C   UNL     1       5.494  -6.042  27.636  0.00  0.00    +0.225 C 
ATOM     31  C   UNL     1       4.994  -6.746  28.884  0.00  0.00    +0.048 C 
ENDBRANCH  29  30
ENDBRANCH   7  29
TORSDOF 10
ENDMDL
MODEL 7
REMARK VINA RESULT:      -5.6      2.353      8.706
REMARK  Name = 
REMARK  14 active torsions:
REMARK  status: ('A' for Active; 'I' for Inactive)
REMARK    1  A    between atoms: C_1  and  C_2
REMARK    2  A    between atoms: C_2  and  O_3
REMARK    3  A    between atoms: O_3  and  C_4
REMARK    4  A    between atoms: C_5  and  C_19
REMARK    5  A    between atoms: C_9  and  O_16
REMARK    6  A    between atoms: C_11  and  O_15
REMARK    7  A    between atoms: O_16  and  C_17
REMARK    8  A    between atoms: C_17  and  C_18
REMARK    9  A    between atoms: C_21  and  O_28
REMARK   10  A    between atoms: C_22  and  O_25
REMARK   11  A    between atoms: O_25  and  C_26
REMARK   12  A    between atoms: C_26  and  C_27
REMARK   13  A    between atoms: O_28  and  C_29
REMARK   14  A    between atoms: C_29  and  C_30
REMARK                            x       y       z     vdW  Elec       q    Type
REMARK                         _______ _______ _______ _____ _____    ______ ____
ROOT
ATOM      1  C   UNL     1       8.731  -1.313  23.595  0.00  0.00    +0.234 C 
ATOM      2  C   UNL     1       8.787  -2.804  23.950  0.00  0.00    +0.203 C 
ATOM      3  O   UNL     1       9.820  -3.413  24.204  0.00  0.00    -0.289 OA
ATOM      4  C   UNL     1       7.483  -3.487  24.018  0.00  0.00    +0.103 A 
ATOM      5  C   UNL     1       6.366  -2.711  24.306  0.00  0.00    +0.139 A 
ATOM      6  C   UNL     1       5.108  -3.310  24.446  0.00  0.00    +0.092 A 
ATOM      7  C   UNL     1       4.966  -4.689  24.305  0.00  0.00    +0.127 A 
ATOM      8  C   UNL     1       6.083  -5.463  23.981  0.00  0.00    +0.092 A 
ATOM      9  O   UNL     1       6.386  -1.355  24.443  0.00  0.00    -0.480 OA
ATOM     10  C   UNL     1       7.334  -4.864  23.828  0.00  0.00    +0.134 A 
ATOM     11  C   UNL     1       7.681  -0.736  24.574  0.00  0.00    +0.240 C 
ENDROOT
BRANCH  11  12
ATOM     12  C   UNL     1       7.370   0.746  24.417  0.00  0.00    -0.001 A 
ATOM     13  C   UNL     1       6.183   1.146  23.795  0.00  0.00    +0.011 A 
ATOM     14  C   UNL     1       5.947   2.493  23.502  0.00  0.00    +0.050 A 
ATOM     15  C   UNL     1       6.886   3.477  23.828  0.00  0.00    +0.162 A 
ATOM     16  C   UNL     1       8.075   3.094  24.480  0.00  0.00    +0.162 A 
ATOM     17  C   UNL     1       8.306   1.736  24.755  0.00  0.00    +0.056 A 
BRANCH  15  18
ATOM     18  O   UNL     1       6.732   4.813  23.536  0.00  0.00    -0.489 OA
BRANCH  18  19
ATOM     19  C   UNL     1       6.957   5.210  22.182  0.00  0.00    +0.226 C 
ATOM     20  C   UNL     1       7.294   6.690  22.141  0.00  0.00    +0.048 C 
ENDBRANCH  18  19
ENDBRANCH  15  18
BRANCH  16  21
ATOM     21  O   UNL     1       8.965   4.095  24.792  0.00  0.00    -0.489 OA
BRANCH  21  22
ATOM     22  C   UNL     1      10.105   4.233  23.946  0.00  0.00    +0.226 C 
ATOM     23  C   UNL     1      10.459   5.706  23.813  0.00  0.00    +0.048 C 
ENDBRANCH  21  22
ENDBRANCH  16  21
ENDBRANCH  11  12
BRANCH  10  24
ATOM     24  O   UNL     1       8.395  -5.633  23.442  0.00  0.00    -0.506 OA
ATOM     25  H   UNL     1       8.266  -6.551  23.731  0.00  0.00    +0.292 HD
ENDBRANCH  10  24
BRANCH   1  26
ATOM     26  O   UNL     1       9.970  -0.610  23.743  0.00  0.00    -0.365 OA
BRANCH  26  28
ATOM     27  C   UNL     1       9.431  -0.239  21.432  0.00  0.00    +0.034 C 
ATOM     28  C   UNL     1      10.399   0.068  22.560  0.00  0.00    +0.157 C 
ENDBRANCH  26  28
ENDBRANCH   1  26
BRANCH   7  29
ATOM     29  O   UNL     1       3.806  -5.399  24.440  0.00  0.00    -0.492 OA
BRANCH  29  30
ATOM     30  C   UNL     1       2.651  -4.894  23.771  0.00  0.00    +0.225 C 
ATOM     31  C   UNL     1       1.917  -6.070  23.154  0.00  0.00    +0.048 C 
ENDBRANCH  29  30
ENDBRANCH   7  29
TORSDOF 10
ENDMDL
MODEL 8
REMARK VINA RESULT:      -5.6      2.159      4.368
REMARK  Name = 
REMARK  14 active torsions:
REMARK  status: ('A' for Active; 'I' for Inactive)
REMARK    1  A    between atoms: C_1  and  C_2
REMARK    2  A    between atoms: C_2  and  O_3
REMARK    3  A    between atoms: O_3  and  C_4
REMARK    4  A    between atoms: C_5  and  C_19
REMARK    5  A    between atoms: C_9  and  O_16
REMARK    6  A    between atoms: C_11  and  O_15
REMARK    7  A    between atoms: O_16  and  C_17
REMARK    8  A    between atoms: C_17  and  C_18
REMARK    9  A    between atoms: C_21  and  O_28
REMARK   10  A    between atoms: C_22  and  O_25
REMARK   11  A    between atoms: O_25  and  C_26
REMARK   12  A    between atoms: C_26  and  C_27
REMARK   13  A    between atoms: O_28  and  C_29
REMARK   14  A    between atoms: C_29  and  C_30
REMARK                            x       y       z     vdW  Elec       q    Type
REMARK                         _______ _______ _______ _____ _____    ______ ____
ROOT
ATOM      1  C   UNL     1       8.361   0.017  23.233  0.00  0.00    +0.234 C 
ATOM      2  C   UNL     1       8.387   1.524  22.955  0.00  0.00    +0.203 C 
ATOM      3  O   UNL     1       8.520   2.016  21.840  0.00  0.00    -0.289 OA
ATOM      4  C   UNL     1       8.193   2.388  24.133  0.00  0.00    +0.103 A 
ATOM      5  C   UNL     1       7.490   1.858  25.209  0.00  0.00    +0.139 A 
ATOM      6  C   UNL     1       7.218   2.648  26.332  0.00  0.00    +0.092 A 
ATOM      7  C   UNL     1       7.643   3.975  26.379  0.00  0.00    +0.127 A 
ATOM      8  C   UNL     1       8.379   4.495  25.312  0.00  0.00    +0.092 A 
ATOM      9  O   UNL     1       7.047   0.571  25.279  0.00  0.00    -0.480 OA
ATOM     10  C   UNL     1       8.662   3.703  24.198  0.00  0.00    +0.134 A 
ATOM     11  C   UNL     1       7.066  -0.189  24.054  0.00  0.00    +0.240 C 
ENDROOT
BRANCH  11  12
ATOM     12  C   UNL     1       6.798  -1.610  24.528  0.00  0.00    -0.001 A 
ATOM     13  C   UNL     1       7.318  -2.046  25.752  0.00  0.00    +0.011 A 
ATOM     14  C   UNL     1       7.216  -3.387  26.136  0.00  0.00    +0.050 A 
ATOM     15  C   UNL     1       6.587  -4.327  25.312  0.00  0.00    +0.162 A 
ATOM     16  C   UNL     1       6.034  -3.899  24.089  0.00  0.00    +0.162 A 
ATOM     17  C   UNL     1       6.156  -2.552  23.709  0.00  0.00    +0.056 A 
BRANCH  15  18
ATOM     18  O   UNL     1       6.485  -5.666  25.614  0.00  0.00    -0.489 OA
BRANCH  18  19
ATOM     19  C   UNL     1       5.579  -6.027  26.658  0.00  0.00    +0.226 C 
ATOM     20  C   UNL     1       4.433  -6.835  26.073  0.00  0.00    +0.048 C 
ENDBRANCH  18  19
ENDBRANCH  15  18
BRANCH  16  21
ATOM     21  O   UNL     1       5.415  -4.854  23.317  0.00  0.00    -0.489 OA
BRANCH  21  22
ATOM     22  C   UNL     1       5.888  -5.011  21.980  0.00  0.00    +0.226 C 
ATOM     23  C   UNL     1       7.145  -5.866  21.987  0.00  0.00    +0.048 C 
ENDBRANCH  21  22
ENDBRANCH  16  21
ENDBRANCH  11  12
BRANCH  10  24
ATOM     24  O   UNL     1       9.444   4.215  23.202  0.00  0.00    -0.506 OA
ATOM     25  H   UNL     1      10.017   3.521  22.837  0.00  0.00    +0.292 HD
ENDBRANCH  10  24
BRANCH   1  26
ATOM     26  O   UNL     1       8.332  -0.813  22.066  0.00  0.00    -0.365 OA
BRANCH  26  28
ATOM     27  C   UNL     1      10.192  -1.833  23.194  0.00  0.00    +0.034 C 
ATOM     28  C   UNL     1       9.532  -1.561  21.854  0.00  0.00    +0.157 C 
ENDBRANCH  26  28
ENDBRANCH   1  26
BRANCH   7  29
ATOM     29  O   UNL     1       7.423   4.858  27.399  0.00  0.00    -0.492 OA
BRANCH  29  30
ATOM     30  C   UNL     1       6.306   4.603  28.251  0.00  0.00    +0.225 C 
ATOM     31  C   UNL     1       6.814   4.547  29.680  0.00  0.00    +0.048 C 
ENDBRANCH  29  30
ENDBRANCH   7  29
TORSDOF 10
ENDMDL
MODEL 9
REMARK VINA RESULT:      -5.6      3.090      8.950
REMARK  Name = 
REMARK  14 active torsions:
REMARK  status: ('A' for Active; 'I' for Inactive)
REMARK    1  A    between atoms: C_1  and  C_2
REMARK    2  A    between atoms: C_2  and  O_3
REMARK    3  A    between atoms: O_3  and  C_4
REMARK    4  A    between atoms: C_5  and  C_19
REMARK    5  A    between atoms: C_9  and  O_16
REMARK    6  A    between atoms: C_11  and  O_15
REMARK    7  A    between atoms: O_16  and  C_17
REMARK    8  A    between atoms: C_17  and  C_18
REMARK    9  A    between atoms: C_21  and  O_28
REMARK   10  A    between atoms: C_22  and  O_25
REMARK   11  A    between atoms: O_25  and  C_26
REMARK   12  A    between atoms: C_26  and  C_27
REMARK   13  A    between atoms: O_28  and  C_29
REMARK   14  A    between atoms: C_29  and  C_30
REMARK                            x       y       z     vdW  Elec       q    Type
REMARK                         _______ _______ _______ _____ _____    ______ ____
ROOT
ATOM      1  C   UNL     1       7.515  -3.974  25.710  0.00  0.00    +0.234 C 
ATOM      2  C   UNL     1       6.564  -4.810  26.575  0.00  0.00    +0.203 C 
ATOM      3  O   UNL     1       6.603  -4.851  27.799  0.00  0.00    -0.289 OA
ATOM      4  C   UNL     1       5.529  -5.557  25.836  0.00  0.00    +0.103 A 
ATOM      5  C   UNL     1       5.141  -5.061  24.597  0.00  0.00    +0.139 A 
ATOM      6  C   UNL     1       4.119  -5.690  23.874  0.00  0.00    +0.092 A 
ATOM      7  C   UNL     1       3.478  -6.813  24.394  0.00  0.00    +0.127 A 
ATOM      8  C   UNL     1       3.893  -7.330  25.624  0.00  0.00    +0.092 A 
ATOM      9  O   UNL     1       5.712  -3.985  23.986  0.00  0.00    -0.480 OA
ATOM     10  C   UNL     1       4.921  -6.711  26.337  0.00  0.00    +0.134 A 
ATOM     11  C   UNL     1       6.569  -3.157  24.798  0.00  0.00    +0.240 C 
ENDROOT
BRANCH  11  12
ATOM     12  C   UNL     1       7.246  -2.257  23.774  0.00  0.00    -0.001 A 
ATOM     13  C   UNL     1       8.459  -2.646  23.198  0.00  0.00    +0.011 A 
ATOM     14  C   UNL     1       9.175  -1.771  22.375  0.00  0.00    +0.050 A 
ATOM     15  C   UNL     1       8.695  -0.486  22.099  0.00  0.00    +0.162 A 
ATOM     16  C   UNL     1       7.460  -0.088  22.649  0.00  0.00    +0.162 A 
ATOM     17  C   UNL     1       6.759  -0.972  23.486  0.00  0.00    +0.056 A 
BRANCH  15  18
ATOM     18  O   UNL     1       9.366   0.435  21.328  0.00  0.00    -0.489 OA
BRANCH  18  19
ATOM     19  C   UNL     1      10.002   1.514  22.014  0.00  0.00    +0.226 C 
ATOM     20  C   UNL     1      10.562   1.013  23.334  0.00  0.00    +0.048 C 
ENDBRANCH  18  19
ENDBRANCH  15  18
BRANCH  16  21
ATOM     21  O   UNL     1       7.021   1.179  22.342  0.00  0.00    -0.489 OA
BRANCH  21  22
ATOM     22  C   UNL     1       6.274   1.865  23.346  0.00  0.00    +0.226 C 
ATOM     23  C   UNL     1       7.229   2.625  24.253  0.00  0.00    +0.048 C 
ENDBRANCH  21  22
ENDBRANCH  16  21
ENDBRANCH  11  12
BRANCH  10  24
ATOM     24  O   UNL     1       5.355  -7.279  27.501  0.00  0.00    -0.506 OA
ATOM     25  H   UNL     1       6.171  -7.781  27.345  0.00  0.00    +0.292 HD
ENDBRANCH  10  24
BRANCH   1  26
ATOM     26  O   UNL     1       8.372  -3.087  26.438  0.00  0.00    -0.365 OA
BRANCH  26  28
ATOM     27  C   UNL     1       8.762  -0.736  26.745  0.00  0.00    +0.034 C 
ATOM     28  C   UNL     1       7.746  -1.861  26.824  0.00  0.00    +0.157 C 
ENDBRANCH  26  28
ENDBRANCH   1  26
BRANCH   7  29
ATOM     29  O   UNL     1       2.455  -7.502  23.807  0.00  0.00    -0.492 OA
BRANCH  29  30
ATOM     30  C   UNL     1       1.797  -6.878  22.704  0.00  0.00    +0.225 C 
ATOM     31  C   UNL     1       1.126  -7.964  21.885  0.00  0.00    +0.048 C 
ENDBRANCH  29  30
ENDBRANCH   7  29
TORSDOF 10
ENDMDL
