MODEL 1
REMARK VINA RESULT:      -7.6      0.000      0.000
REMARK  Name = 
REMARK  10 active torsions:
REMARK  status: ('A' for Active; 'I' for Inactive)
REMARK    1  A    between atoms: C_3  and  O_30
REMARK    2  A    between atoms: C_4  and  O_25
REMARK    3  A    between atoms: C_6  and  C_7
REMARK    4  A    between atoms: C_8  and  O_20
REMARK    5  A    between atoms: C_12  and  O_19
REMARK    6  A    between atoms: C_14  and  O_18
REMARK    7  A    between atoms: O_20  and  S_21
REMARK    8  A    between atoms: S_21  and  O_24
REMARK    9  A    between atoms: O_25  and  S_26
REMARK   10  A    between atoms: S_26  and  O_29
REMARK                            x       y       z     vdW  Elec       q    Type
REMARK                         _______ _______ _______ _____ _____    ______ ____
ROOT
ATOM      1  C   UNL     1       7.742  -2.585  23.635  0.00  0.00    +0.184 A 
ATOM      2  O   UNL     1       6.773  -3.314  22.952  0.00  0.00    -0.451 OA
ATOM      3  C   UNL     1       6.121  -4.329  23.590  0.00  0.00    +0.147 A 
ATOM      4  C   UNL     1       6.469  -4.755  24.861  0.00  0.00    +0.109 A 
ATOM      5  C   UNL     1       5.790  -5.833  25.445  0.00  0.00    +0.135 A 
ATOM      6  C   UNL     1       4.760  -6.474  24.756  0.00  0.00    +0.091 A 
ATOM      7  C   UNL     1       4.408  -6.020  23.491  0.00  0.00    +0.124 A 
ATOM      8  C   UNL     1       7.538  -4.037  25.564  0.00  0.00    +0.241 A 
ATOM      9  O   UNL     1       7.893  -4.408  26.680  0.00  0.00    -0.283 OA
ATOM     10  C   UNL     1       5.076  -4.952  22.901  0.00  0.00    +0.092 A 
ATOM     11  C   UNL     1       8.151  -2.856  24.893  0.00  0.00    +0.248 A 
ENDROOT
BRANCH   1  13
ATOM     12  C   UNL     1       9.510  -1.423  22.334  0.00  0.00    +0.015 A 
ATOM     13  C   UNL     1       8.186  -1.465  22.788  0.00  0.00    +0.025 A 
ATOM     14  C   UNL     1       7.364  -0.338  22.633  0.00  0.00    +0.064 A 
ATOM     15  C   UNL     1       7.881   0.835  22.074  0.00  0.00    +0.201 A 
ATOM     16  C   UNL     1       9.234   0.897  21.736  0.00  0.00    +0.161 A 
ATOM     17  C   UNL     1      10.042  -0.234  21.825  0.00  0.00    +0.050 A 
BRANCH  16  18
ATOM     18  O   UNL     1       9.769   2.094  21.348  0.00  0.00    -0.503 OA
ATOM     19  H   UNL     1      10.715   1.961  21.165  0.00  0.00    +0.292 HD
ENDBRANCH  16  18
BRANCH  15  20
ATOM     20  O   UNL     1       7.138   1.979  21.928  0.00  0.00    -0.321 OA
BRANCH  20  21
ATOM     21  S   UNL     1       7.248   3.167  23.030  0.00  0.00    +0.251 S 
ATOM     22  O   UNL     1       8.203   2.781  24.047  0.00  0.00    -0.108 OA
ATOM     23  O   UNL     1       5.922   3.640  23.368  0.00  0.00    -0.108 OA
BRANCH  21  24
ATOM     24  O   UNL     1       7.909   4.373  22.184  0.00  0.00    -0.222 OA
ATOM     25  H   UNL     1       8.818   4.098  21.952  0.00  0.00    +0.248 HD
ENDBRANCH  21  24
ENDBRANCH  20  21
ENDBRANCH  15  20
ENDBRANCH   1  13
BRANCH   5  26
ATOM     26  O   UNL     1       6.083  -6.315  26.689  0.00  0.00    -0.506 OA
ATOM     27  H   UNL     1       6.521  -7.191  26.586  0.00  0.00    +0.292 HD
ENDBRANCH   5  26
BRANCH   7  28
ATOM     28  O   UNL     1       3.399  -6.605  22.783  0.00  0.00    -0.507 OA
ATOM     29  H   UNL     1       3.691  -6.735  21.864  0.00  0.00    +0.292 HD
ENDBRANCH   7  28
BRANCH  11  30
ATOM     30  O   UNL     1       8.983  -2.108  25.698  0.00  0.00    -0.317 OA
BRANCH  30  31
ATOM     31  S   UNL     1       8.695  -0.584  26.158  0.00  0.00    +0.252 S 
ATOM     32  O   UNL     1       7.266  -0.380  26.217  0.00  0.00    -0.108 OA
ATOM     33  O   UNL     1       9.575   0.313  25.446  0.00  0.00    -0.108 OA
BRANCH  31  34
ATOM     34  O   UNL     1       9.230  -0.565  27.685  0.00  0.00    -0.222 OA
ATOM     35  H   UNL     1       8.924  -1.391  28.114  0.00  0.00    +0.248 HD
ENDBRANCH  31  34
ENDBRANCH  30  31
ENDBRANCH  11  30
TORSDOF 10
ENDMDL
MODEL 2
REMARK VINA RESULT:      -7.2      2.312      4.355
REMARK  Name = 
REMARK  10 active torsions:
REMARK  status: ('A' for Active; 'I' for Inactive)
REMARK    1  A    between atoms: C_3  and  O_30
REMARK    2  A    between atoms: C_4  and  O_25
REMARK    3  A    between atoms: C_6  and  C_7
REMARK    4  A    between atoms: C_8  and  O_20
REMARK    5  A    between atoms: C_12  and  O_19
REMARK    6  A    between atoms: C_14  and  O_18
REMARK    7  A    between atoms: O_20  and  S_21
REMARK    8  A    between atoms: S_21  and  O_24
REMARK    9  A    between atoms: O_25  and  S_26
REMARK   10  A    between atoms: S_26  and  O_29
REMARK                            x       y       z     vdW  Elec       q    Type
REMARK                         _______ _______ _______ _____ _____    ______ ____
ROOT
ATOM      1  C   UNL     1       6.822  -3.719  24.557  0.00  0.00    +0.184 A 
ATOM      2  O   UNL     1       7.133  -4.012  25.882  0.00  0.00    -0.451 OA
ATOM      3  C   UNL     1       6.423  -4.971  26.544  0.00  0.00    +0.147 A 
ATOM      4  C   UNL     1       5.312  -5.590  25.993  0.00  0.00    +0.109 A 
ATOM      5  C   UNL     1       4.598  -6.535  26.741  0.00  0.00    +0.135 A 
ATOM      6  C   UNL     1       5.005  -6.864  28.034  0.00  0.00    +0.091 A 
ATOM      7  C   UNL     1       6.136  -6.252  28.564  0.00  0.00    +0.124 A 
ATOM      8  C   UNL     1       4.933  -5.237  24.620  0.00  0.00    +0.241 A 
ATOM      9  O   UNL     1       3.936  -5.743  24.112  0.00  0.00    -0.283 OA
ATOM     10  C   UNL     1       6.850  -5.311  27.830  0.00  0.00    +0.092 A 
ATOM     11  C   UNL     1       5.797  -4.276  23.877  0.00  0.00    +0.248 A 
ENDROOT
BRANCH   1  13
ATOM     12  C   UNL     1       9.158  -3.155  23.932  0.00  0.00    +0.015 A 
ATOM     13  C   UNL     1       7.815  -2.769  24.029  0.00  0.00    +0.025 A 
ATOM     14  C   UNL     1       7.466  -1.422  23.848  0.00  0.00    +0.064 A 
ATOM     15  C   UNL     1       8.460  -0.465  23.621  0.00  0.00    +0.201 A 
ATOM     16  C   UNL     1       9.802  -0.849  23.645  0.00  0.00    +0.161 A 
ATOM     17  C   UNL     1      10.156  -2.191  23.759  0.00  0.00    +0.050 A 
BRANCH  16  18
ATOM     18  O   UNL     1      10.771   0.114  23.591  0.00  0.00    -0.503 OA
ATOM     19  H   UNL     1      11.034   0.231  22.661  0.00  0.00    +0.292 HD
ENDBRANCH  16  18
BRANCH  15  20
ATOM     20  O   UNL     1       8.186   0.871  23.472  0.00  0.00    -0.321 OA
BRANCH  20  21
ATOM     21  S   UNL     1       8.359   1.582  22.022  0.00  0.00    +0.251 S 
ATOM     22  O   UNL     1       7.154   2.321  21.712  0.00  0.00    -0.108 OA
ATOM     23  O   UNL     1       8.941   0.642  21.086  0.00  0.00    -0.108 OA
BRANCH  21  24
ATOM     24  O   UNL     1       9.528   2.662  22.296  0.00  0.00    -0.222 OA
ATOM     25  H   UNL     1       9.096   3.533  22.399  0.00  0.00    +0.248 HD
ENDBRANCH  21  24
ENDBRANCH  20  21
ENDBRANCH  15  20
ENDBRANCH   1  13
BRANCH   5  26
ATOM     26  O   UNL     1       3.489  -7.178  26.269  0.00  0.00    -0.506 OA
ATOM     27  H   UNL     1       3.624  -8.147  26.380  0.00  0.00    +0.292 HD
ENDBRANCH   5  26
BRANCH   7  28
ATOM     28  O   UNL     1       6.580  -6.551  29.818  0.00  0.00    -0.507 OA
ATOM     29  H   UNL     1       7.435  -7.012  29.749  0.00  0.00    +0.292 HD
ENDBRANCH   7  28
BRANCH  11  30
ATOM     30  O   UNL     1       5.506  -4.166  22.534  0.00  0.00    -0.317 OA
BRANCH  30  31
ATOM     31  S   UNL     1       6.123  -5.114  21.377  0.00  0.00    +0.252 S 
ATOM     32  O   UNL     1       7.426  -5.572  21.800  0.00  0.00    -0.108 OA
ATOM     33  O   UNL     1       5.897  -4.512  20.083  0.00  0.00    -0.108 OA
BRANCH  31  34
ATOM     34  O   UNL     1       5.144  -6.402  21.412  0.00  0.00    -0.222 OA
ATOM     35  H   UNL     1       4.545  -6.338  20.639  0.00  0.00    +0.248 HD
ENDBRANCH  31  34
ENDBRANCH  30  31
ENDBRANCH  11  30
TORSDOF 10
ENDMDL
MODEL 3
REMARK VINA RESULT:      -7.1      3.229      8.217
REMARK  Name = 
REMARK  10 active torsions:
REMARK  status: ('A' for Active; 'I' for Inactive)
REMARK    1  A    between atoms: C_3  and  O_30
REMARK    2  A    between atoms: C_4  and  O_25
REMARK    3  A    between atoms: C_6  and  C_7
REMARK    4  A    between atoms: C_8  and  O_20
REMARK    5  A    between atoms: C_12  and  O_19
REMARK    6  A    between atoms: C_14  and  O_18
REMARK    7  A    between atoms: O_20  and  S_21
REMARK    8  A    between atoms: S_21  and  O_24
REMARK    9  A    between atoms: O_25  and  S_26
REMARK   10  A    between atoms: S_26  and  O_29
REMARK                            x       y       z     vdW  Elec       q    Type
REMARK                         _______ _______ _______ _____ _____    ______ ____
ROOT
ATOM      1  C   UNL     1       9.021   1.827  24.089  0.00  0.00    +0.184 A 
ATOM      2  O   UNL     1      10.334   2.109  23.726  0.00  0.00    -0.451 OA
ATOM      3  C   UNL     1      10.756   3.406  23.678  0.00  0.00    +0.147 A 
ATOM      4  C   UNL     1       9.894   4.477  23.856  0.00  0.00    +0.109 A 
ATOM      5  C   UNL     1      10.379   5.787  23.750  0.00  0.00    +0.135 A 
ATOM      6  C   UNL     1      11.727   6.020  23.476  0.00  0.00    +0.091 A 
ATOM      7  C   UNL     1      12.583   4.935  23.324  0.00  0.00    +0.124 A 
ATOM      8  C   UNL     1       8.490   4.190  24.170  0.00  0.00    +0.241 A 
ATOM      9  O   UNL     1       7.692   5.115  24.304  0.00  0.00    -0.283 OA
ATOM     10  C   UNL     1      12.111   3.631  23.425  0.00  0.00    +0.092 A 
ATOM     11  C   UNL     1       8.083   2.767  24.337  0.00  0.00    +0.248 A 
ENDROOT
BRANCH   1  13
ATOM     12  C   UNL     1       9.577  -0.329  25.189  0.00  0.00    +0.015 A 
ATOM     13  C   UNL     1       8.858   0.369  24.209  0.00  0.00    +0.025 A 
ATOM     14  C   UNL     1       8.178  -0.344  23.210  0.00  0.00    +0.064 A 
ATOM     15  C   UNL     1       8.259  -1.739  23.166  0.00  0.00    +0.201 A 
ATOM     16  C   UNL     1       9.076  -2.409  24.079  0.00  0.00    +0.161 A 
ATOM     17  C   UNL     1       9.702  -1.720  25.113  0.00  0.00    +0.050 A 
BRANCH  16  18
ATOM     18  O   UNL     1       9.282  -3.752  23.925  0.00  0.00    -0.503 OA
ATOM     19  H   UNL     1      10.051  -4.007  24.465  0.00  0.00    +0.292 HD
ENDBRANCH  16  18
BRANCH  15  20
ATOM     20  O   UNL     1       7.646  -2.489  22.194  0.00  0.00    -0.321 OA
BRANCH  20  21
ATOM     21  S   UNL     1       6.177  -3.127  22.462  0.00  0.00    +0.251 S 
ATOM     22  O   UNL     1       5.538  -3.389  21.190  0.00  0.00    -0.108 OA
ATOM     23  O   UNL     1       5.511  -2.388  23.514  0.00  0.00    -0.108 OA
BRANCH  21  24
ATOM     24  O   UNL     1       6.529  -4.556  23.126  0.00  0.00    -0.222 OA
ATOM     25  H   UNL     1       7.134  -5.018  22.512  0.00  0.00    +0.248 HD
ENDBRANCH  21  24
ENDBRANCH  20  21
ENDBRANCH  15  20
ENDBRANCH   1  13
BRANCH   5  26
ATOM     26  O   UNL     1       9.589   6.891  23.903  0.00  0.00    -0.506 OA
ATOM     27  H   UNL     1       9.063   7.010  23.079  0.00  0.00    +0.292 HD
ENDBRANCH   5  26
BRANCH   7  28
ATOM     28  O   UNL     1      13.911   5.112  23.068  0.00  0.00    -0.507 OA
ATOM     29  H   UNL     1      14.365   5.346  23.897  0.00  0.00    +0.292 HD
ENDBRANCH   7  28
BRANCH  11  30
ATOM     30  O   UNL     1       6.813   2.590  24.844  0.00  0.00    -0.317 OA
BRANCH  30  31
ATOM     31  S   UNL     1       5.505   2.249  23.955  0.00  0.00    +0.252 S 
ATOM     32  O   UNL     1       5.868   2.300  22.559  0.00  0.00    -0.108 OA
ATOM     33  O   UNL     1       4.361   2.954  24.484  0.00  0.00    -0.108 OA
BRANCH  31  34
ATOM     34  O   UNL     1       5.231   0.693  24.307  0.00  0.00    -0.222 OA
ATOM     35  H   UNL     1       5.346   0.585  25.275  0.00  0.00    +0.248 HD
ENDBRANCH  31  34
ENDBRANCH  30  31
ENDBRANCH  11  30
TORSDOF 10
ENDMDL
MODEL 4
REMARK VINA RESULT:      -7.1      2.647      7.491
REMARK  Name = 
REMARK  10 active torsions:
REMARK  status: ('A' for Active; 'I' for Inactive)
REMARK    1  A    between atoms: C_3  and  O_30
REMARK    2  A    between atoms: C_4  and  O_25
REMARK    3  A    between atoms: C_6  and  C_7
REMARK    4  A    between atoms: C_8  and  O_20
REMARK    5  A    between atoms: C_12  and  O_19
REMARK    6  A    between atoms: C_14  and  O_18
REMARK    7  A    between atoms: O_20  and  S_21
REMARK    8  A    between atoms: S_21  and  O_24
REMARK    9  A    between atoms: O_25  and  S_26
REMARK   10  A    between atoms: S_26  and  O_29
REMARK                            x       y       z     vdW  Elec       q    Type
REMARK                         _______ _______ _______ _____ _____    ______ ____
ROOT
ATOM      1  C   UNL     1       6.756  -2.426  24.580  0.00  0.00    +0.184 A 
ATOM      2  O   UNL     1       6.467  -1.125  24.179  0.00  0.00    -0.451 OA
ATOM      3  C   UNL     1       7.304  -0.486  23.311  0.00  0.00    +0.147 A 
ATOM      4  C   UNL     1       8.509  -1.033  22.899  0.00  0.00    +0.109 A 
ATOM      5  C   UNL     1       9.346  -0.308  22.040  0.00  0.00    +0.135 A 
ATOM      6  C   UNL     1       8.969   0.957  21.590  0.00  0.00    +0.091 A 
ATOM      7  C   UNL     1       7.746   1.482  21.994  0.00  0.00    +0.124 A 
ATOM      8  C   UNL     1       8.856  -2.378  23.371  0.00  0.00    +0.241 A 
ATOM      9  O   UNL     1       9.931  -2.880  23.051  0.00  0.00    -0.283 OA
ATOM     10  C   UNL     1       6.909   0.771  22.848  0.00  0.00    +0.092 A 
ATOM     11  C   UNL     1       7.870  -3.102  24.221  0.00  0.00    +0.248 A 
ENDROOT
BRANCH   1  13
ATOM     12  C   UNL     1       5.499  -2.521  26.719  0.00  0.00    +0.015 A 
ATOM     13  C   UNL     1       5.638  -2.939  25.389  0.00  0.00    +0.025 A 
ATOM     14  C   UNL     1       4.863  -4.007  24.914  0.00  0.00    +0.064 A 
ATOM     15  C   UNL     1       3.994  -4.681  25.777  0.00  0.00    +0.201 A 
ATOM     16  C   UNL     1       3.955  -4.328  27.127  0.00  0.00    +0.161 A 
ATOM     17  C   UNL     1       4.670  -3.229  27.595  0.00  0.00    +0.050 A 
BRANCH  16  18
ATOM     18  O   UNL     1       3.232  -5.097  27.995  0.00  0.00    -0.503 OA
ATOM     19  H   UNL     1       2.954  -4.537  28.741  0.00  0.00    +0.292 HD
ENDBRANCH  16  18
BRANCH  15  20
ATOM     20  O   UNL     1       3.236  -5.754  25.380  0.00  0.00    -0.321 OA
BRANCH  20  21
ATOM     21  S   UNL     1       3.933  -7.203  25.152  0.00  0.00    +0.251 S 
ATOM     22  O   UNL     1       4.884  -7.103  24.065  0.00  0.00    -0.108 OA
ATOM     23  O   UNL     1       2.922  -8.240  25.189  0.00  0.00    -0.108 OA
BRANCH  21  24
ATOM     24  O   UNL     1       4.778  -7.407  26.512  0.00  0.00    -0.222 OA
ATOM     25  H   UNL     1       4.523  -6.685  27.121  0.00  0.00    +0.248 HD
ENDBRANCH  21  24
ENDBRANCH  20  21
ENDBRANCH  15  20
ENDBRANCH   1  13
BRANCH   5  26
ATOM     26  O   UNL     1      10.551  -0.777  21.600  0.00  0.00    -0.506 OA
ATOM     27  H   UNL     1      11.234  -0.555  22.274  0.00  0.00    +0.292 HD
ENDBRANCH   5  26
BRANCH   7  28
ATOM     28  O   UNL     1       7.328   2.709  21.570  0.00  0.00    -0.507 OA
ATOM     29  H   UNL     1       8.011   3.095  20.994  0.00  0.00    +0.292 HD
ENDBRANCH   7  28
BRANCH  11  30
ATOM     30  O   UNL     1       8.167  -4.430  24.440  0.00  0.00    -0.317 OA
BRANCH  30  31
ATOM     31  S   UNL     1       8.536  -5.067  25.881  0.00  0.00    +0.252 S 
ATOM     32  O   UNL     1       7.467  -5.951  26.284  0.00  0.00    -0.108 OA
ATOM     33  O   UNL     1       9.056  -4.036  26.749  0.00  0.00    -0.108 OA
BRANCH  31  34
ATOM     34  O   UNL     1       9.810  -6.004  25.541  0.00  0.00    -0.222 OA
ATOM     35  H   UNL     1      10.451  -5.458  25.039  0.00  0.00    +0.248 HD
ENDBRANCH  31  34
ENDBRANCH  30  31
ENDBRANCH  11  30
TORSDOF 10
ENDMDL
MODEL 5
REMARK VINA RESULT:      -7.0      3.221      8.167
REMARK  Name = 
REMARK  10 active torsions:
REMARK  status: ('A' for Active; 'I' for Inactive)
REMARK    1  A    between atoms: C_3  and  O_30
REMARK    2  A    between atoms: C_4  and  O_25
REMARK    3  A    between atoms: C_6  and  C_7
REMARK    4  A    between atoms: C_8  and  O_20
REMARK    5  A    between atoms: C_12  and  O_19
REMARK    6  A    between atoms: C_14  and  O_18
REMARK    7  A    between atoms: O_20  and  S_21
REMARK    8  A    between atoms: S_21  and  O_24
REMARK    9  A    between atoms: O_25  and  S_26
REMARK   10  A    between atoms: S_26  and  O_29
REMARK                            x       y       z     vdW  Elec       q    Type
REMARK                         _______ _______ _______ _____ _____    ______ ____
ROOT
ATOM      1  C   UNL     1       7.114  -4.171  25.376  0.00  0.00    +0.184 A 
ATOM      2  O   UNL     1       7.711  -3.021  25.884  0.00  0.00    -0.451 OA
ATOM      3  C   UNL     1       8.401  -2.194  25.046  0.00  0.00    +0.147 A 
ATOM      4  C   UNL     1       8.641  -2.510  23.718  0.00  0.00    +0.109 A 
ATOM      5  C   UNL     1       9.395  -1.639  22.920  0.00  0.00    +0.135 A 
ATOM      6  C   UNL     1       9.896  -0.451  23.451  0.00  0.00    +0.091 A 
ATOM      7  C   UNL     1       9.625  -0.137  24.778  0.00  0.00    +0.124 A 
ATOM      8  C   UNL     1       8.074  -3.756  23.190  0.00  0.00    +0.241 A 
ATOM      9  O   UNL     1       8.294  -4.083  22.026  0.00  0.00    -0.283 OA
ATOM     10  C   UNL     1       8.881  -0.995  25.580  0.00  0.00    +0.092 A 
ATOM     11  C   UNL     1       7.224  -4.581  24.094  0.00  0.00    +0.248 A 
ENDROOT
BRANCH   1  13
ATOM     12  C   UNL     1       6.965  -5.466  27.489  0.00  0.00    +0.015 A 
ATOM     13  C   UNL     1       6.316  -4.806  26.438  0.00  0.00    +0.025 A 
ATOM     14  C   UNL     1       4.930  -4.954  26.277  0.00  0.00    +0.064 A 
ATOM     15  C   UNL     1       4.211  -5.794  27.133  0.00  0.00    +0.201 A 
ATOM     16  C   UNL     1       4.892  -6.536  28.100  0.00  0.00    +0.161 A 
ATOM     17  C   UNL     1       6.255  -6.348  28.310  0.00  0.00    +0.050 A 
BRANCH  16  18
ATOM     18  O   UNL     1       4.209  -7.478  28.819  0.00  0.00    -0.503 OA
ATOM     19  H   UNL     1       3.300  -7.524  28.476  0.00  0.00    +0.292 HD
ENDBRANCH  16  18
BRANCH  15  20
ATOM     20  O   UNL     1       2.862  -6.007  27.005  0.00  0.00    -0.321 OA
BRANCH  20  21
ATOM     21  S   UNL     1       2.299  -6.997  25.847  0.00  0.00    +0.251 S 
ATOM     22  O   UNL     1       2.116  -6.239  24.627  0.00  0.00    -0.108 OA
ATOM     23  O   UNL     1       1.250  -7.834  26.391  0.00  0.00    -0.108 OA
BRANCH  21  24
ATOM     24  O   UNL     1       3.540  -8.001  25.606  0.00  0.00    -0.222 OA
ATOM     25  H   UNL     1       3.164  -8.885  25.422  0.00  0.00    +0.248 HD
ENDBRANCH  21  24
ENDBRANCH  20  21
ENDBRANCH  15  20
ENDBRANCH   1  13
BRANCH   5  26
ATOM     26  O   UNL     1       9.681  -1.889  21.607  0.00  0.00    -0.506 OA
ATOM     27  H   UNL     1       9.151  -2.667  21.318  0.00  0.00    +0.292 HD
ENDBRANCH   5  26
BRANCH   7  28
ATOM     28  O   UNL     1      10.082   1.020  25.339  0.00  0.00    -0.507 OA
ATOM     29  H   UNL     1      11.050   0.969  25.427  0.00  0.00    +0.292 HD
ENDBRANCH   7  28
BRANCH  11  30
ATOM     30  O   UNL     1       6.552  -5.609  23.468  0.00  0.00    -0.317 OA
BRANCH  30  31
ATOM     31  S   UNL     1       5.277  -5.416  22.490  0.00  0.00    +0.252 S 
ATOM     32  O   UNL     1       5.676  -5.740  21.140  0.00  0.00    -0.108 OA
ATOM     33  O   UNL     1       4.592  -4.188  22.821  0.00  0.00    -0.108 OA
BRANCH  31  34
ATOM     34  O   UNL     1       4.276  -6.592  22.974  0.00  0.00    -0.222 OA
ATOM     35  H   UNL     1       4.208  -7.240  22.243  0.00  0.00    +0.248 HD
ENDBRANCH  31  34
ENDBRANCH  30  31
ENDBRANCH  11  30
TORSDOF 10
ENDMDL
MODEL 6
REMARK VINA RESULT:      -7.0      2.827      4.185
REMARK  Name = 
REMARK  10 active torsions:
REMARK  status: ('A' for Active; 'I' for Inactive)
REMARK    1  A    between atoms: C_3  and  O_30
REMARK    2  A    between atoms: C_4  and  O_25
REMARK    3  A    between atoms: C_6  and  C_7
REMARK    4  A    between atoms: C_8  and  O_20
REMARK    5  A    between atoms: C_12  and  O_19
REMARK    6  A    between atoms: C_14  and  O_18
REMARK    7  A    between atoms: O_20  and  S_21
REMARK    8  A    between atoms: S_21  and  O_24
REMARK    9  A    between atoms: O_25  and  S_26
REMARK   10  A    between atoms: S_26  and  O_29
REMARK                            x       y       z     vdW  Elec       q    Type
REMARK                         _______ _______ _______ _____ _____    ______ ____
ROOT
ATOM      1  C   UNL     1       7.856  -0.603  25.023  0.00  0.00    +0.184 A 
ATOM      2  O   UNL     1       7.188  -1.488  25.864  0.00  0.00    -0.451 OA
ATOM      3  C   UNL     1       7.662  -2.758  26.018  0.00  0.00    +0.147 A 
ATOM      4  C   UNL     1       8.720  -3.254  25.273  0.00  0.00    +0.109 A 
ATOM      5  C   UNL     1       9.132  -4.583  25.446  0.00  0.00    +0.135 A 
ATOM      6  C   UNL     1       8.489  -5.405  26.371  0.00  0.00    +0.091 A 
ATOM      7  C   UNL     1       7.444  -4.886  27.127  0.00  0.00    +0.124 A 
ATOM      8  C   UNL     1       9.388  -2.349  24.332  0.00  0.00    +0.241 A 
ATOM      9  O   UNL     1      10.309  -2.765  23.633  0.00  0.00    -0.283 OA
ATOM     10  C   UNL     1       7.026  -3.569  26.962  0.00  0.00    +0.092 A 
ATOM     11  C   UNL     1       8.928  -0.933  24.270  0.00  0.00    +0.248 A 
ENDROOT
BRANCH   1  13
ATOM     12  C   UNL     1       5.861   0.874  24.954  0.00  0.00    +0.015 A 
ATOM     13  C   UNL     1       7.242   0.730  25.141  0.00  0.00    +0.025 A 
ATOM     14  C   UNL     1       8.054   1.871  25.208  0.00  0.00    +0.064 A 
ATOM     15  C   UNL     1       7.495   3.141  25.038  0.00  0.00    +0.201 A 
ATOM     16  C   UNL     1       6.138   3.259  24.733  0.00  0.00    +0.161 A 
ATOM     17  C   UNL     1       5.310   2.139  24.730  0.00  0.00    +0.050 A 
BRANCH  16  18
ATOM     18  O   UNL     1       5.634   4.486  24.403  0.00  0.00    -0.503 OA
ATOM     19  H   UNL     1       4.810   4.623  24.904  0.00  0.00    +0.292 HD
ENDBRANCH  16  18
BRANCH  15  20
ATOM     20  O   UNL     1       8.242   4.291  25.057  0.00  0.00    -0.321 OA
BRANCH  20  21
ATOM     21  S   UNL     1       9.119   4.715  23.757  0.00  0.00    +0.251 S 
ATOM     22  O   UNL     1      10.430   4.108  23.855  0.00  0.00    -0.108 OA
ATOM     23  O   UNL     1       8.950   6.129  23.496  0.00  0.00    -0.108 OA
BRANCH  21  24
ATOM     24  O   UNL     1       8.339   3.980  22.550  0.00  0.00    -0.222 OA
ATOM     25  H   UNL     1       7.424   4.327  22.545  0.00  0.00    +0.248 HD
ENDBRANCH  21  24
ENDBRANCH  20  21
ENDBRANCH  15  20
ENDBRANCH   1  13
BRANCH   5  26
ATOM     26  O   UNL     1      10.159  -5.144  24.742  0.00  0.00    -0.506 OA
ATOM     27  H   UNL     1      10.532  -5.882  25.276  0.00  0.00    +0.292 HD
ENDBRANCH   5  26
BRANCH   7  28
ATOM     28  O   UNL     1       6.793  -5.647  28.054  0.00  0.00    -0.507 OA
ATOM     29  H   UNL     1       7.184  -6.539  28.062  0.00  0.00    +0.292 HD
ENDBRANCH   7  28
BRANCH  11  30
ATOM     30  O   UNL     1       9.740  -0.099  23.533  0.00  0.00    -0.317 OA
BRANCH  30  31
ATOM     31  S   UNL     1       9.404   0.434  22.042  0.00  0.00    +0.252 S 
ATOM     32  O   UNL     1      10.268   1.552  21.744  0.00  0.00    -0.108 OA
ATOM     33  O   UNL     1       7.972   0.491  21.858  0.00  0.00    -0.108 OA
BRANCH  31  34
ATOM     34  O   UNL     1       9.892  -0.794  21.107  0.00  0.00    -0.222 OA
ATOM     35  H   UNL     1      10.819  -0.614  20.846  0.00  0.00    +0.248 HD
ENDBRANCH  31  34
ENDBRANCH  30  31
ENDBRANCH  11  30
TORSDOF 10
ENDMDL
MODEL 7
REMARK VINA RESULT:      -7.0      2.641      7.155
REMARK  Name = 
REMARK  10 active torsions:
REMARK  status: ('A' for Active; 'I' for Inactive)
REMARK    1  A    between atoms: C_3  and  O_30
REMARK    2  A    between atoms: C_4  and  O_25
REMARK    3  A    between atoms: C_6  and  C_7
REMARK    4  A    between atoms: C_8  and  O_20
REMARK    5  A    between atoms: C_12  and  O_19
REMARK    6  A    between atoms: C_14  and  O_18
REMARK    7  A    between atoms: O_20  and  S_21
REMARK    8  A    between atoms: S_21  and  O_24
REMARK    9  A    between atoms: O_25  and  S_26
REMARK   10  A    between atoms: S_26  and  O_29
REMARK                            x       y       z     vdW  Elec       q    Type
REMARK                         _______ _______ _______ _____ _____    ______ ____
ROOT
ATOM      1  C   UNL     1       7.159  -1.869  24.378  0.00  0.00    +0.184 A 
ATOM      2  O   UNL     1       7.825  -1.247  23.326  0.00  0.00    -0.451 OA
ATOM      3  C   UNL     1       8.312   0.018  23.491  0.00  0.00    +0.147 A 
ATOM      4  C   UNL     1       8.066   0.768  24.629  0.00  0.00    +0.109 A 
ATOM      5  C   UNL     1       8.556   2.078  24.720  0.00  0.00    +0.135 A 
ATOM      6  C   UNL     1       9.299   2.626  23.674  0.00  0.00    +0.091 A 
ATOM      7  C   UNL     1       9.558   1.852  22.549  0.00  0.00    +0.124 A 
ATOM      8  C   UNL     1       7.304   0.146  25.718  0.00  0.00    +0.241 A 
ATOM      9  O   UNL     1       7.041   0.793  26.728  0.00  0.00    -0.283 OA
ATOM     10  C   UNL     1       9.074   0.552  22.448  0.00  0.00    +0.092 A 
ATOM     11  C   UNL     1       6.888  -1.276  25.561  0.00  0.00    +0.248 A 
ENDROOT
BRANCH   1  13
ATOM     12  C   UNL     1       7.922  -4.162  23.809  0.00  0.00    +0.015 A 
ATOM     13  C   UNL     1       6.867  -3.262  24.004  0.00  0.00    +0.025 A 
ATOM     14  C   UNL     1       5.567  -3.625  23.619  0.00  0.00    +0.064 A 
ATOM     15  C   UNL     1       5.338  -4.857  23.000  0.00  0.00    +0.201 A 
ATOM     16  C   UNL     1       6.419  -5.690  22.706  0.00  0.00    +0.161 A 
ATOM     17  C   UNL     1       7.702  -5.371  23.142  0.00  0.00    +0.050 A 
BRANCH  16  18
ATOM     18  O   UNL     1       6.209  -6.812  21.953  0.00  0.00    -0.503 OA
ATOM     19  H   UNL     1       5.717  -6.556  21.154  0.00  0.00    +0.292 HD
ENDBRANCH  16  18
BRANCH  15  20
ATOM     20  O   UNL     1       4.097  -5.253  22.569  0.00  0.00    -0.321 OA
BRANCH  20  21
ATOM     21  S   UNL     1       3.112  -6.074  23.566  0.00  0.00    +0.251 S 
ATOM     22  O   UNL     1       1.865  -6.343  22.881  0.00  0.00    -0.108 OA
ATOM     23  O   UNL     1       3.145  -5.476  24.884  0.00  0.00    -0.108 OA
BRANCH  21  24
ATOM     24  O   UNL     1       3.879  -7.485  23.738  0.00  0.00    -0.222 OA
ATOM     25  H   UNL     1       4.526  -7.374  24.463  0.00  0.00    +0.248 HD
ENDBRANCH  21  24
ENDBRANCH  20  21
ENDBRANCH  15  20
ENDBRANCH   1  13
BRANCH   5  26
ATOM     26  O   UNL     1       8.345   2.881  25.804  0.00  0.00    -0.506 OA
ATOM     27  H   UNL     1       9.135   3.459  25.919  0.00  0.00    +0.292 HD
ENDBRANCH   5  26
BRANCH   7  28
ATOM     28  O   UNL     1      10.291   2.339  21.507  0.00  0.00    -0.507 OA
ATOM     29  H   UNL     1       9.685   2.675  20.823  0.00  0.00    +0.292 HD
ENDBRANCH   7  28
BRANCH  11  30
ATOM     30  O   UNL     1       6.376  -1.852  26.704  0.00  0.00    -0.317 OA
BRANCH  30  31
ATOM     31  S   UNL     1       4.810  -1.858  27.111  0.00  0.00    +0.252 S 
ATOM     32  O   UNL     1       4.528  -3.067  27.850  0.00  0.00    -0.108 OA
ATOM     33  O   UNL     1       4.013  -1.437  25.982  0.00  0.00    -0.108 OA
BRANCH  31  34
ATOM     34  O   UNL     1       4.712  -0.635  28.166  0.00  0.00    -0.222 OA
ATOM     35  H   UNL     1       3.793  -0.612  28.507  0.00  0.00    +0.248 HD
ENDBRANCH  31  34
ENDBRANCH  30  31
ENDBRANCH  11  30
TORSDOF 10
ENDMDL
MODEL 8
REMARK VINA RESULT:      -6.8      2.713      7.283
REMARK  Name = 
REMARK  10 active torsions:
REMARK  status: ('A' for Active; 'I' for Inactive)
REMARK    1  A    between atoms: C_3  and  O_30
REMARK    2  A    between atoms: C_4  and  O_25
REMARK    3  A    between atoms: C_6  and  C_7
REMARK    4  A    between atoms: C_8  and  O_20
REMARK    5  A    between atoms: C_12  and  O_19
REMARK    6  A    between atoms: C_14  and  O_18
REMARK    7  A    between atoms: O_20  and  S_21
REMARK    8  A    between atoms: S_21  and  O_24
REMARK    9  A    between atoms: O_25  and  S_26
REMARK   10  A    between atoms: S_26  and  O_29
REMARK                            x       y       z     vdW  Elec       q    Type
REMARK                         _______ _______ _______ _____ _____    ______ ____
ROOT
ATOM      1  C   UNL     1       6.992  -0.236  24.450  0.00  0.00    +0.184 A 
ATOM      2  O   UNL     1       5.918   0.646  24.366  0.00  0.00    -0.451 OA
ATOM      3  C   UNL     1       6.110   1.892  23.844  0.00  0.00    +0.147 A 
ATOM      4  C   UNL     1       7.364   2.373  23.504  0.00  0.00    +0.109 A 
ATOM      5  C   UNL     1       7.502   3.678  23.015  0.00  0.00    +0.135 A 
ATOM      6  C   UNL     1       6.381   4.495  22.860  0.00  0.00    +0.091 A 
ATOM      7  C   UNL     1       5.127   3.990  23.183  0.00  0.00    +0.124 A 
ATOM      8  C   UNL     1       8.514   1.474  23.655  0.00  0.00    +0.241 A 
ATOM      9  O   UNL     1       9.645   1.877  23.393  0.00  0.00    -0.283 OA
ATOM     10  C   UNL     1       4.980   2.696  23.672  0.00  0.00    +0.092 A 
ATOM     11  C   UNL     1       8.261   0.078  24.112  0.00  0.00    +0.248 A 
ENDROOT
BRANCH   1  13
ATOM     12  C   UNL     1       6.785  -1.981  26.205  0.00  0.00    +0.015 A 
ATOM     13  C   UNL     1       6.501  -1.548  24.903  0.00  0.00    +0.025 A 
ATOM     14  C   UNL     1       5.961  -2.451  23.975  0.00  0.00    +0.064 A 
ATOM     15  C   UNL     1       5.755  -3.786  24.334  0.00  0.00    +0.201 A 
ATOM     16  C   UNL     1       6.155  -4.228  25.597  0.00  0.00    +0.161 A 
ATOM     17  C   UNL     1       6.630  -3.328  26.547  0.00  0.00    +0.050 A 
BRANCH  16  18
ATOM     18  O   UNL     1       6.106  -5.564  25.881  0.00  0.00    -0.503 OA
ATOM     19  H   UNL     1       6.416  -5.694  26.794  0.00  0.00    +0.292 HD
ENDBRANCH  16  18
BRANCH  15  20
ATOM     20  O   UNL     1       5.264  -4.724  23.461  0.00  0.00    -0.321 OA
BRANCH  20  21
ATOM     21  S   UNL     1       6.083  -5.084  22.106  0.00  0.00    +0.251 S 
ATOM     22  O   UNL     1       7.486  -5.234  22.429  0.00  0.00    -0.108 OA
ATOM     23  O   UNL     1       5.635  -4.231  21.026  0.00  0.00    -0.108 OA
BRANCH  21  24
ATOM     24  O   UNL     1       5.518  -6.550  21.731  0.00  0.00    -0.222 OA
ATOM     25  H   UNL     1       5.671  -7.125  22.507  0.00  0.00    +0.248 HD
ENDBRANCH  21  24
ENDBRANCH  20  21
ENDBRANCH  15  20
ENDBRANCH   1  13
BRANCH   5  26
ATOM     26  O   UNL     1       8.706   4.224  22.669  0.00  0.00    -0.506 OA
ATOM     27  H   UNL     1       9.266   3.513  22.281  0.00  0.00    +0.292 HD
ENDBRANCH   5  26
BRANCH   7  28
ATOM     28  O   UNL     1       4.000   4.745  23.036  0.00  0.00    -0.507 OA
ATOM     29  H   UNL     1       3.423   4.606  23.808  0.00  0.00    +0.292 HD
ENDBRANCH   7  28
BRANCH  11  30
ATOM     30  O   UNL     1       9.350  -0.762  24.018  0.00  0.00    -0.317 OA
BRANCH  30  31
ATOM     31  S   UNL     1       9.574  -1.851  22.842  0.00  0.00    +0.252 S 
ATOM     32  O   UNL     1      10.957  -1.808  22.429  0.00  0.00    -0.108 OA
ATOM     33  O   UNL     1       8.482  -1.780  21.899  0.00  0.00    -0.108 OA
BRANCH  31  34
ATOM     34  O   UNL     1       9.363  -3.257  23.615  0.00  0.00    -0.222 OA
ATOM     35  H   UNL     1       8.437  -3.540  23.464  0.00  0.00    +0.248 HD
ENDBRANCH  31  34
ENDBRANCH  30  31
ENDBRANCH  11  30
TORSDOF 10
ENDMDL
MODEL 9
REMARK VINA RESULT:      -6.7      2.294      3.391
REMARK  Name = 
REMARK  10 active torsions:
REMARK  status: ('A' for Active; 'I' for Inactive)
REMARK    1  A    between atoms: C_3  and  O_30
REMARK    2  A    between atoms: C_4  and  O_25
REMARK    3  A    between atoms: C_6  and  C_7
REMARK    4  A    between atoms: C_8  and  O_20
REMARK    5  A    between atoms: C_12  and  O_19
REMARK    6  A    between atoms: C_14  and  O_18
REMARK    7  A    between atoms: O_20  and  S_21
REMARK    8  A    between atoms: S_21  and  O_24
REMARK    9  A    between atoms: O_25  and  S_26
REMARK   10  A    between atoms: S_26  and  O_29
REMARK                            x       y       z     vdW  Elec       q    Type
REMARK                         _______ _______ _______ _____ _____    ______ ____
ROOT
ATOM      1  C   UNL     1       5.767  -2.632  24.134  0.00  0.00    +0.184 A 
ATOM      2  O   UNL     1       4.437  -2.741  24.531  0.00  0.00    -0.451 OA
ATOM      3  C   UNL     1       3.848  -3.971  24.581  0.00  0.00    +0.147 A 
ATOM      4  C   UNL     1       4.481  -5.119  24.132  0.00  0.00    +0.109 A 
ATOM      5  C   UNL     1       3.806  -6.346  24.169  0.00  0.00    +0.135 A 
ATOM      6  C   UNL     1       2.504  -6.421  24.663  0.00  0.00    +0.091 A 
ATOM      7  C   UNL     1       1.892  -5.264  25.131  0.00  0.00    +0.124 A 
ATOM      8  C   UNL     1       5.861  -5.004  23.646  0.00  0.00    +0.241 A 
ATOM      9  O   UNL     1       6.441  -5.996  23.212  0.00  0.00    -0.283 OA
ATOM     10  C   UNL     1       2.552  -4.040  25.098  0.00  0.00    +0.092 A 
ATOM     11  C   UNL     1       6.522  -3.670  23.715  0.00  0.00    +0.248 A 
ENDROOT
BRANCH   1  13
ATOM     12  C   UNL     1       5.562  -0.418  25.241  0.00  0.00    +0.015 A 
ATOM     13  C   UNL     1       6.206  -1.237  24.305  0.00  0.00    +0.025 A 
ATOM     14  C   UNL     1       7.096  -0.666  23.382  0.00  0.00    +0.064 A 
ATOM     15  C   UNL     1       7.299   0.717  23.368  0.00  0.00    +0.201 A 
ATOM     16  C   UNL     1       6.559   1.529  24.229  0.00  0.00    +0.161 A 
ATOM     17  C   UNL     1       5.723   0.970  25.191  0.00  0.00    +0.050 A 
BRANCH  16  18
ATOM     18  O   UNL     1       6.638   2.888  24.094  0.00  0.00    -0.503 OA
ATOM     19  H   UNL     1       6.511   3.289  24.971  0.00  0.00    +0.292 HD
ENDBRANCH  16  18
BRANCH  15  20
ATOM     20  O   UNL     1       8.128   1.337  22.468  0.00  0.00    -0.321 OA
BRANCH  20  21
ATOM     21  S   UNL     1       9.673   1.646  22.862  0.00  0.00    +0.251 S 
ATOM     22  O   UNL     1      10.350   0.396  23.132  0.00  0.00    -0.108 OA
ATOM     23  O   UNL     1       9.725   2.758  23.789  0.00  0.00    -0.108 OA
BRANCH  21  24
ATOM     24  O   UNL     1      10.279   2.233  21.485  0.00  0.00    -0.222 OA
ATOM     25  H   UNL     1      11.244   2.077  21.505  0.00  0.00    +0.248 HD
ENDBRANCH  21  24
ENDBRANCH  20  21
ENDBRANCH  15  20
ENDBRANCH   1  13
BRANCH   5  26
ATOM     26  O   UNL     1       4.361  -7.517  23.735  0.00  0.00    -0.506 OA
ATOM     27  H   UNL     1       5.337  -7.460  23.857  0.00  0.00    +0.292 HD
ENDBRANCH   5  26
BRANCH   7  28
ATOM     28  O   UNL     1       0.625  -5.288  25.636  0.00  0.00    -0.507 OA
ATOM     29  H   UNL     1       0.587  -5.931  26.366  0.00  0.00    +0.292 HD
ENDBRANCH   7  28
BRANCH  11  30
ATOM     30  O   UNL     1       7.875  -3.687  23.451  0.00  0.00    -0.317 OA
BRANCH  30  31
ATOM     31  S   UNL     1       9.028  -3.923  24.562  0.00  0.00    +0.252 S 
ATOM     32  O   UNL     1       8.474  -3.652  25.868  0.00  0.00    -0.108 OA
ATOM     33  O   UNL     1      10.266  -3.334  24.110  0.00  0.00    -0.108 OA
BRANCH  31  34
ATOM     34  O   UNL     1       9.276  -5.520  24.484  0.00  0.00    -0.222 OA
ATOM     35  H   UNL     1       9.670  -5.799  25.337  0.00  0.00    +0.248 HD
ENDBRANCH  31  34
ENDBRANCH  30  31
ENDBRANCH  11  30
TORSDOF 10
ENDMDL
