MODEL 1
REMARK VINA RESULT:      -7.1      0.000      0.000
REMARK  Name = 
REMARK  8 active torsions:
REMARK  status: ('A' for Active; 'I' for Inactive)
REMARK    1  A    between atoms: C_1  and  O_2
REMARK    2  A    between atoms: O_2  and  C_3
REMARK    3  A    between atoms: C_5  and  O_24
REMARK    4  A    between atoms: C_11  and  O_23
REMARK    5  A    between atoms: C_12  and  C_14
REMARK    6  A    between atoms: C_16  and  O_21
REMARK    7  A    between atoms: C_17  and  O_20
REMARK    8  A    between atoms: O_21  and  C_22
REMARK                            x       y       z     vdW  Elec       q    Type
REMARK                         _______ _______ _______ _____ _____    ______ ____
ROOT
ATOM      1  C   UNL     1       5.197  -5.971  25.096  0.00  0.00    +0.138 A 
ATOM      2  C   UNL     1       5.646  -4.768  24.518  0.00  0.00    +0.109 A 
ATOM      3  C   UNL     1       5.129  -4.241  23.235  0.00  0.00    +0.238 A 
ATOM      4  C   UNL     1       5.836  -3.067  22.657  0.00  0.00    +0.208 A 
ATOM      5  C   UNL     1       6.812  -2.485  23.368  0.00  0.00    +0.181 A 
ATOM      6  O   UNL     1       7.195  -2.878  24.636  0.00  0.00    -0.451 OA
ATOM      7  O   UNL     1       4.165  -4.688  22.622  0.00  0.00    -0.283 OA
ATOM      8  C   UNL     1       6.630  -4.013  25.167  0.00  0.00    +0.147 A 
ATOM      9  C   UNL     1       7.110  -4.401  26.418  0.00  0.00    +0.092 A 
ATOM     10  C   UNL     1       6.614  -5.551  27.012  0.00  0.00    +0.124 A 
ATOM     11  C   UNL     1       5.673  -6.343  26.362  0.00  0.00    +0.092 A 
ENDROOT
BRANCH   5  12
ATOM     12  C   UNL     1       7.577  -1.335  22.854  0.00  0.00    +0.025 A 
ATOM     13  C   UNL     1       8.708  -1.550  22.052  0.00  0.00    +0.015 A 
ATOM     14  C   UNL     1       9.436  -0.467  21.558  0.00  0.00    +0.050 A 
ATOM     15  C   UNL     1       9.026   0.821  21.868  0.00  0.00    +0.158 A 
ATOM     16  C   UNL     1       7.900   1.063  22.665  0.00  0.00    +0.162 A 
ATOM     17  C   UNL     1       7.176  -0.024  23.161  0.00  0.00    +0.061 A 
BRANCH  15  18
ATOM     18  O   UNL     1       9.752   1.869  21.369  0.00  0.00    -0.503 OA
ATOM     19  H   UNL     1       9.651   2.582  22.029  0.00  0.00    +0.292 HD
ENDBRANCH  15  18
BRANCH  16  20
ATOM     20  O   UNL     1       7.618   2.388  22.880  0.00  0.00    -0.491 OA
ATOM     21  C   UNL     1       6.473   2.909  22.217  0.00  0.00    +0.277 C 
ENDBRANCH  16  20
ENDBRANCH   5  12
BRANCH   1  23
ATOM     22  C   UNL     1       3.364  -7.479  25.201  0.00  0.00    +0.277 C 
ATOM     23  O   UNL     1       4.287  -6.732  24.410  0.00  0.00    -0.494 OA
ENDBRANCH   1  23
BRANCH   4  24
ATOM     24  O   UNL     1       5.428  -2.631  21.410  0.00  0.00    -0.501 OA
ATOM     25  H   UNL     1       4.708  -1.989  21.595  0.00  0.00    +0.292 HD
ENDBRANCH   4  24
BRANCH  10  26
ATOM     26  O   UNL     1       7.084  -5.883  28.248  0.00  0.00    -0.507 OA
ATOM     27  H   UNL     1       7.675  -6.651  28.171  0.00  0.00    +0.292 HD
ENDBRANCH  10  26
TORSDOF 6
ENDMDL
MODEL 2
REMARK VINA RESULT:      -6.9      1.395      2.959
REMARK  Name = 
REMARK  8 active torsions:
REMARK  status: ('A' for Active; 'I' for Inactive)
REMARK    1  A    between atoms: C_1  and  O_2
REMARK    2  A    between atoms: O_2  and  C_3
REMARK    3  A    between atoms: C_5  and  O_24
REMARK    4  A    between atoms: C_11  and  O_23
REMARK    5  A    between atoms: C_12  and  C_14
REMARK    6  A    between atoms: C_16  and  O_21
REMARK    7  A    between atoms: C_17  and  O_20
REMARK    8  A    between atoms: O_21  and  C_22
REMARK                            x       y       z     vdW  Elec       q    Type
REMARK                         _______ _______ _______ _____ _____    ______ ____
ROOT
ATOM      1  C   UNL     1       5.694  -5.885  25.251  0.00  0.00    +0.138 A 
ATOM      2  C   UNL     1       6.450  -4.807  24.751  0.00  0.00    +0.109 A 
ATOM      3  C   UNL     1       7.611  -4.228  25.465  0.00  0.00    +0.238 A 
ATOM      4  C   UNL     1       8.185  -2.974  24.909  0.00  0.00    +0.208 A 
ATOM      5  C   UNL     1       7.706  -2.501  23.750  0.00  0.00    +0.181 A 
ATOM      6  O   UNL     1       6.726  -3.121  22.999  0.00  0.00    -0.451 OA
ATOM      7  O   UNL     1       8.138  -4.706  26.464  0.00  0.00    -0.283 OA
ATOM      8  C   UNL     1       6.107  -4.232  23.521  0.00  0.00    +0.147 A 
ATOM      9  C   UNL     1       5.076  -4.770  22.751  0.00  0.00    +0.092 A 
ATOM     10  C   UNL     1       4.380  -5.874  23.219  0.00  0.00    +0.124 A 
ATOM     11  C   UNL     1       4.671  -6.428  24.461  0.00  0.00    +0.092 A 
ENDROOT
BRANCH   5  12
ATOM     12  C   UNL     1       8.202  -1.251  23.149  0.00  0.00    +0.025 A 
ATOM     13  C   UNL     1       9.046  -1.300  22.029  0.00  0.00    +0.015 A 
ATOM     14  C   UNL     1       9.518  -0.120  21.452  0.00  0.00    +0.050 A 
ATOM     15  C   UNL     1       9.141   1.098  21.997  0.00  0.00    +0.158 A 
ATOM     16  C   UNL     1       8.298   1.174  23.113  0.00  0.00    +0.162 A 
ATOM     17  C   UNL     1       7.832  -0.009  23.691  0.00  0.00    +0.061 A 
BRANCH  15  18
ATOM     18  O   UNL     1       9.612   2.242  21.411  0.00  0.00    -0.503 OA
ATOM     19  H   UNL     1       9.615   2.052  20.453  0.00  0.00    +0.292 HD
ENDBRANCH  15  18
BRANCH  16  20
ATOM     20  O   UNL     1       8.012   2.448  23.534  0.00  0.00    -0.491 OA
ATOM     21  C   UNL     1       8.525   2.826  24.806  0.00  0.00    +0.277 C 
ENDBRANCH  16  20
ENDBRANCH   5  12
BRANCH   1  23
ATOM     22  C   UNL     1       4.893  -6.752  27.312  0.00  0.00    +0.277 C 
ATOM     23  O   UNL     1       6.000  -6.385  26.490  0.00  0.00    -0.494 OA
ENDBRANCH   1  23
BRANCH   4  24
ATOM     24  O   UNL     1       9.202  -2.370  25.625  0.00  0.00    -0.501 OA
ATOM     25  H   UNL     1       8.808  -2.184  26.506  0.00  0.00    +0.292 HD
ENDBRANCH   4  24
BRANCH  10  26
ATOM     26  O   UNL     1       3.400  -6.391  22.426  0.00  0.00    -0.507 OA
ATOM     27  H   UNL     1       3.221  -5.776  21.694  0.00  0.00    +0.292 HD
ENDBRANCH  10  26
TORSDOF 6
ENDMDL
MODEL 3
REMARK VINA RESULT:      -6.8      2.619      3.288
REMARK  Name = 
REMARK  8 active torsions:
REMARK  status: ('A' for Active; 'I' for Inactive)
REMARK    1  A    between atoms: C_1  and  O_2
REMARK    2  A    between atoms: O_2  and  C_3
REMARK    3  A    between atoms: C_5  and  O_24
REMARK    4  A    between atoms: C_11  and  O_23
REMARK    5  A    between atoms: C_12  and  C_14
REMARK    6  A    between atoms: C_16  and  O_21
REMARK    7  A    between atoms: C_17  and  O_20
REMARK    8  A    between atoms: O_21  and  C_22
REMARK                            x       y       z     vdW  Elec       q    Type
REMARK                         _______ _______ _______ _____ _____    ______ ____
ROOT
ATOM      1  C   UNL     1       7.456  -4.473  23.573  0.00  0.00    +0.138 A 
ATOM      2  C   UNL     1       7.698  -3.086  23.616  0.00  0.00    +0.109 A 
ATOM      3  C   UNL     1       6.791  -2.084  23.011  0.00  0.00    +0.238 A 
ATOM      4  C   UNL     1       7.277  -0.679  22.967  0.00  0.00    +0.208 A 
ATOM      5  C   UNL     1       8.437  -0.375  23.566  0.00  0.00    +0.181 A 
ATOM      6  O   UNL     1       9.213  -1.278  24.267  0.00  0.00    -0.451 OA
ATOM      7  O   UNL     1       5.676  -2.320  22.558  0.00  0.00    -0.283 OA
ATOM      8  C   UNL     1       8.846  -2.603  24.255  0.00  0.00    +0.147 A 
ATOM      9  C   UNL     1       9.709  -3.476  24.917  0.00  0.00    +0.092 A 
ATOM     10  C   UNL     1       9.428  -4.834  24.928  0.00  0.00    +0.124 A 
ATOM     11  C   UNL     1       8.320  -5.340  24.256  0.00  0.00    +0.092 A 
ENDROOT
BRANCH   5  12
ATOM     12  C   UNL     1       8.998   0.987  23.543  0.00  0.00    +0.025 A 
ATOM     13  C   UNL     1       9.992   1.318  22.609  0.00  0.00    +0.015 A 
ATOM     14  C   UNL     1      10.526   2.607  22.579  0.00  0.00    +0.050 A 
ATOM     15  C   UNL     1      10.061   3.554  23.478  0.00  0.00    +0.158 A 
ATOM     16  C   UNL     1       9.068   3.250  24.418  0.00  0.00    +0.162 A 
ATOM     17  C   UNL     1       8.539   1.957  24.450  0.00  0.00    +0.061 A 
BRANCH  15  18
ATOM     18  O   UNL     1      10.595   4.813  23.427  0.00  0.00    -0.503 OA
ATOM     19  H   UNL     1      11.308   4.757  22.761  0.00  0.00    +0.292 HD
ENDBRANCH  15  18
BRANCH  16  20
ATOM     20  O   UNL     1       8.709   4.290  25.236  0.00  0.00    -0.491 OA
ATOM     21  C   UNL     1       7.531   4.110  26.014  0.00  0.00    +0.277 C 
ENDBRANCH  16  20
ENDBRANCH   5  12
BRANCH   1  23
ATOM     22  C   UNL     1       6.639  -5.695  21.707  0.00  0.00    +0.277 C 
ATOM     23  O   UNL     1       6.366  -4.929  22.880  0.00  0.00    -0.494 OA
ENDBRANCH   1  23
BRANCH   4  24
ATOM     24  O   UNL     1       6.484   0.246  22.312  0.00  0.00    -0.501 OA
ATOM     25  H   UNL     1       6.966   1.096  22.406  0.00  0.00    +0.292 HD
ENDBRANCH   4  24
BRANCH  10  26
ATOM     26  O   UNL     1      10.276  -5.654  25.610  0.00  0.00    -0.507 OA
ATOM     27  H   UNL     1      10.976  -5.120  26.023  0.00  0.00    +0.292 HD
ENDBRANCH  10  26
TORSDOF 6
ENDMDL
MODEL 4
REMARK VINA RESULT:      -6.7      1.760      7.686
REMARK  Name = 
REMARK  8 active torsions:
REMARK  status: ('A' for Active; 'I' for Inactive)
REMARK    1  A    between atoms: C_1  and  O_2
REMARK    2  A    between atoms: O_2  and  C_3
REMARK    3  A    between atoms: C_5  and  O_24
REMARK    4  A    between atoms: C_11  and  O_23
REMARK    5  A    between atoms: C_12  and  C_14
REMARK    6  A    between atoms: C_16  and  O_21
REMARK    7  A    between atoms: C_17  and  O_20
REMARK    8  A    between atoms: O_21  and  C_22
REMARK                            x       y       z     vdW  Elec       q    Type
REMARK                         _______ _______ _______ _____ _____    ______ ____
ROOT
ATOM      1  C   UNL     1       9.156   2.064  22.527  0.00  0.00    +0.138 A 
ATOM      2  C   UNL     1       8.705   0.762  22.816  0.00  0.00    +0.109 A 
ATOM      3  C   UNL     1       9.611  -0.346  23.194  0.00  0.00    +0.238 A 
ATOM      4  C   UNL     1       9.012  -1.705  23.278  0.00  0.00    +0.208 A 
ATOM      5  C   UNL     1       7.687  -1.839  23.123  0.00  0.00    +0.181 A 
ATOM      6  O   UNL     1       6.814  -0.787  22.923  0.00  0.00    -0.451 OA
ATOM      7  O   UNL     1      10.804  -0.229  23.452  0.00  0.00    -0.283 OA
ATOM      8  C   UNL     1       7.337   0.472  22.749  0.00  0.00    +0.147 A 
ATOM      9  C   UNL     1       6.412   1.480  22.478  0.00  0.00    +0.092 A 
ATOM     10  C   UNL     1       6.858   2.775  22.260  0.00  0.00    +0.124 A 
ATOM     11  C   UNL     1       8.216   3.074  22.272  0.00  0.00    +0.092 A 
ENDROOT
BRANCH   5  12
ATOM     12  C   UNL     1       7.022  -3.153  23.165  0.00  0.00    +0.025 A 
ATOM     13  C   UNL     1       6.652  -3.788  21.970  0.00  0.00    +0.015 A 
ATOM     14  C   UNL     1       6.026  -5.035  22.001  0.00  0.00    +0.050 A 
ATOM     15  C   UNL     1       5.777  -5.637  23.225  0.00  0.00    +0.158 A 
ATOM     16  C   UNL     1       6.138  -5.025  24.433  0.00  0.00    +0.162 A 
ATOM     17  C   UNL     1       6.761  -3.775  24.398  0.00  0.00    +0.061 A 
BRANCH  15  18
ATOM     18  O   UNL     1       5.165  -6.862  23.232  0.00  0.00    -0.503 OA
ATOM     19  H   UNL     1       5.875  -7.496  23.453  0.00  0.00    +0.292 HD
ENDBRANCH  15  18
BRANCH  16  20
ATOM     20  O   UNL     1       5.830  -5.744  25.559  0.00  0.00    -0.491 OA
ATOM     21  C   UNL     1       6.659  -5.529  26.695  0.00  0.00    +0.277 C 
ENDBRANCH  16  20
ENDBRANCH   5  12
BRANCH   1  23
ATOM     22  C   UNL     1      10.959   3.342  23.399  0.00  0.00    +0.277 C 
ATOM     23  O   UNL     1      10.504   2.309  22.526  0.00  0.00    -0.494 OA
ENDBRANCH   1  23
BRANCH   4  24
ATOM     24  O   UNL     1       9.868  -2.761  23.528  0.00  0.00    -0.501 OA
ATOM     25  H   UNL     1       9.950  -3.224  22.666  0.00  0.00    +0.292 HD
ENDBRANCH   4  24
BRANCH  10  26
ATOM     26  O   UNL     1       5.924   3.740  22.028  0.00  0.00    -0.507 OA
ATOM     27  H   UNL     1       5.455   3.540  21.199  0.00  0.00    +0.292 HD
ENDBRANCH  10  26
TORSDOF 6
ENDMDL
MODEL 5
REMARK VINA RESULT:      -6.6      2.346      4.148
REMARK  Name = 
REMARK  8 active torsions:
REMARK  status: ('A' for Active; 'I' for Inactive)
REMARK    1  A    between atoms: C_1  and  O_2
REMARK    2  A    between atoms: O_2  and  C_3
REMARK    3  A    between atoms: C_5  and  O_24
REMARK    4  A    between atoms: C_11  and  O_23
REMARK    5  A    between atoms: C_12  and  C_14
REMARK    6  A    between atoms: C_16  and  O_21
REMARK    7  A    between atoms: C_17  and  O_20
REMARK    8  A    between atoms: O_21  and  C_22
REMARK                            x       y       z     vdW  Elec       q    Type
REMARK                         _______ _______ _______ _____ _____    ______ ____
ROOT
ATOM      1  C   UNL     1       7.849  -4.530  23.610  0.00  0.00    +0.138 A 
ATOM      2  C   UNL     1       8.026  -3.149  23.397  0.00  0.00    +0.109 A 
ATOM      3  C   UNL     1       9.326  -2.461  23.564  0.00  0.00    +0.238 A 
ATOM      4  C   UNL     1       9.314  -0.975  23.495  0.00  0.00    +0.208 A 
ATOM      5  C   UNL     1       8.171  -0.351  23.178  0.00  0.00    +0.181 A 
ATOM      6  O   UNL     1       6.989  -0.997  22.868  0.00  0.00    -0.451 OA
ATOM      7  O   UNL     1      10.404  -3.017  23.743  0.00  0.00    -0.283 OA
ATOM      8  C   UNL     1       6.934  -2.363  23.008  0.00  0.00    +0.147 A 
ATOM      9  C   UNL     1       5.695  -2.949  22.753  0.00  0.00    +0.092 A 
ATOM     10  C   UNL     1       5.546  -4.320  22.899  0.00  0.00    +0.124 A 
ATOM     11  C   UNL     1       6.603  -5.112  23.333  0.00  0.00    +0.092 A 
ENDROOT
BRANCH   5  12
ATOM     12  C   UNL     1       8.071   1.118  23.116  0.00  0.00    +0.025 A 
ATOM     13  C   UNL     1       7.673   1.742  21.924  0.00  0.00    +0.015 A 
ATOM     14  C   UNL     1       7.573   3.133  21.859  0.00  0.00    +0.050 A 
ATOM     15  C   UNL     1       7.869   3.886  22.985  0.00  0.00    +0.158 A 
ATOM     16  C   UNL     1       8.266   3.287  24.187  0.00  0.00    +0.162 A 
ATOM     17  C   UNL     1       8.370   1.895  24.248  0.00  0.00    +0.061 A 
BRANCH  15  18
ATOM     18  O   UNL     1       7.759   5.248  22.899  0.00  0.00    -0.503 OA
ATOM     19  H   UNL     1       7.116   5.493  23.593  0.00  0.00    +0.292 HD
ENDBRANCH  15  18
BRANCH  16  20
ATOM     20  O   UNL     1       8.520   4.163  25.212  0.00  0.00    -0.491 OA
ATOM     21  C   UNL     1       7.568   4.196  26.268  0.00  0.00    +0.277 C 
ENDBRANCH  16  20
ENDBRANCH   5  12
BRANCH   1  23
ATOM     22  C   UNL     1       8.901  -5.610  25.445  0.00  0.00    +0.277 C 
ATOM     23  O   UNL     1       8.912  -5.268  24.060  0.00  0.00    -0.494 OA
ENDBRANCH   1  23
BRANCH   4  24
ATOM     24  O   UNL     1      10.503  -0.319  23.753  0.00  0.00    -0.501 OA
ATOM     25  H   UNL     1      11.036  -0.441  22.937  0.00  0.00    +0.292 HD
ENDBRANCH   4  24
BRANCH  10  26
ATOM     26  O   UNL     1       4.328  -4.861  22.612  0.00  0.00    -0.507 OA
ATOM     27  H   UNL     1       3.999  -5.343  23.390  0.00  0.00    +0.292 HD
ENDBRANCH  10  26
TORSDOF 6
ENDMDL
MODEL 6
REMARK VINA RESULT:      -6.5      2.846      7.737
REMARK  Name = 
REMARK  8 active torsions:
REMARK  status: ('A' for Active; 'I' for Inactive)
REMARK    1  A    between atoms: C_1  and  O_2
REMARK    2  A    between atoms: O_2  and  C_3
REMARK    3  A    between atoms: C_5  and  O_24
REMARK    4  A    between atoms: C_11  and  O_23
REMARK    5  A    between atoms: C_12  and  C_14
REMARK    6  A    between atoms: C_16  and  O_21
REMARK    7  A    between atoms: C_17  and  O_20
REMARK    8  A    between atoms: O_21  and  C_22
REMARK                            x       y       z     vdW  Elec       q    Type
REMARK                         _______ _______ _______ _____ _____    ______ ____
ROOT
ATOM      1  C   UNL     1       8.220   3.534  23.554  0.00  0.00    +0.138 A 
ATOM      2  C   UNL     1       8.111   2.144  23.751  0.00  0.00    +0.109 A 
ATOM      3  C   UNL     1       6.817   1.426  23.781  0.00  0.00    +0.238 A 
ATOM      4  C   UNL     1       6.849  -0.002  24.193  0.00  0.00    +0.208 A 
ATOM      5  C   UNL     1       8.037  -0.589  24.401  0.00  0.00    +0.181 A 
ATOM      6  O   UNL     1       9.257   0.034  24.223  0.00  0.00    -0.451 OA
ATOM      7  O   UNL     1       5.731   1.913  23.485  0.00  0.00    -0.283 OA
ATOM      8  C   UNL     1       9.269   1.377  23.933  0.00  0.00    +0.147 A 
ATOM      9  C   UNL     1      10.530   1.966  23.839  0.00  0.00    +0.092 A 
ATOM     10  C   UNL     1      10.631   3.324  23.577  0.00  0.00    +0.124 A 
ATOM     11  C   UNL     1       9.493   4.112  23.444  0.00  0.00    +0.092 A 
ENDROOT
BRANCH   5  12
ATOM     12  C   UNL     1       8.152  -1.992  24.836  0.00  0.00    +0.025 A 
ATOM     13  C   UNL     1       8.216  -2.297  26.204  0.00  0.00    +0.015 A 
ATOM     14  C   UNL     1       8.321  -3.623  26.625  0.00  0.00    +0.050 A 
ATOM     15  C   UNL     1       8.359  -4.633  25.676  0.00  0.00    +0.158 A 
ATOM     16  C   UNL     1       8.294  -4.356  24.304  0.00  0.00    +0.162 A 
ATOM     17  C   UNL     1       8.193  -3.027  23.886  0.00  0.00    +0.061 A 
BRANCH  15  18
ATOM     18  O   UNL     1       8.457  -5.928  26.111  0.00  0.00    -0.503 OA
ATOM     19  H   UNL     1       9.042  -5.886  26.893  0.00  0.00    +0.292 HD
ENDBRANCH  15  18
BRANCH  16  20
ATOM     20  O   UNL     1       8.338  -5.459  23.490  0.00  0.00    -0.491 OA
ATOM     21  C   UNL     1       7.307  -5.569  22.515  0.00  0.00    +0.277 C 
ENDBRANCH  16  20
ENDBRANCH   5  12
BRANCH   1  23
ATOM     22  C   UNL     1       6.977   5.137  22.317  0.00  0.00    +0.277 C 
ATOM     23  O   UNL     1       7.073   4.276  23.452  0.00  0.00    -0.494 OA
ENDBRANCH   1  23
BRANCH   4  24
ATOM     24  O   UNL     1       5.636  -0.652  24.324  0.00  0.00    -0.501 OA
ATOM     25  H   UNL     1       5.384  -0.896  23.406  0.00  0.00    +0.292 HD
ENDBRANCH   4  24
BRANCH  10  26
ATOM     26  O   UNL     1      11.880   3.858  23.462  0.00  0.00    -0.507 OA
ATOM     27  H   UNL     1      11.816   4.737  23.051  0.00  0.00    +0.292 HD
ENDBRANCH  10  26
TORSDOF 6
ENDMDL
MODEL 7
REMARK VINA RESULT:      -6.4      2.155      3.673
REMARK  Name = 
REMARK  8 active torsions:
REMARK  status: ('A' for Active; 'I' for Inactive)
REMARK    1  A    between atoms: C_1  and  O_2
REMARK    2  A    between atoms: O_2  and  C_3
REMARK    3  A    between atoms: C_5  and  O_24
REMARK    4  A    between atoms: C_11  and  O_23
REMARK    5  A    between atoms: C_12  and  C_14
REMARK    6  A    between atoms: C_16  and  O_21
REMARK    7  A    between atoms: C_17  and  O_20
REMARK    8  A    between atoms: O_21  and  C_22
REMARK                            x       y       z     vdW  Elec       q    Type
REMARK                         _______ _______ _______ _____ _____    ______ ____
ROOT
ATOM      1  C   UNL     1       6.790  -4.950  24.371  0.00  0.00    +0.138 A 
ATOM      2  C   UNL     1       7.469  -3.716  24.348  0.00  0.00    +0.109 A 
ATOM      3  C   UNL     1       8.081  -3.103  25.549  0.00  0.00    +0.238 A 
ATOM      4  C   UNL     1       8.590  -1.712  25.409  0.00  0.00    +0.208 A 
ATOM      5  C   UNL     1       8.574  -1.136  24.198  0.00  0.00    +0.181 A 
ATOM      6  O   UNL     1       8.146  -1.761  23.042  0.00  0.00    -0.451 OA
ATOM      7  O   UNL     1       8.209  -3.652  26.638  0.00  0.00    -0.283 OA
ATOM      8  C   UNL     1       7.585  -3.011  23.144  0.00  0.00    +0.147 A 
ATOM      9  C   UNL     1       7.105  -3.559  21.955  0.00  0.00    +0.092 A 
ATOM     10  C   UNL     1       6.498  -4.805  21.973  0.00  0.00    +0.124 A 
ATOM     11  C   UNL     1       6.327  -5.499  23.167  0.00  0.00    +0.092 A 
ENDROOT
BRANCH   5  12
ATOM     12  C   UNL     1       9.035   0.246  23.982  0.00  0.00    +0.025 A 
ATOM     13  C   UNL     1      10.409   0.527  23.942  0.00  0.00    +0.015 A 
ATOM     14  C   UNL     1      10.853   1.834  23.735  0.00  0.00    +0.050 A 
ATOM     15  C   UNL     1       9.921   2.847  23.567  0.00  0.00    +0.158 A 
ATOM     16  C   UNL     1       8.544   2.593  23.600  0.00  0.00    +0.162 A 
ATOM     17  C   UNL     1       8.103   1.284  23.813  0.00  0.00    +0.061 A 
BRANCH  15  18
ATOM     18  O   UNL     1      10.380   4.121  23.360  0.00  0.00    -0.503 OA
ATOM     19  H   UNL     1       9.819   4.477  22.644  0.00  0.00    +0.292 HD
ENDBRANCH  15  18
BRANCH  16  20
ATOM     20  O   UNL     1       7.749   3.695  23.414  0.00  0.00    -0.491 OA
ATOM     21  C   UNL     1       6.958   4.101  24.525  0.00  0.00    +0.277 C 
ENDBRANCH  16  20
ENDBRANCH   5  12
BRANCH   1  23
ATOM     22  C   UNL     1       5.301  -6.028  25.875  0.00  0.00    +0.277 C 
ATOM     23  O   UNL     1       6.624  -5.587  25.573  0.00  0.00    -0.494 OA
ENDBRANCH   1  23
BRANCH   4  24
ATOM     24  O   UNL     1       9.068  -1.094  26.549  0.00  0.00    -0.501 OA
ATOM     25  H   UNL     1       8.337  -1.174  27.200  0.00  0.00    +0.292 HD
ENDBRANCH   4  24
BRANCH  10  26
ATOM     26  O   UNL     1       6.068  -5.322  20.788  0.00  0.00    -0.507 OA
ATOM     27  H   UNL     1       6.226  -6.282  20.779  0.00  0.00    +0.292 HD
ENDBRANCH  10  26
TORSDOF 6
ENDMDL
MODEL 8
REMARK VINA RESULT:      -6.3      1.898      7.403
REMARK  Name = 
REMARK  8 active torsions:
REMARK  status: ('A' for Active; 'I' for Inactive)
REMARK    1  A    between atoms: C_1  and  O_2
REMARK    2  A    between atoms: O_2  and  C_3
REMARK    3  A    between atoms: C_5  and  O_24
REMARK    4  A    between atoms: C_11  and  O_23
REMARK    5  A    between atoms: C_12  and  C_14
REMARK    6  A    between atoms: C_16  and  O_21
REMARK    7  A    between atoms: C_17  and  O_20
REMARK    8  A    between atoms: O_21  and  C_22
REMARK                            x       y       z     vdW  Elec       q    Type
REMARK                         _______ _______ _______ _____ _____    ______ ____
ROOT
ATOM      1  C   UNL     1       8.086   0.197  23.534  0.00  0.00    +0.138 A 
ATOM      2  C   UNL     1       7.239  -0.905  23.763  0.00  0.00    +0.109 A 
ATOM      3  C   UNL     1       5.939  -0.799  24.464  0.00  0.00    +0.238 A 
ATOM      4  C   UNL     1       5.252  -2.073  24.803  0.00  0.00    +0.208 A 
ATOM      5  C   UNL     1       5.776  -3.228  24.365  0.00  0.00    +0.181 A 
ATOM      6  O   UNL     1       6.907  -3.322  23.578  0.00  0.00    -0.451 OA
ATOM      7  O   UNL     1       5.386   0.251  24.774  0.00  0.00    -0.283 OA
ATOM      8  C   UNL     1       7.621  -2.176  23.319  0.00  0.00    +0.147 A 
ATOM      9  C   UNL     1       8.793  -2.346  22.582  0.00  0.00    +0.092 A 
ATOM     10  C   UNL     1       9.588  -1.245  22.301  0.00  0.00    +0.124 A 
ATOM     11  C   UNL     1       9.253   0.018  22.777  0.00  0.00    +0.092 A 
ENDROOT
BRANCH   5  12
ATOM     12  C   UNL     1       5.170  -4.533  24.682  0.00  0.00    +0.025 A 
ATOM     13  C   UNL     1       4.222  -5.093  23.812  0.00  0.00    +0.015 A 
ATOM     14  C   UNL     1       3.647  -6.330  24.104  0.00  0.00    +0.050 A 
ATOM     15  C   UNL     1       4.025  -6.998  25.259  0.00  0.00    +0.158 A 
ATOM     16  C   UNL     1       4.971  -6.461  26.142  0.00  0.00    +0.162 A 
ATOM     17  C   UNL     1       5.541  -5.220  25.850  0.00  0.00    +0.061 A 
BRANCH  15  18
ATOM     18  O   UNL     1       3.450  -8.213  25.522  0.00  0.00    -0.503 OA
ATOM     19  H   UNL     1       4.052  -8.868  25.118  0.00  0.00    +0.292 HD
ENDBRANCH  15  18
BRANCH  16  20
ATOM     20  O   UNL     1       5.244  -7.240  27.237  0.00  0.00    -0.491 OA
ATOM     21  C   UNL     1       4.725  -6.787  28.483  0.00  0.00    +0.277 C 
ENDBRANCH  16  20
ENDBRANCH   5  12
BRANCH   1  23
ATOM     22  C   UNL     1       8.695   2.066  24.867  0.00  0.00    +0.277 C 
ATOM     23  O   UNL     1       7.728   1.419  24.041  0.00  0.00    -0.494 OA
ENDBRANCH   1  23
BRANCH   4  24
ATOM     24  O   UNL     1       4.091  -1.989  25.548  0.00  0.00    -0.501 OA
ATOM     25  H   UNL     1       3.610  -1.220  25.172  0.00  0.00    +0.292 HD
ENDBRANCH   4  24
BRANCH  10  26
ATOM     26  O   UNL     1      10.709  -1.444  21.553  0.00  0.00    -0.507 OA
ATOM     27  H   UNL     1      10.762  -0.759  20.864  0.00  0.00    +0.292 HD
ENDBRANCH  10  26
TORSDOF 6
ENDMDL
MODEL 9
REMARK VINA RESULT:      -6.3      2.286      7.368
REMARK  Name = 
REMARK  8 active torsions:
REMARK  status: ('A' for Active; 'I' for Inactive)
REMARK    1  A    between atoms: C_1  and  O_2
REMARK    2  A    between atoms: O_2  and  C_3
REMARK    3  A    between atoms: C_5  and  O_24
REMARK    4  A    between atoms: C_11  and  O_23
REMARK    5  A    between atoms: C_12  and  C_14
REMARK    6  A    between atoms: C_16  and  O_21
REMARK    7  A    between atoms: C_17  and  O_20
REMARK    8  A    between atoms: O_21  and  C_22
REMARK                            x       y       z     vdW  Elec       q    Type
REMARK                         _______ _______ _______ _____ _____    ______ ____
ROOT
ATOM      1  C   UNL     1       9.346  -0.030  24.226  0.00  0.00    +0.138 A 
ATOM      2  C   UNL     1       8.716  -1.268  24.458  0.00  0.00    +0.109 A 
ATOM      3  C   UNL     1       9.134  -2.528  23.803  0.00  0.00    +0.238 A 
ATOM      4  C   UNL     1       8.254  -3.711  23.997  0.00  0.00    +0.208 A 
ATOM      5  C   UNL     1       7.209  -3.611  24.832  0.00  0.00    +0.181 A 
ATOM      6  O   UNL     1       6.904  -2.482  25.567  0.00  0.00    -0.451 OA
ATOM      7  O   UNL     1      10.147  -2.673  23.127  0.00  0.00    -0.283 OA
ATOM      8  C   UNL     1       7.637  -1.340  25.348  0.00  0.00    +0.147 A 
ATOM      9  C   UNL     1       7.234  -0.214  26.065  0.00  0.00    +0.092 A 
ATOM     10  C   UNL     1       7.903   0.987  25.881  0.00  0.00    +0.124 A 
ATOM     11  C   UNL     1       8.944   1.092  24.965  0.00  0.00    +0.092 A 
ENDROOT
BRANCH   5  12
ATOM     12  C   UNL     1       6.275  -4.728  25.056  0.00  0.00    +0.025 A 
ATOM     13  C   UNL     1       5.372  -5.098  24.048  0.00  0.00    +0.015 A 
ATOM     14  C   UNL     1       4.487  -6.158  24.252  0.00  0.00    +0.050 A 
ATOM     15  C   UNL     1       4.514  -6.840  25.459  0.00  0.00    +0.158 A 
ATOM     16  C   UNL     1       5.408  -6.492  26.481  0.00  0.00    +0.162 A 
ATOM     17  C   UNL     1       6.289  -5.427  26.275  0.00  0.00    +0.061 A 
BRANCH  15  18
ATOM     18  O   UNL     1       3.641  -7.879  25.635  0.00  0.00    -0.503 OA
ATOM     19  H   UNL     1       4.085  -8.652  25.235  0.00  0.00    +0.292 HD
ENDBRANCH  15  18
BRANCH  16  20
ATOM     20  O   UNL     1       5.318  -7.260  27.613  0.00  0.00    -0.491 OA
ATOM     21  C   UNL     1       5.459  -6.580  28.854  0.00  0.00    +0.277 C 
ENDBRANCH  16  20
ENDBRANCH   5  12
BRANCH   1  23
ATOM     22  C   UNL     1      10.066   0.767  22.107  0.00  0.00    +0.277 C 
ATOM     23  O   UNL     1      10.351   0.033  23.297  0.00  0.00    -0.494 OA
ENDBRANCH   1  23
BRANCH   4  24
ATOM     24  O   UNL     1       8.578  -4.864  23.305  0.00  0.00    -0.501 OA
ATOM     25  H   UNL     1       9.221  -4.571  22.623  0.00  0.00    +0.292 HD
ENDBRANCH   4  24
BRANCH  10  26
ATOM     26  O   UNL     1       7.501   2.058  26.621  0.00  0.00    -0.507 OA
ATOM     27  H   UNL     1       8.120   2.796  26.481  0.00  0.00    +0.292 HD
ENDBRANCH  10  26
TORSDOF 6
ENDMDL
