MODEL 1
REMARK VINA RESULT:      -7.6      0.000      0.000
REMARK  Name = 
REMARK  22 active torsions:
REMARK  status: ('A' for Active; 'I' for Inactive)
REMARK    1  A    between atoms: C_1  and  C_2
REMARK    2  A    between atoms: C_3  and  O_61
REMARK    3  A    between atoms: C_5  and  O_60
REMARK    4  A    between atoms: C_7  and  O_59
REMARK    5  A    between atoms: C_8  and  O_11
REMARK    6  A    between atoms: O_11  and  C_12
REMARK    7  A    between atoms: C_12  and  C_13
REMARK    8  A    between atoms: C_14  and  O_58
REMARK    9  A    between atoms: C_16  and  O_57
REMARK   10  A    between atoms: C_17  and  O_56
REMARK   11  A    between atoms: C_18  and  O_21
REMARK   12  A    between atoms: O_21  and  C_22
REMARK   13  A    between atoms: C_23  and  C_48
REMARK   14  A    between atoms: C_27  and  O_34
REMARK   15  A    between atoms: C_29  and  O_33
REMARK   16  A    between atoms: O_34  and  C_35
REMARK   17  A    between atoms: C_37  and  O_47
REMARK   18  A    between atoms: C_38  and  O_46
REMARK   19  A    between atoms: C_40  and  O_45
REMARK   20  A    between atoms: C_42  and  C_44
REMARK   21  A    between atoms: C_50  and  O_55
REMARK   22  A    between atoms: C_51  and  O_54
REMARK                            x       y       z     vdW  Elec       q    Type
REMARK                         _______ _______ _______ _____ _____    ______ ____
ROOT
ATOM      1  C   UNL     1       4.228  -1.930  26.459  0.00  0.00    +0.214 A 
ATOM      2  C   UNL     1       3.395  -0.686  26.660  0.00  0.00    +0.238 A 
ATOM      3  O   UNL     1       2.173  -0.768  26.738  0.00  0.00    -0.283 OA
ATOM      4  C   UNL     1       4.168   0.597  26.822  0.00  0.00    +0.109 A 
ATOM      5  C   UNL     1       5.487   0.486  27.255  0.00  0.00    +0.147 A 
ATOM      6  C   UNL     1       6.350   1.583  27.420  0.00  0.00    +0.093 A 
ATOM      7  C   UNL     1       5.926   2.865  27.088  0.00  0.00    +0.131 A 
ATOM      8  C   UNL     1       4.588   2.998  26.691  0.00  0.00    +0.092 A 
ATOM      9  O   UNL     1       6.004  -0.723  27.590  0.00  0.00    -0.451 OA
ATOM     10  C   UNL     1       3.720   1.886  26.593  0.00  0.00    +0.135 A 
ATOM     11  C   UNL     1       5.496  -1.812  26.921  0.00  0.00    +0.181 A 
ENDROOT
BRANCH  11  12
ATOM     12  C   UNL     1       6.608  -2.737  26.671  0.00  0.00    +0.025 A 
ATOM     13  C   UNL     1       7.842  -2.190  26.277  0.00  0.00    +0.015 A 
ATOM     14  C   UNL     1       8.987  -2.983  26.201  0.00  0.00    +0.050 A 
ATOM     15  C   UNL     1       8.916  -4.302  26.634  0.00  0.00    +0.158 A 
ATOM     16  C   UNL     1       7.723  -4.822  27.127  0.00  0.00    +0.159 A 
ATOM     17  C   UNL     1       6.561  -4.061  27.121  0.00  0.00    +0.060 A 
BRANCH  16  18
ATOM     18  O   UNL     1       7.667  -6.056  27.708  0.00  0.00    -0.503 OA
ATOM     19  H   UNL     1       6.759  -6.161  28.041  0.00  0.00    +0.292 HD
ENDBRANCH  16  18
BRANCH  15  20
ATOM     20  O   UNL     1      10.042  -5.070  26.667  0.00  0.00    -0.503 OA
ATOM     21  H   UNL     1      10.644  -4.675  26.010  0.00  0.00    +0.292 HD
ENDBRANCH  15  20
ENDBRANCH  11  12
BRANCH  10  22
ATOM     22  O   UNL     1       2.426   2.101  26.267  0.00  0.00    -0.506 OA
ATOM     23  H   UNL     1       2.346   2.941  25.777  0.00  0.00    +0.292 HD
ENDBRANCH  10  22
BRANCH   7  24
ATOM     24  O   UNL     1       6.723   4.000  27.087  0.00  0.00    -0.461 OA
BRANCH  24  25
ATOM     25  C   UNL     1       6.494   4.943  26.010  0.00  0.00    +0.339 C 
ATOM     26  O   UNL     1       7.307   4.634  24.874  0.00  0.00    -0.334 OA
ATOM     27  C   UNL     1       8.707   4.818  25.132  0.00  0.00    +0.150 C 
ATOM     28  C   UNL     1       9.462   4.271  23.929  0.00  0.00    +0.041 C 
ATOM     29  C   UNL     1       9.019   6.305  25.380  0.00  0.00    +0.174 C 
ATOM     30  C   UNL     1       8.170   6.852  26.543  0.00  0.00    +0.180 C 
ATOM     31  C   UNL     1       6.698   6.440  26.381  0.00  0.00    +0.214 C 
BRANCH  31  32
ATOM     32  O   UNL     1       5.891   6.851  27.484  0.00  0.00    -0.383 OA
ATOM     33  H   UNL     1       4.960   6.696  27.242  0.00  0.00    +0.210 HD
ENDBRANCH  31  32
BRANCH  30  34
ATOM     34  O   UNL     1       8.714   6.457  27.812  0.00  0.00    -0.386 OA
ATOM     35  H   UNL     1       9.442   5.832  27.663  0.00  0.00    +0.210 HD
ENDBRANCH  30  34
BRANCH  29  36
ATOM     36  O   UNL     1      10.413   6.487  25.636  0.00  0.00    -0.387 OA
ATOM     37  H   UNL     1      10.884   5.704  25.293  0.00  0.00    +0.210 HD
ENDBRANCH  29  36
ENDBRANCH  24  25
ENDBRANCH   7  24
BRANCH   1  38
ATOM     38  O   UNL     1       3.766  -3.119  25.934  0.00  0.00    -0.453 OA
BRANCH  38  41
ATOM     39  C   UNL     1       5.407  -4.212  22.733  0.00  0.00    +0.179 C 
ATOM     40  O   UNL     1       4.840  -3.366  23.759  0.00  0.00    -0.331 OA
ATOM     41  C   UNL     1       4.460  -3.978  24.996  0.00  0.00    +0.340 C 
ATOM     42  C   UNL     1       3.751  -5.357  24.876  0.00  0.00    +0.214 C 
ATOM     43  C   UNL     1       4.596  -6.270  23.975  0.00  0.00    +0.180 C 
ATOM     44  C   UNL     1       4.713  -5.601  22.598  0.00  0.00    +0.177 C 
BRANCH  44  45
ATOM     45  O   UNL     1       5.422  -6.461  21.699  0.00  0.00    -0.386 OA
ATOM     46  H   UNL     1       6.007  -7.032  22.229  0.00  0.00    +0.210 HD
ENDBRANCH  44  45
BRANCH  43  47
ATOM     47  O   UNL     1       3.998  -7.571  23.877  0.00  0.00    -0.386 OA
ATOM     48  H   UNL     1       4.727  -8.218  23.890  0.00  0.00    +0.210 HD
ENDBRANCH  43  47
BRANCH  42  49
ATOM     49  O   UNL     1       2.422  -5.306  24.331  0.00  0.00    -0.383 OA
ATOM     50  H   UNL     1       1.950  -6.132  24.582  0.00  0.00    +0.210 HD
ENDBRANCH  42  49
BRANCH  39  51
ATOM     51  C   UNL     1       6.960  -4.375  22.791  0.00  0.00    +0.197 C 
BRANCH  51  52
ATOM     52  O   UNL     1       7.744  -3.362  22.171  0.00  0.00    -0.346 OA
BRANCH  52  56
ATOM     53  C   UNL     1       6.500   0.393  23.877  0.00  0.00    +0.041 C 
ATOM     54  C   UNL     1       7.325   0.207  22.608  0.00  0.00    +0.149 C 
ATOM     55  O   UNL     1       7.242  -1.153  22.164  0.00  0.00    -0.343 OA
ATOM     56  C   UNL     1       8.065  -2.138  22.823  0.00  0.00    +0.282 C 
ATOM     57  C   UNL     1       9.539  -1.676  22.719  0.00  0.00    +0.201 C 
ATOM     58  C   UNL     1       9.649  -0.325  23.458  0.00  0.00    +0.179 C 
ATOM     59  C   UNL     1       8.763   0.730  22.780  0.00  0.00    +0.174 C 
BRANCH  59  60
ATOM     60  O   UNL     1       9.314   1.109  21.511  0.00  0.00    -0.387 OA
ATOM     61  H   UNL     1      10.227   1.430  21.683  0.00  0.00    +0.210 HD
ENDBRANCH  59  60
BRANCH  58  62
ATOM     62  O   UNL     1      11.016   0.106  23.539  0.00  0.00    -0.386 OA
ATOM     63  H   UNL     1      11.302  -0.009  24.471  0.00  0.00    +0.210 HD
ENDBRANCH  58  62
BRANCH  57  64
ATOM     64  O   UNL     1       9.926  -1.508  21.335  0.00  0.00    -0.384 OA
ATOM     65  H   UNL     1       9.281  -0.889  20.936  0.00  0.00    +0.210 HD
ENDBRANCH  57  64
ENDBRANCH  52  56
ENDBRANCH  51  52
ENDBRANCH  39  51
ENDBRANCH  38  41
ENDBRANCH   1  38
TORSDOF 20
ENDMDL
MODEL 2
REMARK VINA RESULT:      -7.4      2.181      9.144
REMARK  Name = 
REMARK  22 active torsions:
REMARK  status: ('A' for Active; 'I' for Inactive)
REMARK    1  A    between atoms: C_1  and  C_2
REMARK    2  A    between atoms: C_3  and  O_61
REMARK    3  A    between atoms: C_5  and  O_60
REMARK    4  A    between atoms: C_7  and  O_59
REMARK    5  A    between atoms: C_8  and  O_11
REMARK    6  A    between atoms: O_11  and  C_12
REMARK    7  A    between atoms: C_12  and  C_13
REMARK    8  A    between atoms: C_14  and  O_58
REMARK    9  A    between atoms: C_16  and  O_57
REMARK   10  A    between atoms: C_17  and  O_56
REMARK   11  A    between atoms: C_18  and  O_21
REMARK   12  A    between atoms: O_21  and  C_22
REMARK   13  A    between atoms: C_23  and  C_48
REMARK   14  A    between atoms: C_27  and  O_34
REMARK   15  A    between atoms: C_29  and  O_33
REMARK   16  A    between atoms: O_34  and  C_35
REMARK   17  A    between atoms: C_37  and  O_47
REMARK   18  A    between atoms: C_38  and  O_46
REMARK   19  A    between atoms: C_40  and  O_45
REMARK   20  A    between atoms: C_42  and  C_44
REMARK   21  A    between atoms: C_50  and  O_55
REMARK   22  A    between atoms: C_51  and  O_54
REMARK                            x       y       z     vdW  Elec       q    Type
REMARK                         _______ _______ _______ _____ _____    ______ ____
ROOT
ATOM      1  C   UNL     1       8.325  -1.938  25.293  0.00  0.00    +0.214 A 
ATOM      2  C   UNL     1       8.599  -3.129  24.404  0.00  0.00    +0.238 A 
ATOM      3  O   UNL     1       9.641  -3.188  23.757  0.00  0.00    -0.283 OA
ATOM      4  C   UNL     1       7.562  -4.220  24.437  0.00  0.00    +0.109 A 
ATOM      5  C   UNL     1       6.756  -4.287  25.570  0.00  0.00    +0.147 A 
ATOM      6  C   UNL     1       5.720  -5.223  25.738  0.00  0.00    +0.093 A 
ATOM      7  C   UNL     1       5.407  -6.113  24.717  0.00  0.00    +0.131 A 
ATOM      8  C   UNL     1       6.237  -6.086  23.587  0.00  0.00    +0.092 A 
ATOM      9  O   UNL     1       6.968  -3.452  26.619  0.00  0.00    -0.451 OA
ATOM     10  C   UNL     1       7.313  -5.177  23.468  0.00  0.00    +0.135 A 
ATOM     11  C   UNL     1       7.483  -2.213  26.319  0.00  0.00    +0.181 A 
ENDROOT
BRANCH  11  12
ATOM     12  C   UNL     1       6.840  -1.239  27.208  0.00  0.00    +0.025 A 
ATOM     13  C   UNL     1       7.613  -0.156  27.665  0.00  0.00    +0.015 A 
ATOM     14  C   UNL     1       7.025   0.903  28.357  0.00  0.00    +0.050 A 
ATOM     15  C   UNL     1       5.642   0.930  28.489  0.00  0.00    +0.158 A 
ATOM     16  C   UNL     1       4.859  -0.086  27.946  0.00  0.00    +0.159 A 
ATOM     17  C   UNL     1       5.447  -1.184  27.334  0.00  0.00    +0.060 A 
BRANCH  16  18
ATOM     18  O   UNL     1       3.496  -0.000  27.918  0.00  0.00    -0.503 OA
ATOM     19  H   UNL     1       3.278   0.927  28.116  0.00  0.00    +0.292 HD
ENDBRANCH  16  18
BRANCH  15  20
ATOM     20  O   UNL     1       5.033   2.002  29.071  0.00  0.00    -0.503 OA
ATOM     21  H   UNL     1       4.647   1.661  29.899  0.00  0.00    +0.292 HD
ENDBRANCH  15  20
ENDBRANCH  11  12
BRANCH  10  22
ATOM     22  O   UNL     1       8.109  -5.254  22.378  0.00  0.00    -0.506 OA
ATOM     23  H   UNL     1       8.915  -5.759  22.596  0.00  0.00    +0.292 HD
ENDBRANCH  10  22
BRANCH   7  24
ATOM     24  O   UNL     1       4.332  -6.990  24.716  0.00  0.00    -0.461 OA
BRANCH  24  25
ATOM     25  C   UNL     1       3.014  -6.387  24.682  0.00  0.00    +0.339 C 
ATOM     26  O   UNL     1       2.656  -5.860  25.963  0.00  0.00    -0.334 OA
ATOM     27  C   UNL     1       2.484  -6.886  26.952  0.00  0.00    +0.150 C 
ATOM     28  C   UNL     1       2.306  -6.192  28.295  0.00  0.00    +0.041 C 
ATOM     29  C   UNL     1       1.279  -7.777  26.602  0.00  0.00    +0.174 C 
ATOM     30  C   UNL     1       1.446  -8.391  25.198  0.00  0.00    +0.180 C 
ATOM     31  C   UNL     1       1.870  -7.316  24.184  0.00  0.00    +0.214 C 
BRANCH  31  32
ATOM     32  O   UNL     1       2.123  -7.858  22.887  0.00  0.00    -0.383 OA
ATOM     33  H   UNL     1       2.816  -8.535  22.982  0.00  0.00    +0.210 HD
ENDBRANCH  31  32
BRANCH  30  34
ATOM     34  O   UNL     1       2.350  -9.506  25.225  0.00  0.00    -0.386 OA
ATOM     35  H   UNL     1       2.228 -10.032  24.417  0.00  0.00    +0.210 HD
ENDBRANCH  30  34
BRANCH  29  36
ATOM     36  O   UNL     1       1.108  -8.798  27.587  0.00  0.00    -0.387 OA
ATOM     37  H   UNL     1       0.202  -8.722  27.941  0.00  0.00    +0.210 HD
ENDBRANCH  29  36
ENDBRANCH  24  25
ENDBRANCH   7  24
BRANCH   1  38
ATOM     38  O   UNL     1       8.909  -0.696  25.161  0.00  0.00    -0.453 OA
BRANCH  38  41
ATOM     39  C   UNL     1       6.811   1.163  22.656  0.00  0.00    +0.179 C 
ATOM     40  O   UNL     1       7.204   0.221  23.681  0.00  0.00    -0.331 OA
ATOM     41  C   UNL     1       8.512   0.354  24.246  0.00  0.00    +0.340 C 
ATOM     42  C   UNL     1       9.652   0.676  23.239  0.00  0.00    +0.214 C 
ATOM     43  C   UNL     1       9.230   1.879  22.383  0.00  0.00    +0.180 C 
ATOM     44  C   UNL     1       7.942   1.502  21.637  0.00  0.00    +0.177 C 
BRANCH  44  45
ATOM     45  O   UNL     1       7.559   2.567  20.759  0.00  0.00    -0.386 OA
ATOM     46  H   UNL     1       8.373   2.993  20.433  0.00  0.00    +0.210 HD
ENDBRANCH  44  45
BRANCH  43  47
ATOM     47  O   UNL     1      10.278   2.237  21.470  0.00  0.00    -0.386 OA
ATOM     48  H   UNL     1      10.761   2.982  21.873  0.00  0.00    +0.210 HD
ENDBRANCH  43  47
BRANCH  42  49
ATOM     49  O   UNL     1       9.993  -0.401  22.350  0.00  0.00    -0.383 OA
ATOM     50  H   UNL     1      10.967  -0.395  22.212  0.00  0.00    +0.210 HD
ENDBRANCH  42  49
BRANCH  39  51
ATOM     51  C   UNL     1       6.132   2.469  23.181  0.00  0.00    +0.197 C 
BRANCH  51  52
ATOM     52  O   UNL     1       6.725   3.102  24.310  0.00  0.00    -0.346 OA
BRANCH  52  56
ATOM     53  C   UNL     1       6.626   7.002  22.481  0.00  0.00    +0.041 C 
ATOM     54  C   UNL     1       7.829   6.068  22.551  0.00  0.00    +0.149 C 
ATOM     55  O   UNL     1       7.403   4.746  22.906  0.00  0.00    -0.343 OA
ATOM     56  C   UNL     1       7.128   4.468  24.295  0.00  0.00    +0.282 C 
ATOM     57  C   UNL     1       8.396   4.812  25.113  0.00  0.00    +0.201 C 
ATOM     58  C   UNL     1       8.665   6.320  24.927  0.00  0.00    +0.179 C 
ATOM     59  C   UNL     1       8.942   6.637  23.450  0.00  0.00    +0.174 C 
BRANCH  59  60
ATOM     60  O   UNL     1      10.220   6.118  23.055  0.00  0.00    -0.387 OA
ATOM     61  H   UNL     1      10.638   5.748  23.865  0.00  0.00    +0.210 HD
ENDBRANCH  59  60
BRANCH  58  62
ATOM     62  O   UNL     1       9.741   6.758  25.771  0.00  0.00    -0.386 OA
ATOM     63  H   UNL     1      10.440   7.122  25.185  0.00  0.00    +0.210 HD
ENDBRANCH  58  62
BRANCH  57  64
ATOM     64  O   UNL     1       9.532   4.051  24.639  0.00  0.00    -0.384 OA
ATOM     65  H   UNL     1       9.255   3.112  24.625  0.00  0.00    +0.210 HD
ENDBRANCH  57  64
ENDBRANCH  52  56
ENDBRANCH  51  52
ENDBRANCH  39  51
ENDBRANCH  38  41
ENDBRANCH   1  38
TORSDOF 20
ENDMDL
MODEL 3
REMARK VINA RESULT:      -7.4      2.173      8.891
REMARK  Name = 
REMARK  22 active torsions:
REMARK  status: ('A' for Active; 'I' for Inactive)
REMARK    1  A    between atoms: C_1  and  C_2
REMARK    2  A    between atoms: C_3  and  O_61
REMARK    3  A    between atoms: C_5  and  O_60
REMARK    4  A    between atoms: C_7  and  O_59
REMARK    5  A    between atoms: C_8  and  O_11
REMARK    6  A    between atoms: O_11  and  C_12
REMARK    7  A    between atoms: C_12  and  C_13
REMARK    8  A    between atoms: C_14  and  O_58
REMARK    9  A    between atoms: C_16  and  O_57
REMARK   10  A    between atoms: C_17  and  O_56
REMARK   11  A    between atoms: C_18  and  O_21
REMARK   12  A    between atoms: O_21  and  C_22
REMARK   13  A    between atoms: C_23  and  C_48
REMARK   14  A    between atoms: C_27  and  O_34
REMARK   15  A    between atoms: C_29  and  O_33
REMARK   16  A    between atoms: O_34  and  C_35
REMARK   17  A    between atoms: C_37  and  O_47
REMARK   18  A    between atoms: C_38  and  O_46
REMARK   19  A    between atoms: C_40  and  O_45
REMARK   20  A    between atoms: C_42  and  C_44
REMARK   21  A    between atoms: C_50  and  O_55
REMARK   22  A    between atoms: C_51  and  O_54
REMARK                            x       y       z     vdW  Elec       q    Type
REMARK                         _______ _______ _______ _____ _____    ______ ____
ROOT
ATOM      1  C   UNL     1       5.713   2.636  25.992  0.00  0.00    +0.214 A 
ATOM      2  C   UNL     1       6.583   1.723  26.825  0.00  0.00    +0.238 A 
ATOM      3  O   UNL     1       7.472   2.193  27.529  0.00  0.00    -0.283 OA
ATOM      4  C   UNL     1       6.230   0.260  26.772  0.00  0.00    +0.109 A 
ATOM      5  C   UNL     1       4.926  -0.060  26.405  0.00  0.00    +0.147 A 
ATOM      6  C   UNL     1       4.451  -1.377  26.274  0.00  0.00    +0.093 A 
ATOM      7  C   UNL     1       5.312  -2.453  26.455  0.00  0.00    +0.131 A 
ATOM      8  C   UNL     1       6.618  -2.149  26.867  0.00  0.00    +0.092 A 
ATOM      9  O   UNL     1       4.010   0.918  26.190  0.00  0.00    -0.451 OA
ATOM     10  C   UNL     1       7.054  -0.817  27.053  0.00  0.00    +0.135 A 
ATOM     11  C   UNL     1       4.493   2.115  25.716  0.00  0.00    +0.181 A 
ENDROOT
BRANCH  11  12
ATOM     12  C   UNL     1       3.518   2.635  24.750  0.00  0.00    +0.025 A 
ATOM     13  C   UNL     1       2.278   3.078  25.243  0.00  0.00    +0.015 A 
ATOM     14  C   UNL     1       1.378   3.752  24.417  0.00  0.00    +0.050 A 
ATOM     15  C   UNL     1       1.773   4.084  23.127  0.00  0.00    +0.158 A 
ATOM     16  C   UNL     1       3.042   3.742  22.666  0.00  0.00    +0.159 A 
ATOM     17  C   UNL     1       3.906   2.995  23.455  0.00  0.00    +0.060 A 
BRANCH  16  18
ATOM     18  O   UNL     1       3.512   4.197  21.467  0.00  0.00    -0.503 OA
ATOM     19  H   UNL     1       3.917   3.430  21.024  0.00  0.00    +0.292 HD
ENDBRANCH  16  18
BRANCH  15  20
ATOM     20  O   UNL     1       0.954   4.830  22.333  0.00  0.00    -0.503 OA
ATOM     21  H   UNL     1       0.048   4.566  22.577  0.00  0.00    +0.292 HD
ENDBRANCH  15  20
ENDBRANCH  11  12
BRANCH  10  22
ATOM     22  O   UNL     1       8.306  -0.604  27.514  0.00  0.00    -0.506 OA
ATOM     23  H   UNL     1       8.330   0.224  28.029  0.00  0.00    +0.292 HD
ENDBRANCH  10  22
BRANCH   7  24
ATOM     24  O   UNL     1       4.993  -3.785  26.229  0.00  0.00    -0.461 OA
BRANCH  24  25
ATOM     25  C   UNL     1       6.037  -4.603  25.645  0.00  0.00    +0.339 C 
ATOM     26  O   UNL     1       6.333  -4.184  24.310  0.00  0.00    -0.334 OA
ATOM     27  C   UNL     1       5.242  -4.412  23.406  0.00  0.00    +0.150 C 
ATOM     28  C   UNL     1       5.605  -3.749  22.085  0.00  0.00    +0.041 C 
ATOM     29  C   UNL     1       4.984  -5.920  23.240  0.00  0.00    +0.174 C 
ATOM     30  C   UNL     1       4.712  -6.579  24.606  0.00  0.00    +0.180 C 
ATOM     31  C   UNL     1       5.758  -6.133  25.641  0.00  0.00    +0.214 C 
BRANCH  31  32
ATOM     32  O   UNL     1       5.491  -6.651  26.944  0.00  0.00    -0.383 OA
ATOM     33  H   UNL     1       5.751  -5.970  27.590  0.00  0.00    +0.210 HD
ENDBRANCH  31  32
BRANCH  30  34
ATOM     34  O   UNL     1       3.367  -6.328  25.043  0.00  0.00    -0.386 OA
ATOM     35  H   UNL     1       3.307  -5.419  25.379  0.00  0.00    +0.210 HD
ENDBRANCH  30  34
BRANCH  29  36
ATOM     36  O   UNL     1       3.897  -6.146  22.340  0.00  0.00    -0.387 OA
ATOM     37  H   UNL     1       3.116  -5.677  22.692  0.00  0.00    +0.210 HD
ENDBRANCH  29  36
ENDBRANCH  24  25
ENDBRANCH   7  24
BRANCH   1  38
ATOM     38  O   UNL     1       6.053   3.912  25.594  0.00  0.00    -0.453 OA
BRANCH  38  41
ATOM     39  C   UNL     1       9.529   4.896  24.554  0.00  0.00    +0.179 C 
ATOM     40  O   UNL     1       8.430   4.392  25.348  0.00  0.00    -0.331 OA
ATOM     41  C   UNL     1       7.147   4.284  24.722  0.00  0.00    +0.340 C 
ATOM     42  C   UNL     1       6.745   5.469  23.799  0.00  0.00    +0.214 C 
ATOM     43  C   UNL     1       7.889   5.736  22.810  0.00  0.00    +0.180 C 
ATOM     44  C   UNL     1       9.146   6.084  23.621  0.00  0.00    +0.177 C 
BRANCH  44  45
ATOM     45  O   UNL     1      10.217   6.424  22.733  0.00  0.00    -0.386 OA
ATOM     46  H   UNL     1      10.057   5.975  21.884  0.00  0.00    +0.210 HD
ENDBRANCH  44  45
BRANCH  43  47
ATOM     47  O   UNL     1       7.536   6.796  21.908  0.00  0.00    -0.386 OA
ATOM     48  H   UNL     1       7.899   7.618  22.284  0.00  0.00    +0.210 HD
ENDBRANCH  43  47
BRANCH  42  49
ATOM     49  O   UNL     1       6.462   6.699  24.488  0.00  0.00    -0.383 OA
ATOM     50  H   UNL     1       5.663   7.107  24.083  0.00  0.00    +0.210 HD
ENDBRANCH  42  49
BRANCH  39  51
ATOM     51  C   UNL     1      10.331   3.811  23.766  0.00  0.00    +0.197 C 
BRANCH  51  52
ATOM     52  O   UNL     1      10.124   2.452  24.137  0.00  0.00    -0.346 OA
BRANCH  52  56
ATOM     53  C   UNL     1       6.479   0.834  22.507  0.00  0.00    +0.041 C 
ATOM     54  C   UNL     1       7.430   0.128  23.467  0.00  0.00    +0.149 C 
ATOM     55  O   UNL     1       8.323   1.079  24.060  0.00  0.00    -0.343 OA
ATOM     56  C   UNL     1       9.459   1.523  23.288  0.00  0.00    +0.282 C 
ATOM     57  C   UNL     1      10.274   0.273  22.876  0.00  0.00    +0.201 C 
ATOM     58  C   UNL     1       9.356  -0.604  21.998  0.00  0.00    +0.179 C 
ATOM     59  C   UNL     1       8.132  -1.069  22.799  0.00  0.00    +0.174 C 
BRANCH  59  60
ATOM     60  O   UNL     1       8.515  -2.039  23.784  0.00  0.00    -0.387 OA
ATOM     61  H   UNL     1       8.009  -2.859  23.585  0.00  0.00    +0.210 HD
ENDBRANCH  59  60
BRANCH  58  62
ATOM     62  O   UNL     1      10.080  -1.715  21.448  0.00  0.00    -0.386 OA
ATOM     63  H   UNL     1      10.239  -2.348  22.182  0.00  0.00    +0.210 HD
ENDBRANCH  58  62
BRANCH  57  64
ATOM     64  O   UNL     1      10.691  -0.474  24.044  0.00  0.00    -0.384 OA
ATOM     65  H   UNL     1       9.950  -1.070  24.275  0.00  0.00    +0.210 HD
ENDBRANCH  57  64
ENDBRANCH  52  56
ENDBRANCH  51  52
ENDBRANCH  39  51
ENDBRANCH  38  41
ENDBRANCH   1  38
TORSDOF 20
ENDMDL
MODEL 4
REMARK VINA RESULT:      -7.3      1.956      5.258
REMARK  Name = 
REMARK  22 active torsions:
REMARK  status: ('A' for Active; 'I' for Inactive)
REMARK    1  A    between atoms: C_1  and  C_2
REMARK    2  A    between atoms: C_3  and  O_61
REMARK    3  A    between atoms: C_5  and  O_60
REMARK    4  A    between atoms: C_7  and  O_59
REMARK    5  A    between atoms: C_8  and  O_11
REMARK    6  A    between atoms: O_11  and  C_12
REMARK    7  A    between atoms: C_12  and  C_13
REMARK    8  A    between atoms: C_14  and  O_58
REMARK    9  A    between atoms: C_16  and  O_57
REMARK   10  A    between atoms: C_17  and  O_56
REMARK   11  A    between atoms: C_18  and  O_21
REMARK   12  A    between atoms: O_21  and  C_22
REMARK   13  A    between atoms: C_23  and  C_48
REMARK   14  A    between atoms: C_27  and  O_34
REMARK   15  A    between atoms: C_29  and  O_33
REMARK   16  A    between atoms: O_34  and  C_35
REMARK   17  A    between atoms: C_37  and  O_47
REMARK   18  A    between atoms: C_38  and  O_46
REMARK   19  A    between atoms: C_40  and  O_45
REMARK   20  A    between atoms: C_42  and  C_44
REMARK   21  A    between atoms: C_50  and  O_55
REMARK   22  A    between atoms: C_51  and  O_54
REMARK                            x       y       z     vdW  Elec       q    Type
REMARK                         _______ _______ _______ _____ _____    ______ ____
ROOT
ATOM      1  C   UNL     1       6.900  -2.137  26.262  0.00  0.00    +0.214 A 
ATOM      2  C   UNL     1       8.051  -2.098  25.283  0.00  0.00    +0.238 A 
ATOM      3  O   UNL     1       8.649  -3.131  24.994  0.00  0.00    -0.283 OA
ATOM      4  C   UNL     1       8.338  -0.754  24.668  0.00  0.00    +0.109 A 
ATOM      5  C   UNL     1       7.294   0.165  24.649  0.00  0.00    +0.147 A 
ATOM      6  C   UNL     1       7.411   1.472  24.144  0.00  0.00    +0.093 A 
ATOM      7  C   UNL     1       8.636   1.937  23.681  0.00  0.00    +0.131 A 
ATOM      8  C   UNL     1       9.688   1.010  23.654  0.00  0.00    +0.092 A 
ATOM      9  O   UNL     1       6.059  -0.183  25.094  0.00  0.00    -0.451 OA
ATOM     10  C   UNL     1       9.528  -0.319  24.110  0.00  0.00    +0.135 A 
ATOM     11  C   UNL     1       6.013  -1.127  26.092  0.00  0.00    +0.181 A 
ENDROOT
BRANCH  11  12
ATOM     12  C   UNL     1       4.932  -0.749  27.010  0.00  0.00    +0.025 A 
ATOM     13  C   UNL     1       5.269   0.009  28.145  0.00  0.00    +0.015 A 
ATOM     14  C   UNL     1       4.280   0.560  28.959  0.00  0.00    +0.050 A 
ATOM     15  C   UNL     1       2.951   0.446  28.568  0.00  0.00    +0.158 A 
ATOM     16  C   UNL     1       2.616  -0.212  27.387  0.00  0.00    +0.159 A 
ATOM     17  C   UNL     1       3.590  -0.836  26.621  0.00  0.00    +0.060 A 
BRANCH  16  18
ATOM     18  O   UNL     1       1.340  -0.196  26.898  0.00  0.00    -0.503 OA
ATOM     19  H   UNL     1       0.901  -0.988  27.256  0.00  0.00    +0.292 HD
ENDBRANCH  16  18
BRANCH  15  20
ATOM     20  O   UNL     1       1.972   1.061  29.290  0.00  0.00    -0.503 OA
ATOM     21  H   UNL     1       1.756   1.872  28.794  0.00  0.00    +0.292 HD
ENDBRANCH  15  20
ENDBRANCH  11  12
BRANCH  10  22
ATOM     22  O   UNL     1      10.569  -1.174  23.992  0.00  0.00    -0.506 OA
ATOM     23  H   UNL     1      10.820  -1.257  23.053  0.00  0.00    +0.292 HD
ENDBRANCH  10  22
BRANCH   7  24
ATOM     24  O   UNL     1       8.904   3.238  23.281  0.00  0.00    -0.461 OA
BRANCH  24  25
ATOM     25  C   UNL     1       9.277   4.166  24.330  0.00  0.00    +0.339 C 
ATOM     26  O   UNL     1       8.208   4.348  25.262  0.00  0.00    -0.334 OA
ATOM     27  C   UNL     1       7.074   5.007  24.678  0.00  0.00    +0.150 C 
ATOM     28  C   UNL     1       5.949   4.958  25.702  0.00  0.00    +0.041 C 
ATOM     29  C   UNL     1       7.431   6.451  24.285  0.00  0.00    +0.174 C 
ATOM     30  C   UNL     1       8.634   6.470  23.321  0.00  0.00    +0.180 C 
ATOM     31  C   UNL     1       9.760   5.562  23.841  0.00  0.00    +0.214 C 
BRANCH  31  32
ATOM     32  O   UNL     1      10.859   5.482  22.933  0.00  0.00    -0.383 OA
ATOM     33  H   UNL     1      11.678   5.550  23.456  0.00  0.00    +0.210 HD
ENDBRANCH  31  32
BRANCH  30  34
ATOM     34  O   UNL     1       8.231   6.135  21.984  0.00  0.00    -0.386 OA
ATOM     35  H   UNL     1       8.842   6.553  21.355  0.00  0.00    +0.210 HD
ENDBRANCH  30  34
BRANCH  29  36
ATOM     36  O   UNL     1       6.302   7.106  23.704  0.00  0.00    -0.387 OA
ATOM     37  H   UNL     1       6.122   6.681  22.843  0.00  0.00    +0.210 HD
ENDBRANCH  29  36
ENDBRANCH  24  25
ENDBRANCH   7  24
BRANCH   1  38
ATOM     38  O   UNL     1       6.689  -3.124  27.201  0.00  0.00    -0.453 OA
BRANCH  38  41
ATOM     39  C   UNL     1       3.567  -5.194  26.873  0.00  0.00    +0.179 C 
ATOM     40  O   UNL     1       4.457  -4.054  26.888  0.00  0.00    -0.331 OA
ATOM     41  C   UNL     1       5.858  -4.301  27.048  0.00  0.00    +0.340 C 
ATOM     42  C   UNL     1       6.235  -5.389  28.094  0.00  0.00    +0.214 C 
ATOM     43  C   UNL     1       5.419  -6.656  27.805  0.00  0.00    +0.180 C 
ATOM     44  C   UNL     1       3.930  -6.297  27.913  0.00  0.00    +0.177 C 
BRANCH  44  45
ATOM     45  O   UNL     1       3.132  -7.473  27.734  0.00  0.00    -0.386 OA
ATOM     46  H   UNL     1       3.438  -7.922  26.925  0.00  0.00    +0.210 HD
ENDBRANCH  44  45
BRANCH  43  47
ATOM     47  O   UNL     1       5.774  -7.702  28.722  0.00  0.00    -0.386 OA
ATOM     48  H   UNL     1       5.168  -8.446  28.550  0.00  0.00    +0.210 HD
ENDBRANCH  43  47
BRANCH  42  49
ATOM     49  O   UNL     1       6.001  -5.015  29.462  0.00  0.00    -0.383 OA
ATOM     50  H   UNL     1       5.303  -5.602  29.831  0.00  0.00    +0.210 HD
ENDBRANCH  42  49
BRANCH  39  51
ATOM     51  C   UNL     1       3.319  -5.823  25.464  0.00  0.00    +0.197 C 
BRANCH  51  52
ATOM     52  O   UNL     1       3.499  -4.978  24.333  0.00  0.00    -0.346 OA
BRANCH  52  56
ATOM     53  C   UNL     1       6.073  -2.272  22.184  0.00  0.00    +0.041 C 
ATOM     54  C   UNL     1       5.651  -3.666  21.734  0.00  0.00    +0.149 C 
ATOM     55  O   UNL     1       4.534  -4.116  22.511  0.00  0.00    -0.343 OA
ATOM     56  C   UNL     1       4.788  -4.638  23.832  0.00  0.00    +0.282 C 
ATOM     57  C   UNL     1       5.796  -5.805  23.699  0.00  0.00    +0.201 C 
ATOM     58  C   UNL     1       7.098  -5.221  23.110  0.00  0.00    +0.179 C 
ATOM     59  C   UNL     1       6.841  -4.644  21.711  0.00  0.00    +0.174 C 
BRANCH  59  60
ATOM     60  O   UNL     1       6.606  -5.698  20.767  0.00  0.00    -0.387 OA
ATOM     61  H   UNL     1       6.281  -6.471  21.281  0.00  0.00    +0.210 HD
ENDBRANCH  59  60
BRANCH  58  62
ATOM     62  O   UNL     1       8.140  -6.208  23.090  0.00  0.00    -0.386 OA
ATOM     63  H   UNL     1       8.916  -5.801  22.645  0.00  0.00    +0.210 HD
ENDBRANCH  58  62
BRANCH  57  64
ATOM     64  O   UNL     1       5.279  -6.830  22.819  0.00  0.00    -0.384 OA
ATOM     65  H   UNL     1       5.080  -6.394  21.966  0.00  0.00    +0.210 HD
ENDBRANCH  57  64
ENDBRANCH  52  56
ENDBRANCH  51  52
ENDBRANCH  39  51
ENDBRANCH  38  41
ENDBRANCH   1  38
TORSDOF 20
ENDMDL
MODEL 5
REMARK VINA RESULT:      -7.2      1.830      8.967
REMARK  Name = 
REMARK  22 active torsions:
REMARK  status: ('A' for Active; 'I' for Inactive)
REMARK    1  A    between atoms: C_1  and  C_2
REMARK    2  A    between atoms: C_3  and  O_61
REMARK    3  A    between atoms: C_5  and  O_60
REMARK    4  A    between atoms: C_7  and  O_59
REMARK    5  A    between atoms: C_8  and  O_11
REMARK    6  A    between atoms: O_11  and  C_12
REMARK    7  A    between atoms: C_12  and  C_13
REMARK    8  A    between atoms: C_14  and  O_58
REMARK    9  A    between atoms: C_16  and  O_57
REMARK   10  A    between atoms: C_17  and  O_56
REMARK   11  A    between atoms: C_18  and  O_21
REMARK   12  A    between atoms: O_21  and  C_22
REMARK   13  A    between atoms: C_23  and  C_48
REMARK   14  A    between atoms: C_27  and  O_34
REMARK   15  A    between atoms: C_29  and  O_33
REMARK   16  A    between atoms: O_34  and  C_35
REMARK   17  A    between atoms: C_37  and  O_47
REMARK   18  A    between atoms: C_38  and  O_46
REMARK   19  A    between atoms: C_40  and  O_45
REMARK   20  A    between atoms: C_42  and  C_44
REMARK   21  A    between atoms: C_50  and  O_55
REMARK   22  A    between atoms: C_51  and  O_54
REMARK                            x       y       z     vdW  Elec       q    Type
REMARK                         _______ _______ _______ _____ _____    ______ ____
ROOT
ATOM      1  C   UNL     1       6.937   0.851  26.933  0.00  0.00    +0.214 A 
ATOM      2  C   UNL     1       7.642  -0.470  27.133  0.00  0.00    +0.238 A 
ATOM      3  O   UNL     1       8.784  -0.498  27.582  0.00  0.00    -0.283 OA
ATOM      4  C   UNL     1       6.829  -1.697  26.814  0.00  0.00    +0.109 A 
ATOM      5  C   UNL     1       5.444  -1.561  26.851  0.00  0.00    +0.147 A 
ATOM      6  C   UNL     1       4.547  -2.599  26.544  0.00  0.00    +0.093 A 
ATOM      7  C   UNL     1       5.025  -3.833  26.117  0.00  0.00    +0.131 A 
ATOM      8  C   UNL     1       6.417  -4.000  26.115  0.00  0.00    +0.092 A 
ATOM      9  O   UNL     1       4.876  -0.391  27.240  0.00  0.00    -0.451 OA
ATOM     10  C   UNL     1       7.297  -2.958  26.489  0.00  0.00    +0.135 A 
ATOM     11  C   UNL     1       5.586   0.754  26.969  0.00  0.00    +0.181 A 
ENDROOT
BRANCH  11  12
ATOM     12  C   UNL     1       4.624   1.792  26.581  0.00  0.00    +0.025 A 
ATOM     13  C   UNL     1       4.271   2.754  27.544  0.00  0.00    +0.015 A 
ATOM     14  C   UNL     1       3.511   3.871  27.197  0.00  0.00    +0.050 A 
ATOM     15  C   UNL     1       3.203   4.081  25.859  0.00  0.00    +0.158 A 
ATOM     16  C   UNL     1       3.641   3.188  24.884  0.00  0.00    +0.159 A 
ATOM     17  C   UNL     1       4.321   2.030  25.236  0.00  0.00    +0.060 A 
BRANCH  16  18
ATOM     18  O   UNL     1       3.494   3.455  23.552  0.00  0.00    -0.503 OA
ATOM     19  H   UNL     1       4.368   3.317  23.148  0.00  0.00    +0.292 HD
ENDBRANCH  16  18
BRANCH  15  20
ATOM     20  O   UNL     1       2.550   5.215  25.478  0.00  0.00    -0.503 OA
ATOM     21  H   UNL     1       2.989   5.503  24.657  0.00  0.00    +0.292 HD
ENDBRANCH  15  20
ENDBRANCH  11  12
BRANCH  10  22
ATOM     22  O   UNL     1       8.624  -3.214  26.525  0.00  0.00    -0.506 OA
ATOM     23  H   UNL     1       8.928  -3.494  25.642  0.00  0.00    +0.292 HD
ENDBRANCH  10  22
BRANCH   7  24
ATOM     24  O   UNL     1       4.241  -4.886  25.667  0.00  0.00    -0.461 OA
BRANCH  24  25
ATOM     25  C   UNL     1       3.099  -4.530  24.849  0.00  0.00    +0.339 C 
ATOM     26  O   UNL     1       1.872  -4.820  25.523  0.00  0.00    -0.334 OA
ATOM     27  C   UNL     1       1.667  -6.228  25.713  0.00  0.00    +0.150 C 
ATOM     28  C   UNL     1       0.445  -6.389  26.606  0.00  0.00    +0.041 C 
ATOM     29  C   UNL     1       1.487  -6.936  24.359  0.00  0.00    +0.174 C 
ATOM     30  C   UNL     1       2.700  -6.676  23.444  0.00  0.00    +0.180 C 
ATOM     31  C   UNL     1       3.063  -5.182  23.437  0.00  0.00    +0.214 C 
BRANCH  31  32
ATOM     32  O   UNL     1       4.236  -4.910  22.671  0.00  0.00    -0.383 OA
ATOM     33  H   UNL     1       4.311  -3.943  22.581  0.00  0.00    +0.210 HD
ENDBRANCH  31  32
BRANCH  30  34
ATOM     34  O   UNL     1       3.811  -7.509  23.808  0.00  0.00    -0.386 OA
ATOM     35  H   UNL     1       3.530  -8.125  24.505  0.00  0.00    +0.210 HD
ENDBRANCH  30  34
BRANCH  29  36
ATOM     36  O   UNL     1       1.284  -8.338  24.550  0.00  0.00    -0.387 OA
ATOM     37  H   UNL     1       0.372  -8.465  24.874  0.00  0.00    +0.210 HD
ENDBRANCH  29  36
ENDBRANCH  24  25
ENDBRANCH   7  24
BRANCH   1  38
ATOM     38  O   UNL     1       7.563   2.073  26.801  0.00  0.00    -0.453 OA
BRANCH  38  41
ATOM     39  C   UNL     1       9.133   3.581  23.736  0.00  0.00    +0.179 C 
ATOM     40  O   UNL     1       8.908   2.715  24.872  0.00  0.00    -0.331 OA
ATOM     41  C   UNL     1       7.679   2.861  25.591  0.00  0.00    +0.340 C 
ATOM     42  C   UNL     1       7.207   4.323  25.831  0.00  0.00    +0.214 C 
ATOM     43  C   UNL     1       7.226   5.074  24.492  0.00  0.00    +0.180 C 
ATOM     44  C   UNL     1       8.665   5.052  23.955  0.00  0.00    +0.177 C 
BRANCH  44  45
ATOM     45  O   UNL     1       8.745   5.817  22.747  0.00  0.00    -0.386 OA
ATOM     46  H   UNL     1       7.980   5.580  22.192  0.00  0.00    +0.210 HD
ENDBRANCH  44  45
BRANCH  43  47
ATOM     47  O   UNL     1       6.751   6.418  24.664  0.00  0.00    -0.386 OA
ATOM     48  H   UNL     1       7.526   6.964  24.889  0.00  0.00    +0.210 HD
ENDBRANCH  43  47
BRANCH  42  49
ATOM     49  O   UNL     1       8.005   5.068  26.766  0.00  0.00    -0.383 OA
ATOM     50  H   UNL     1       8.914   5.155  26.401  0.00  0.00    +0.210 HD
ENDBRANCH  42  49
BRANCH  39  51
ATOM     51  C   UNL     1       8.609   3.033  22.370  0.00  0.00    +0.197 C 
BRANCH  51  52
ATOM     52  O   UNL     1       7.574   2.057  22.414  0.00  0.00    -0.346 OA
BRANCH  52  56
ATOM     53  C   UNL     1       6.284  -2.046  22.673  0.00  0.00    +0.041 C 
ATOM     54  C   UNL     1       7.398  -1.397  23.486  0.00  0.00    +0.149 C 
ATOM     55  O   UNL     1       7.307   0.030  23.392  0.00  0.00    -0.343 OA
ATOM     56  C   UNL     1       7.823   0.670  22.206  0.00  0.00    +0.282 C 
ATOM     57  C   UNL     1       9.308   0.262  22.050  0.00  0.00    +0.201 C 
ATOM     58  C   UNL     1       9.344  -1.271  21.873  0.00  0.00    +0.179 C 
ATOM     59  C   UNL     1       8.781  -1.968  23.120  0.00  0.00    +0.174 C 
BRANCH  59  60
ATOM     60  O   UNL     1       9.687  -1.835  24.224  0.00  0.00    -0.387 OA
ATOM     61  H   UNL     1       9.511  -2.591  24.827  0.00  0.00    +0.210 HD
ENDBRANCH  59  60
BRANCH  58  62
ATOM     62  O   UNL     1      10.674  -1.722  21.573  0.00  0.00    -0.386 OA
ATOM     63  H   UNL     1      10.673  -2.701  21.650  0.00  0.00    +0.210 HD
ENDBRANCH  58  62
BRANCH  57  64
ATOM     64  O   UNL     1      10.068   0.636  23.223  0.00  0.00    -0.384 OA
ATOM     65  H   UNL     1       9.420   0.936  23.893  0.00  0.00    +0.210 HD
ENDBRANCH  57  64
ENDBRANCH  52  56
ENDBRANCH  51  52
ENDBRANCH  39  51
ENDBRANCH  38  41
ENDBRANCH   1  38
TORSDOF 20
ENDMDL
MODEL 6
REMARK VINA RESULT:      -7.2      2.451      9.319
REMARK  Name = 
REMARK  22 active torsions:
REMARK  status: ('A' for Active; 'I' for Inactive)
REMARK    1  A    between atoms: C_1  and  C_2
REMARK    2  A    between atoms: C_3  and  O_61
REMARK    3  A    between atoms: C_5  and  O_60
REMARK    4  A    between atoms: C_7  and  O_59
REMARK    5  A    between atoms: C_8  and  O_11
REMARK    6  A    between atoms: O_11  and  C_12
REMARK    7  A    between atoms: C_12  and  C_13
REMARK    8  A    between atoms: C_14  and  O_58
REMARK    9  A    between atoms: C_16  and  O_57
REMARK   10  A    between atoms: C_17  and  O_56
REMARK   11  A    between atoms: C_18  and  O_21
REMARK   12  A    between atoms: O_21  and  C_22
REMARK   13  A    between atoms: C_23  and  C_48
REMARK   14  A    between atoms: C_27  and  O_34
REMARK   15  A    between atoms: C_29  and  O_33
REMARK   16  A    between atoms: O_34  and  C_35
REMARK   17  A    between atoms: C_37  and  O_47
REMARK   18  A    between atoms: C_38  and  O_46
REMARK   19  A    between atoms: C_40  and  O_45
REMARK   20  A    between atoms: C_42  and  C_44
REMARK   21  A    between atoms: C_50  and  O_55
REMARK   22  A    between atoms: C_51  and  O_54
REMARK                            x       y       z     vdW  Elec       q    Type
REMARK                         _______ _______ _______ _____ _____    ______ ____
ROOT
ATOM      1  C   UNL     1       7.151  -1.618  26.178  0.00  0.00    +0.214 A 
ATOM      2  C   UNL     1       7.763  -2.796  25.458  0.00  0.00    +0.238 A 
ATOM      3  O   UNL     1       8.958  -2.794  25.177  0.00  0.00    -0.283 OA
ATOM      4  C   UNL     1       6.835  -3.952  25.192  0.00  0.00    +0.109 A 
ATOM      5  C   UNL     1       5.715  -4.060  26.012  0.00  0.00    +0.147 A 
ATOM      6  C   UNL     1       4.736  -5.059  25.870  0.00  0.00    +0.093 A 
ATOM      7  C   UNL     1       4.818  -5.978  24.829  0.00  0.00    +0.131 A 
ATOM      8  C   UNL     1       5.961  -5.908  24.020  0.00  0.00    +0.092 A 
ATOM      9  O   UNL     1       5.533  -3.203  27.048  0.00  0.00    -0.451 OA
ATOM     10  C   UNL     1       6.964  -4.932  24.223  0.00  0.00    +0.135 A 
ATOM     11  C   UNL     1       6.043  -1.937  26.891  0.00  0.00    +0.181 A 
ENDROOT
BRANCH  11  12
ATOM     12  C   UNL     1       5.095  -0.997  27.500  0.00  0.00    +0.025 A 
ATOM     13  C   UNL     1       5.593  -0.078  28.441  0.00  0.00    +0.015 A 
ATOM     14  C   UNL     1       4.795   0.960  28.922  0.00  0.00    +0.050 A 
ATOM     15  C   UNL     1       3.532   1.143  28.370  0.00  0.00    +0.158 A 
ATOM     16  C   UNL     1       3.072   0.301  27.361  0.00  0.00    +0.159 A 
ATOM     17  C   UNL     1       3.829  -0.785  26.943  0.00  0.00    +0.060 A 
BRANCH  16  18
ATOM     18  O   UNL     1       1.910   0.558  26.691  0.00  0.00    -0.503 OA
ATOM     19  H   UNL     1       1.194   0.477  27.345  0.00  0.00    +0.292 HD
ENDBRANCH  16  18
BRANCH  15  20
ATOM     20  O   UNL     1       2.771   2.209  28.748  0.00  0.00    -0.503 OA
ATOM     21  H   UNL     1       1.918   2.092  28.291  0.00  0.00    +0.292 HD
ENDBRANCH  15  20
ENDBRANCH  11  12
BRANCH  10  22
ATOM     22  O   UNL     1       8.069  -4.968  23.445  0.00  0.00    -0.506 OA
ATOM     23  H   UNL     1       8.091  -5.806  22.946  0.00  0.00    +0.292 HD
ENDBRANCH  10  22
BRANCH   7  24
ATOM     24  O   UNL     1       3.852  -6.922  24.513  0.00  0.00    -0.461 OA
BRANCH  24  25
ATOM     25  C   UNL     1       2.494  -6.607  24.910  0.00  0.00    +0.339 C 
ATOM     26  O   UNL     1       1.864  -7.732  25.528  0.00  0.00    -0.334 OA
ATOM     27  C   UNL     1       1.657  -8.819  24.614  0.00  0.00    +0.150 C 
ATOM     28  C   UNL     1       1.171 -10.008  25.431  0.00  0.00    +0.041 C 
ATOM     29  C   UNL     1       0.648  -8.422  23.522  0.00  0.00    +0.174 C 
ATOM     30  C   UNL     1       1.123  -7.160  22.775  0.00  0.00    +0.180 C 
ATOM     31  C   UNL     1       1.574  -6.079  23.771  0.00  0.00    +0.214 C 
BRANCH  31  32
ATOM     32  O   UNL     1       2.106  -4.925  23.120  0.00  0.00    -0.383 OA
ATOM     33  H   UNL     1       2.420  -4.315  23.812  0.00  0.00    +0.210 HD
ENDBRANCH  31  32
BRANCH  30  34
ATOM     34  O   UNL     1       2.141  -7.479  21.814  0.00  0.00    -0.386 OA
ATOM     35  H   UNL     1       1.785  -7.345  20.920  0.00  0.00    +0.210 HD
ENDBRANCH  30  34
BRANCH  29  36
ATOM     36  O   UNL     1       0.443  -9.505  22.612  0.00  0.00    -0.387 OA
ATOM     37  H   UNL     1      -0.519  -9.652  22.536  0.00  0.00    +0.210 HD
ENDBRANCH  29  36
ENDBRANCH  24  25
ENDBRANCH   7  24
BRANCH   1  38
ATOM     38  O   UNL     1       7.673  -0.341  26.201  0.00  0.00    -0.453 OA
BRANCH  38  41
ATOM     39  C   UNL     1       7.644   0.838  22.631  0.00  0.00    +0.179 C 
ATOM     40  O   UNL     1       7.309   0.106  23.832  0.00  0.00    -0.331 OA
ATOM     41  C   UNL     1       7.929   0.510  25.057  0.00  0.00    +0.340 C 
ATOM     42  C   UNL     1       9.439   0.873  24.961  0.00  0.00    +0.214 C 
ATOM     43  C   UNL     1       9.633   1.877  23.816  0.00  0.00    +0.180 C 
ATOM     44  C   UNL     1       9.153   1.214  22.516  0.00  0.00    +0.177 C 
BRANCH  44  45
ATOM     45  O   UNL     1       9.396   2.086  21.407  0.00  0.00    -0.386 OA
ATOM     46  H   UNL     1       9.544   2.983  21.758  0.00  0.00    +0.210 HD
ENDBRANCH  44  45
BRANCH  43  47
ATOM     47  O   UNL     1      11.009   2.274  23.724  0.00  0.00    -0.386 OA
ATOM     48  H   UNL     1      11.017   3.190  23.393  0.00  0.00    +0.210 HD
ENDBRANCH  43  47
BRANCH  42  49
ATOM     49  O   UNL     1      10.313  -0.243  24.723  0.00  0.00    -0.383 OA
ATOM     50  H   UNL     1      10.537  -0.654  25.588  0.00  0.00    +0.210 HD
ENDBRANCH  42  49
BRANCH  39  51
ATOM     51  C   UNL     1       6.742   2.079  22.337  0.00  0.00    +0.197 C 
BRANCH  51  52
ATOM     52  O   UNL     1       6.161   2.741  23.456  0.00  0.00    -0.346 OA
BRANCH  52  56
ATOM     53  C   UNL     1       4.183   6.554  23.778  0.00  0.00    +0.041 C 
ATOM     54  C   UNL     1       5.069   6.091  22.627  0.00  0.00    +0.149 C 
ATOM     55  O   UNL     1       5.255   4.672  22.692  0.00  0.00    -0.343 OA
ATOM     56  C   UNL     1       6.226   4.153  23.625  0.00  0.00    +0.282 C 
ATOM     57  C   UNL     1       7.590   4.814  23.313  0.00  0.00    +0.201 C 
ATOM     58  C   UNL     1       7.422   6.334  23.526  0.00  0.00    +0.179 C 
ATOM     59  C   UNL     1       6.378   6.899  22.553  0.00  0.00    +0.174 C 
BRANCH  59  60
ATOM     60  O   UNL     1       6.889   6.903  21.213  0.00  0.00    -0.387 OA
ATOM     61  H   UNL     1       6.113   6.840  20.613  0.00  0.00    +0.210 HD
ENDBRANCH  59  60
BRANCH  58  62
ATOM     62  O   UNL     1       8.681   7.012  23.401  0.00  0.00    -0.386 OA
ATOM     63  H   UNL     1       8.914   7.017  22.447  0.00  0.00    +0.210 HD
ENDBRANCH  58  62
BRANCH  57  64
ATOM     64  O   UNL     1       7.984   4.554  21.945  0.00  0.00    -0.384 OA
ATOM     65  H   UNL     1       7.169   4.601  21.404  0.00  0.00    +0.210 HD
ENDBRANCH  57  64
ENDBRANCH  52  56
ENDBRANCH  51  52
ENDBRANCH  39  51
ENDBRANCH  38  41
ENDBRANCH   1  38
TORSDOF 20
ENDMDL
MODEL 7
REMARK VINA RESULT:      -7.1      2.275      9.341
REMARK  Name = 
REMARK  22 active torsions:
REMARK  status: ('A' for Active; 'I' for Inactive)
REMARK    1  A    between atoms: C_1  and  C_2
REMARK    2  A    between atoms: C_3  and  O_61
REMARK    3  A    between atoms: C_5  and  O_60
REMARK    4  A    between atoms: C_7  and  O_59
REMARK    5  A    between atoms: C_8  and  O_11
REMARK    6  A    between atoms: O_11  and  C_12
REMARK    7  A    between atoms: C_12  and  C_13
REMARK    8  A    between atoms: C_14  and  O_58
REMARK    9  A    between atoms: C_16  and  O_57
REMARK   10  A    between atoms: C_17  and  O_56
REMARK   11  A    between atoms: C_18  and  O_21
REMARK   12  A    between atoms: O_21  and  C_22
REMARK   13  A    between atoms: C_23  and  C_48
REMARK   14  A    between atoms: C_27  and  O_34
REMARK   15  A    between atoms: C_29  and  O_33
REMARK   16  A    between atoms: O_34  and  C_35
REMARK   17  A    between atoms: C_37  and  O_47
REMARK   18  A    between atoms: C_38  and  O_46
REMARK   19  A    between atoms: C_40  and  O_45
REMARK   20  A    between atoms: C_42  and  C_44
REMARK   21  A    between atoms: C_50  and  O_55
REMARK   22  A    between atoms: C_51  and  O_54
REMARK                            x       y       z     vdW  Elec       q    Type
REMARK                         _______ _______ _______ _____ _____    ______ ____
ROOT
ATOM      1  C   UNL     1       7.519  -1.101  26.252  0.00  0.00    +0.214 A 
ATOM      2  C   UNL     1       8.179  -2.363  25.749  0.00  0.00    +0.238 A 
ATOM      3  O   UNL     1       9.395  -2.397  25.578  0.00  0.00    -0.283 OA
ATOM      4  C   UNL     1       7.265  -3.544  25.554  0.00  0.00    +0.109 A 
ATOM      5  C   UNL     1       6.076  -3.545  26.278  0.00  0.00    +0.147 A 
ATOM      6  C   UNL     1       5.102  -4.554  26.181  0.00  0.00    +0.093 A 
ATOM      7  C   UNL     1       5.265  -5.601  25.280  0.00  0.00    +0.131 A 
ATOM      8  C   UNL     1       6.476  -5.637  24.575  0.00  0.00    +0.092 A 
ATOM      9  O   UNL     1       5.812  -2.560  27.174  0.00  0.00    -0.451 OA
ATOM     10  C   UNL     1       7.469  -4.642  24.737  0.00  0.00    +0.135 A 
ATOM     11  C   UNL     1       6.349  -1.324  26.899  0.00  0.00    +0.181 A 
ENDROOT
BRANCH  11  12
ATOM     12  C   UNL     1       5.361  -0.314  27.294  0.00  0.00    +0.025 A 
ATOM     13  C   UNL     1       5.469   0.243  28.581  0.00  0.00    +0.015 A 
ATOM     14  C   UNL     1       4.686   1.334  28.959  0.00  0.00    +0.050 A 
ATOM     15  C   UNL     1       3.878   1.939  28.003  0.00  0.00    +0.158 A 
ATOM     16  C   UNL     1       3.846   1.460  26.696  0.00  0.00    +0.159 A 
ATOM     17  C   UNL     1       4.557   0.321  26.341  0.00  0.00    +0.060 A 
BRANCH  16  18
ATOM     18  O   UNL     1       3.191   2.132  25.705  0.00  0.00    -0.503 OA
ATOM     19  H   UNL     1       2.309   2.346  26.057  0.00  0.00    +0.292 HD
ENDBRANCH  16  18
BRANCH  15  20
ATOM     20  O   UNL     1       3.180   3.068  28.317  0.00  0.00    -0.503 OA
ATOM     21  H   UNL     1       3.099   3.561  27.480  0.00  0.00    +0.292 HD
ENDBRANCH  15  20
ENDBRANCH  11  12
BRANCH  10  22
ATOM     22  O   UNL     1       8.637  -4.780  24.072  0.00  0.00    -0.506 OA
ATOM     23  H   UNL     1       8.477  -5.213  23.213  0.00  0.00    +0.292 HD
ENDBRANCH  10  22
BRANCH   7  24
ATOM     24  O   UNL     1       4.320  -6.579  25.005  0.00  0.00    -0.461 OA
BRANCH  24  25
ATOM     25  C   UNL     1       2.948  -6.128  24.888  0.00  0.00    +0.339 C 
ATOM     26  O   UNL     1       2.413  -5.769  26.165  0.00  0.00    -0.334 OA
ATOM     27  C   UNL     1       2.277  -6.896  27.043  0.00  0.00    +0.150 C 
ATOM     28  C   UNL     1       1.895  -6.357  28.414  0.00  0.00    +0.041 C 
ATOM     29  C   UNL     1       1.227  -7.881  26.499  0.00  0.00    +0.174 C 
ATOM     30  C   UNL     1       1.595  -8.336  25.073  0.00  0.00    +0.180 C 
ATOM     31  C   UNL     1       1.975  -7.129  24.200  0.00  0.00    +0.214 C 
BRANCH  31  32
ATOM     32  O   UNL     1       2.409  -7.514  22.896  0.00  0.00    -0.383 OA
ATOM     33  H   UNL     1       2.380  -8.487  22.852  0.00  0.00    +0.210 HD
ENDBRANCH  31  32
BRANCH  30  34
ATOM     34  O   UNL     1       2.621  -9.340  25.099  0.00  0.00    -0.386 OA
ATOM     35  H   UNL     1       2.779  -9.608  26.019  0.00  0.00    +0.210 HD
ENDBRANCH  30  34
BRANCH  29  36
ATOM     36  O   UNL     1       1.093  -9.003  27.373  0.00  0.00    -0.387 OA
ATOM     37  H   UNL     1       1.001  -9.802  26.820  0.00  0.00    +0.210 HD
ENDBRANCH  29  36
ENDBRANCH  24  25
ENDBRANCH   7  24
BRANCH   1  38
ATOM     38  O   UNL     1       8.052   0.168  26.155  0.00  0.00    -0.453 OA
BRANCH  38  41
ATOM     39  C   UNL     1       8.196   0.921  22.475  0.00  0.00    +0.179 C 
ATOM     40  O   UNL     1       7.838   0.300  23.731  0.00  0.00    -0.331 OA
ATOM     41  C   UNL     1       8.315   0.905  24.937  0.00  0.00    +0.340 C 
ATOM     42  C   UNL     1       9.785   1.414  24.901  0.00  0.00    +0.214 C 
ATOM     43  C   UNL     1       9.972   2.295  23.658  0.00  0.00    +0.180 C 
ATOM     44  C   UNL     1       9.665   1.440  22.419  0.00  0.00    +0.177 C 
BRANCH  44  45
ATOM     45  O   UNL     1       9.911   2.201  21.231  0.00  0.00    -0.386 OA
ATOM     46  H   UNL     1       9.084   2.657  20.991  0.00  0.00    +0.210 HD
ENDBRANCH  44  45
BRANCH  43  47
ATOM     47  O   UNL     1      11.306   2.823  23.613  0.00  0.00    -0.386 OA
ATOM     48  H   UNL     1      11.507   3.157  24.507  0.00  0.00    +0.210 HD
ENDBRANCH  43  47
BRANCH  42  49
ATOM     49  O   UNL     1      10.780   0.377  24.861  0.00  0.00    -0.383 OA
ATOM     50  H   UNL     1      10.944   0.066  25.780  0.00  0.00    +0.210 HD
ENDBRANCH  42  49
BRANCH  39  51
ATOM     51  C   UNL     1       7.204   2.018  21.971  0.00  0.00    +0.197 C 
BRANCH  51  52
ATOM     52  O   UNL     1       6.156   2.403  22.854  0.00  0.00    -0.346 OA
BRANCH  52  56
ATOM     53  C   UNL     1       7.591   4.641  26.245  0.00  0.00    +0.041 C 
ATOM     54  C   UNL     1       6.156   4.184  26.007  0.00  0.00    +0.149 C 
ATOM     55  O   UNL     1       6.125   3.183  24.982  0.00  0.00    -0.343 OA
ATOM     56  C   UNL     1       6.198   3.612  23.606  0.00  0.00    +0.282 C 
ATOM     57  C   UNL     1       5.041   4.610  23.355  0.00  0.00    +0.201 C 
ATOM     58  C   UNL     1       5.266   5.816  24.290  0.00  0.00    +0.179 C 
ATOM     59  C   UNL     1       5.211   5.373  25.759  0.00  0.00    +0.174 C 
BRANCH  59  60
ATOM     60  O   UNL     1       3.868   5.032  26.131  0.00  0.00    -0.387 OA
ATOM     61  H   UNL     1       3.839   5.026  27.114  0.00  0.00    +0.210 HD
ENDBRANCH  59  60
BRANCH  58  62
ATOM     62  O   UNL     1       4.319   6.861  24.018  0.00  0.00    -0.386 OA
ATOM     63  H   UNL     1       4.505   7.591  24.647  0.00  0.00    +0.210 HD
ENDBRANCH  58  62
BRANCH  57  64
ATOM     64  O   UNL     1       3.764   3.996  23.647  0.00  0.00    -0.384 OA
ATOM     65  H   UNL     1       3.615   3.315  22.960  0.00  0.00    +0.210 HD
ENDBRANCH  57  64
ENDBRANCH  52  56
ENDBRANCH  51  52
ENDBRANCH  39  51
ENDBRANCH  38  41
ENDBRANCH   1  38
TORSDOF 20
ENDMDL
MODEL 8
REMARK VINA RESULT:      -7.0      2.515      6.807
REMARK  Name = 
REMARK  22 active torsions:
REMARK  status: ('A' for Active; 'I' for Inactive)
REMARK    1  A    between atoms: C_1  and  C_2
REMARK    2  A    between atoms: C_3  and  O_61
REMARK    3  A    between atoms: C_5  and  O_60
REMARK    4  A    between atoms: C_7  and  O_59
REMARK    5  A    between atoms: C_8  and  O_11
REMARK    6  A    between atoms: O_11  and  C_12
REMARK    7  A    between atoms: C_12  and  C_13
REMARK    8  A    between atoms: C_14  and  O_58
REMARK    9  A    between atoms: C_16  and  O_57
REMARK   10  A    between atoms: C_17  and  O_56
REMARK   11  A    between atoms: C_18  and  O_21
REMARK   12  A    between atoms: O_21  and  C_22
REMARK   13  A    between atoms: C_23  and  C_48
REMARK   14  A    between atoms: C_27  and  O_34
REMARK   15  A    between atoms: C_29  and  O_33
REMARK   16  A    between atoms: O_34  and  C_35
REMARK   17  A    between atoms: C_37  and  O_47
REMARK   18  A    between atoms: C_38  and  O_46
REMARK   19  A    between atoms: C_40  and  O_45
REMARK   20  A    between atoms: C_42  and  C_44
REMARK   21  A    between atoms: C_50  and  O_55
REMARK   22  A    between atoms: C_51  and  O_54
REMARK                            x       y       z     vdW  Elec       q    Type
REMARK                         _______ _______ _______ _____ _____    ______ ____
ROOT
ATOM      1  C   UNL     1       9.355  -1.011  23.560  0.00  0.00    +0.214 A 
ATOM      2  C   UNL     1      10.047   0.328  23.451  0.00  0.00    +0.238 A 
ATOM      3  O   UNL     1      11.255   0.415  23.650  0.00  0.00    -0.283 OA
ATOM      4  C   UNL     1       9.175   1.480  23.027  0.00  0.00    +0.109 A 
ATOM      5  C   UNL     1       8.014   1.165  22.325  0.00  0.00    +0.147 A 
ATOM      6  C   UNL     1       7.079   2.122  21.891  0.00  0.00    +0.093 A 
ATOM      7  C   UNL     1       7.251   3.464  22.209  0.00  0.00    +0.131 A 
ATOM      8  C   UNL     1       8.436   3.802  22.879  0.00  0.00    +0.092 A 
ATOM      9  O   UNL     1       7.744  -0.119  21.978  0.00  0.00    -0.451 OA
ATOM     10  C   UNL     1       9.392   2.829  23.249  0.00  0.00    +0.135 A 
ATOM     11  C   UNL     1       8.220  -1.093  22.823  0.00  0.00    +0.181 A 
ENDROOT
BRANCH  11  12
ATOM     12  C   UNL     1       7.207  -2.153  22.893  0.00  0.00    +0.025 A 
ATOM     13  C   UNL     1       6.091  -1.941  23.722  0.00  0.00    +0.015 A 
ATOM     14  C   UNL     1       5.004  -2.815  23.698  0.00  0.00    +0.050 A 
ATOM     15  C   UNL     1       4.989  -3.837  22.757  0.00  0.00    +0.158 A 
ATOM     16  C   UNL     1       6.043  -3.989  21.860  0.00  0.00    +0.159 A 
ATOM     17  C   UNL     1       7.165  -3.176  21.939  0.00  0.00    +0.060 A 
BRANCH  16  18
ATOM     18  O   UNL     1       5.977  -4.878  20.824  0.00  0.00    -0.503 OA
ATOM     19  H   UNL     1       6.285  -5.731  21.177  0.00  0.00    +0.292 HD
ENDBRANCH  16  18
BRANCH  15  20
ATOM     20  O   UNL     1       3.895  -4.643  22.643  0.00  0.00    -0.503 OA
ATOM     21  H   UNL     1       3.721  -4.708  21.686  0.00  0.00    +0.292 HD
ENDBRANCH  15  20
ENDBRANCH  11  12
BRANCH  10  22
ATOM     22  O   UNL     1      10.540   3.239  23.833  0.00  0.00    -0.506 OA
ATOM     23  H   UNL     1      11.276   3.163  23.199  0.00  0.00    +0.292 HD
ENDBRANCH  10  22
BRANCH   7  24
ATOM     24  O   UNL     1       6.337   4.475  21.948  0.00  0.00    -0.461 OA
BRANCH  24  25
ATOM     25  C   UNL     1       5.755   5.126  23.105  0.00  0.00    +0.339 C 
ATOM     26  O   UNL     1       5.547   4.194  24.170  0.00  0.00    -0.334 OA
ATOM     27  C   UNL     1       4.550   3.211  23.855  0.00  0.00    +0.150 C 
ATOM     28  C   UNL     1       4.569   2.176  24.972  0.00  0.00    +0.041 C 
ATOM     29  C   UNL     1       3.168   3.871  23.706  0.00  0.00    +0.174 C 
ATOM     30  C   UNL     1       3.207   4.977  22.634  0.00  0.00    +0.180 C 
ATOM     31  C   UNL     1       4.426   5.890  22.840  0.00  0.00    +0.214 C 
BRANCH  31  32
ATOM     32  O   UNL     1       4.550   6.876  21.815  0.00  0.00    -0.383 OA
ATOM     33  H   UNL     1       5.458   7.225  21.850  0.00  0.00    +0.210 HD
ENDBRANCH  31  32
BRANCH  30  34
ATOM     34  O   UNL     1       3.157   4.418  21.312  0.00  0.00    -0.386 OA
ATOM     35  H   UNL     1       2.348   3.889  21.222  0.00  0.00    +0.210 HD
ENDBRANCH  30  34
BRANCH  29  36
ATOM     36  O   UNL     1       2.177   2.891  23.392  0.00  0.00    -0.387 OA
ATOM     37  H   UNL     1       1.473   2.953  24.066  0.00  0.00    +0.210 HD
ENDBRANCH  29  36
ENDBRANCH  24  25
ENDBRANCH   7  24
BRANCH   1  38
ATOM     38  O   UNL     1       9.831  -2.097  24.263  0.00  0.00    -0.453 OA
BRANCH  38  41
ATOM     39  C   UNL     1       8.024  -3.754  27.113  0.00  0.00    +0.179 C 
ATOM     40  O   UNL     1       8.690  -2.747  26.316  0.00  0.00    -0.331 OA
ATOM     41  C   UNL     1       9.042  -3.084  24.970  0.00  0.00    +0.340 C 
ATOM     42  C   UNL     1       9.621  -4.513  24.762  0.00  0.00    +0.214 C 
ATOM     43  C   UNL     1       8.678  -5.529  25.421  0.00  0.00    +0.180 C 
ATOM     44  C   UNL     1       8.589  -5.194  26.917  0.00  0.00    +0.177 C 
BRANCH  44  45
ATOM     45  O   UNL     1       7.784  -6.172  27.586  0.00  0.00    -0.386 OA
ATOM     46  H   UNL     1       7.774  -5.953  28.536  0.00  0.00    +0.210 HD
ENDBRANCH  44  45
BRANCH  43  47
ATOM     47  O   UNL     1       9.154  -6.867  25.210  0.00  0.00    -0.386 OA
ATOM     48  H   UNL     1       8.754  -7.181  24.379  0.00  0.00    +0.210 HD
ENDBRANCH  43  47
BRANCH  42  49
ATOM     49  O   UNL     1      10.937  -4.714  25.307  0.00  0.00    -0.383 OA
ATOM     50  H   UNL     1      11.307  -3.839  25.562  0.00  0.00    +0.210 HD
ENDBRANCH  42  49
BRANCH  39  51
ATOM     51  C   UNL     1       6.465  -3.755  27.014  0.00  0.00    +0.197 C 
BRANCH  51  52
ATOM     52  O   UNL     1       5.866  -4.737  26.176  0.00  0.00    -0.346 OA
BRANCH  52  56
ATOM     53  C   UNL     1       1.903  -4.097  27.741  0.00  0.00    +0.041 C 
ATOM     54  C   UNL     1       2.905  -5.141  28.220  0.00  0.00    +0.149 C 
ATOM     55  O   UNL     1       4.213  -4.830  27.723  0.00  0.00    -0.343 OA
ATOM     56  C   UNL     1       4.526  -5.181  26.359  0.00  0.00    +0.282 C 
ATOM     57  C   UNL     1       4.283  -6.701  26.188  0.00  0.00    +0.201 C 
ATOM     58  C   UNL     1       2.786  -6.959  26.463  0.00  0.00    +0.179 C 
ATOM     59  C   UNL     1       2.432  -6.572  27.906  0.00  0.00    +0.174 C 
BRANCH  59  60
ATOM     60  O   UNL     1       3.008  -7.505  28.832  0.00  0.00    -0.387 OA
ATOM     61  H   UNL     1       2.832  -8.404  28.475  0.00  0.00    +0.210 HD
ENDBRANCH  59  60
BRANCH  58  62
ATOM     62  O   UNL     1       2.441  -8.324  26.182  0.00  0.00    -0.386 OA
ATOM     63  H   UNL     1       1.986  -8.335  25.312  0.00  0.00    +0.210 HD
ENDBRANCH  58  62
BRANCH  57  64
ATOM     64  O   UNL     1       5.089  -7.455  27.123  0.00  0.00    -0.384 OA
ATOM     65  H   UNL     1       5.988  -7.070  27.094  0.00  0.00    +0.210 HD
ENDBRANCH  57  64
ENDBRANCH  52  56
ENDBRANCH  51  52
ENDBRANCH  39  51
ENDBRANCH  38  41
ENDBRANCH   1  38
TORSDOF 20
ENDMDL
MODEL 9
REMARK VINA RESULT:      -7.0      2.231      9.379
REMARK  Name = 
REMARK  22 active torsions:
REMARK  status: ('A' for Active; 'I' for Inactive)
REMARK    1  A    between atoms: C_1  and  C_2
REMARK    2  A    between atoms: C_3  and  O_61
REMARK    3  A    between atoms: C_5  and  O_60
REMARK    4  A    between atoms: C_7  and  O_59
REMARK    5  A    between atoms: C_8  and  O_11
REMARK    6  A    between atoms: O_11  and  C_12
REMARK    7  A    between atoms: C_12  and  C_13
REMARK    8  A    between atoms: C_14  and  O_58
REMARK    9  A    between atoms: C_16  and  O_57
REMARK   10  A    between atoms: C_17  and  O_56
REMARK   11  A    between atoms: C_18  and  O_21
REMARK   12  A    between atoms: O_21  and  C_22
REMARK   13  A    between atoms: C_23  and  C_48
REMARK   14  A    between atoms: C_27  and  O_34
REMARK   15  A    between atoms: C_29  and  O_33
REMARK   16  A    between atoms: O_34  and  C_35
REMARK   17  A    between atoms: C_37  and  O_47
REMARK   18  A    between atoms: C_38  and  O_46
REMARK   19  A    between atoms: C_40  and  O_45
REMARK   20  A    between atoms: C_42  and  C_44
REMARK   21  A    between atoms: C_50  and  O_55
REMARK   22  A    between atoms: C_51  and  O_54
REMARK                            x       y       z     vdW  Elec       q    Type
REMARK                         _______ _______ _______ _____ _____    ______ ____
ROOT
ATOM      1  C   UNL     1       8.704  -1.544  25.052  0.00  0.00    +0.214 A 
ATOM      2  C   UNL     1       8.927  -2.790  24.227  0.00  0.00    +0.238 A 
ATOM      3  O   UNL     1       9.948  -2.909  23.554  0.00  0.00    -0.283 OA
ATOM      4  C   UNL     1       7.870  -3.855  24.355  0.00  0.00    +0.109 A 
ATOM      5  C   UNL     1       7.098  -3.838  25.513  0.00  0.00    +0.147 A 
ATOM      6  C   UNL     1       6.049  -4.740  25.766  0.00  0.00    +0.093 A 
ATOM      7  C   UNL     1       5.688  -5.682  24.809  0.00  0.00    +0.131 A 
ATOM      8  C   UNL     1       6.483  -5.739  23.656  0.00  0.00    +0.092 A 
ATOM      9  O   UNL     1       7.358  -2.948  26.504  0.00  0.00    -0.451 OA
ATOM     10  C   UNL     1       7.573  -4.861  23.452  0.00  0.00    +0.135 A 
ATOM     11  C   UNL     1       7.888  -1.740  26.116  0.00  0.00    +0.181 A 
ENDROOT
BRANCH  11  12
ATOM     12  C   UNL     1       7.292  -0.702  26.964  0.00  0.00    +0.025 A 
ATOM     13  C   UNL     1       5.893  -0.695  27.109  0.00  0.00    +0.015 A 
ATOM     14  C   UNL     1       5.273   0.140  28.039  0.00  0.00    +0.050 A 
ATOM     15  C   UNL     1       6.066   0.884  28.904  0.00  0.00    +0.158 A 
ATOM     16  C   UNL     1       7.455   0.801  28.838  0.00  0.00    +0.159 A 
ATOM     17  C   UNL     1       8.074   0.040  27.857  0.00  0.00    +0.060 A 
BRANCH  16  18
ATOM     18  O   UNL     1       8.251   1.391  29.778  0.00  0.00    -0.503 OA
ATOM     19  H   UNL     1       9.168   1.254  29.484  0.00  0.00    +0.292 HD
ENDBRANCH  16  18
BRANCH  15  20
ATOM     20  O   UNL     1       5.489   1.630  29.888  0.00  0.00    -0.503 OA
ATOM     21  H   UNL     1       5.049   0.987  30.474  0.00  0.00    +0.292 HD
ENDBRANCH  15  20
ENDBRANCH  11  12
BRANCH  10  22
ATOM     22  O   UNL     1       8.334  -5.020  22.346  0.00  0.00    -0.506 OA
ATOM     23  H   UNL     1       8.600  -4.146  22.003  0.00  0.00    +0.292 HD
ENDBRANCH  10  22
BRANCH   7  24
ATOM     24  O   UNL     1       4.596  -6.534  24.892  0.00  0.00    -0.461 OA
BRANCH  24  25
ATOM     25  C   UNL     1       3.290  -5.906  24.851  0.00  0.00    +0.339 C 
ATOM     26  O   UNL     1       2.872  -5.503  26.158  0.00  0.00    -0.334 OA
ATOM     27  C   UNL     1       2.634  -6.618  27.029  0.00  0.00    +0.150 C 
ATOM     28  C   UNL     1       2.394  -6.056  28.424  0.00  0.00    +0.041 C 
ATOM     29  C   UNL     1       1.438  -7.448  26.531  0.00  0.00    +0.174 C 
ATOM     30  C   UNL     1       1.671  -7.923  25.083  0.00  0.00    +0.180 C 
ATOM     31  C   UNL     1       2.162  -6.761  24.204  0.00  0.00    +0.214 C 
BRANCH  31  32
ATOM     32  O   UNL     1       2.476  -7.177  22.875  0.00  0.00    -0.383 OA
ATOM     33  H   UNL     1       1.688  -7.619  22.512  0.00  0.00    +0.210 HD
ENDBRANCH  31  32
BRANCH  30  34
ATOM     34  O   UNL     1       2.557  -9.052  25.045  0.00  0.00    -0.386 OA
ATOM     35  H   UNL     1       3.303  -8.850  24.455  0.00  0.00    +0.210 HD
ENDBRANCH  30  34
BRANCH  29  36
ATOM     36  O   UNL     1       1.202  -8.558  27.399  0.00  0.00    -0.387 OA
ATOM     37  H   UNL     1       1.975  -9.152  27.340  0.00  0.00    +0.210 HD
ENDBRANCH  29  36
ENDBRANCH  24  25
ENDBRANCH   7  24
BRANCH   1  38
ATOM     38  O   UNL     1       9.308  -0.325  24.829  0.00  0.00    -0.453 OA
BRANCH  38  41
ATOM     39  C   UNL     1       6.931   1.846  22.886  0.00  0.00    +0.179 C 
ATOM     40  O   UNL     1       7.522   0.684  23.512  0.00  0.00    -0.331 OA
ATOM     41  C   UNL     1       8.670   0.882  24.343  0.00  0.00    +0.340 C 
ATOM     42  C   UNL     1       9.724   1.892  23.807  0.00  0.00    +0.214 C 
ATOM     43  C   UNL     1       9.010   3.197  23.428  0.00  0.00    +0.180 C 
ATOM     44  C   UNL     1       7.972   2.873  22.344  0.00  0.00    +0.177 C 
BRANCH  44  45
ATOM     45  O   UNL     1       7.340   4.079  21.899  0.00  0.00    -0.386 OA
ATOM     46  H   UNL     1       7.152   4.625  22.684  0.00  0.00    +0.210 HD
ENDBRANCH  44  45
BRANCH  43  47
ATOM     47  O   UNL     1       9.957   4.174  22.972  0.00  0.00    -0.386 OA
ATOM     48  H   UNL     1      10.744   4.090  23.541  0.00  0.00    +0.210 HD
ENDBRANCH  43  47
BRANCH  42  49
ATOM     49  O   UNL     1      10.459   1.441  22.657  0.00  0.00    -0.383 OA
ATOM     50  H   UNL     1      10.805   2.229  22.179  0.00  0.00    +0.210 HD
ENDBRANCH  42  49
BRANCH  39  51
ATOM     51  C   UNL     1       5.832   2.568  23.730  0.00  0.00    +0.197 C 
BRANCH  51  52
ATOM     52  O   UNL     1       6.176   3.821  24.311  0.00  0.00    -0.346 OA
BRANCH  52  56
ATOM     53  C   UNL     1       3.658   5.883  27.134  0.00  0.00    +0.041 C 
ATOM     54  C   UNL     1       5.116   6.203  26.823  0.00  0.00    +0.149 C 
ATOM     55  O   UNL     1       5.511   5.557  25.606  0.00  0.00    -0.343 OA
ATOM     56  C   UNL     1       5.847   4.155  25.656  0.00  0.00    +0.282 C 
ATOM     57  C   UNL     1       6.976   3.970  26.699  0.00  0.00    +0.201 C 
ATOM     58  C   UNL     1       6.415   4.421  28.064  0.00  0.00    +0.179 C 
ATOM     59  C   UNL     1       6.034   5.908  28.023  0.00  0.00    +0.174 C 
BRANCH  59  60
ATOM     60  O   UNL     1       7.211   6.727  27.967  0.00  0.00    -0.387 OA
ATOM     61  H   UNL     1       7.611   6.708  28.865  0.00  0.00    +0.210 HD
ENDBRANCH  59  60
BRANCH  58  62
ATOM     62  O   UNL     1       7.349   4.145  29.119  0.00  0.00    -0.386 OA
ATOM     63  H   UNL     1       7.322   4.907  29.737  0.00  0.00    +0.210 HD
ENDBRANCH  58  62
BRANCH  57  64
ATOM     64  O   UNL     1       8.128   4.775  26.354  0.00  0.00    -0.384 OA
ATOM     65  H   UNL     1       8.526   5.071  27.198  0.00  0.00    +0.210 HD
ENDBRANCH  57  64
ENDBRANCH  52  56
ENDBRANCH  51  52
ENDBRANCH  39  51
ENDBRANCH  38  41
ENDBRANCH   1  38
TORSDOF 20
ENDMDL
