MODEL 1
REMARK VINA RESULT:      -7.7      0.000      0.000
REMARK  Name = 
REMARK  24 active torsions:
REMARK  status: ('A' for Active; 'I' for Inactive)
REMARK    1  A    between atoms: C_3  and  O_70
REMARK    2  A    between atoms: C_4  and  O_69
REMARK    3  A    between atoms: C_6  and  C_7
REMARK    4  A    between atoms: C_8  and  O_20
REMARK    5  A    between atoms: C_12  and  O_19
REMARK    6  A    between atoms: C_14  and  O_18
REMARK    7  A    between atoms: O_20  and  C_21
REMARK    8  A    between atoms: C_23  and  O_36
REMARK    9  A    between atoms: C_25  and  O_35
REMARK   10  A    between atoms: C_27  and  O_34
REMARK   11  A    between atoms: C_29  and  C_32
REMARK   12  A    between atoms: C_32  and  O_33
REMARK   13  A    between atoms: O_36  and  C_37
REMARK   14  A    between atoms: C_39  and  O_52
REMARK   15  A    between atoms: C_41  and  O_51
REMARK   16  A    between atoms: C_43  and  O_50
REMARK   17  A    between atoms: C_45  and  C_48
REMARK   18  A    between atoms: C_48  and  O_49
REMARK   19  A    between atoms: O_52  and  C_53
REMARK   20  A    between atoms: C_55  and  O_68
REMARK   21  A    between atoms: C_57  and  O_67
REMARK   22  A    between atoms: C_59  and  O_66
REMARK   23  A    between atoms: C_61  and  C_64
REMARK   24  A    between atoms: C_64  and  O_65
REMARK                            x       y       z     vdW  Elec       q    Type
REMARK                         _______ _______ _______ _____ _____    ______ ____
ROOT
ATOM      1  C   UNL     1       7.878  -0.135  24.490  0.00  0.00    +0.340 C 
ATOM      2  O   UNL     1       9.174  -0.413  25.003  0.00  0.00    -0.331 OA
ATOM      3  C   UNL     1      10.151  -0.772  24.062  0.00  0.00    +0.179 C 
ATOM      4  C   UNL     1       9.658  -1.929  23.161  0.00  0.00    +0.177 C 
ATOM      5  C   UNL     1       8.345  -1.653  22.459  0.00  0.00    +0.180 C 
ATOM      6  C   UNL     1       7.200  -1.367  23.451  0.00  0.00    +0.221 C 
ENDROOT
BRANCH   5   7
ATOM      7  O   UNL     1       8.543  -0.499  21.597  0.00  0.00    -0.386 OA
ATOM      8  H   UNL     1       9.476  -0.430  21.304  0.00  0.00    +0.210 HD
ENDBRANCH   5   7
BRANCH   4   9
ATOM      9  O   UNL     1       9.486  -3.108  23.958  0.00  0.00    -0.386 OA
ATOM     10  H   UNL     1       9.991  -3.012  24.787  0.00  0.00    +0.210 HD
ENDBRANCH   4   9
BRANCH   6  11
ATOM     11  O   UNL     1       6.055  -2.463  23.597  0.00  0.00    -0.337 OA
BRANCH  11  12
ATOM     12  C   UNL     1       5.829  -3.698  24.606  0.00  0.00    +0.283 C 
ATOM     13  O   UNL     1       6.723  -4.812  24.310  0.00  0.00    -0.341 OA
ATOM     14  C   UNL     1       6.373  -5.667  23.196  0.00  0.00    +0.178 C 
ATOM     15  C   UNL     1       4.878  -6.084  23.112  0.00  0.00    +0.177 C 
ATOM     16  C   UNL     1       4.011  -4.954  23.571  0.00  0.00    +0.179 C 
ATOM     17  C   UNL     1       4.447  -4.396  24.938  0.00  0.00    +0.208 C 
BRANCH  16  18
ATOM     18  O   UNL     1       4.092  -3.967  22.514  0.00  0.00    -0.386 OA
ATOM     19  H   UNL     1       4.016  -4.399  21.639  0.00  0.00    +0.210 HD
ENDBRANCH  16  18
BRANCH  15  20
ATOM     20  O   UNL     1       4.565  -7.222  23.916  0.00  0.00    -0.386 OA
ATOM     21  H   UNL     1       3.699  -7.062  24.341  0.00  0.00    +0.210 HD
ENDBRANCH  15  20
BRANCH  14  22
ATOM     22  C   UNL     1       6.961  -4.976  21.956  0.00  0.00    +0.190 C 
BRANCH  22  23
ATOM     23  O   UNL     1       6.099  -4.963  20.835  0.00  0.00    -0.392 OA
ATOM     24  H   UNL     1       5.222  -5.248  21.145  0.00  0.00    +0.210 HD
ENDBRANCH  22  23
ENDBRANCH  14  22
BRANCH  17  25
ATOM     25  O   UNL     1       4.295  -5.227  26.177  0.00  0.00    -0.338 OA
BRANCH  25  26
ATOM     26  C   UNL     1       5.458  -5.967  26.747  0.00  0.00    +0.282 C 
ATOM     27  O   UNL     1       5.127  -7.220  27.396  0.00  0.00    -0.341 OA
ATOM     28  C   UNL     1       4.600  -7.165  28.757  0.00  0.00    +0.178 C 
ATOM     29  C   UNL     1       5.285  -6.204  29.773  0.00  0.00    +0.177 C 
ATOM     30  C   UNL     1       5.665  -4.926  29.085  0.00  0.00    +0.179 C 
ATOM     31  C   UNL     1       6.363  -5.298  27.784  0.00  0.00    +0.201 C 
BRANCH  31  32
ATOM     32  O   UNL     1       7.621  -5.957  27.983  0.00  0.00    -0.384 OA
ATOM     33  H   UNL     1       7.461  -6.786  28.481  0.00  0.00    +0.210 HD
ENDBRANCH  31  32
BRANCH  30  34
ATOM     34  O   UNL     1       4.514  -4.111  28.948  0.00  0.00    -0.386 OA
ATOM     35  H   UNL     1       4.375  -3.587  29.754  0.00  0.00    +0.210 HD
ENDBRANCH  30  34
BRANCH  29  36
ATOM     36  O   UNL     1       6.502  -6.768  30.299  0.00  0.00    -0.386 OA
ATOM     37  H   UNL     1       7.253  -6.289  29.875  0.00  0.00    +0.210 HD
ENDBRANCH  29  36
BRANCH  28  38
ATOM     38  C   UNL     1       3.107  -6.912  28.577  0.00  0.00    +0.190 C 
BRANCH  38  39
ATOM     39  O   UNL     1       2.690  -7.603  27.400  0.00  0.00    -0.392 OA
ATOM     40  H   UNL     1       2.724  -6.928  26.686  0.00  0.00    +0.210 HD
ENDBRANCH  38  39
ENDBRANCH  28  38
ENDBRANCH  25  26
ENDBRANCH  17  25
ENDBRANCH  11  12
ENDBRANCH   6  11
BRANCH   3  41
ATOM     41  C   UNL     1      10.646   0.539  23.445  0.00  0.00    +0.190 C 
BRANCH  41  42
ATOM     42  O   UNL     1      11.327   1.350  24.375  0.00  0.00    -0.392 OA
ATOM     43  H   UNL     1      12.153   1.629  23.940  0.00  0.00    +0.210 HD
ENDBRANCH  41  42
ENDBRANCH   3  41
BRANCH   1  44
ATOM     44  O   UNL     1       7.713   1.173  23.941  0.00  0.00    -0.453 OA
BRANCH  44  55
ATOM     45  C   UNL     1       6.724   2.213  25.833  0.00  0.00    +0.181 A 
ATOM     46  O   UNL     1       5.863   3.267  25.055  0.00  0.00    -0.451 OA
ATOM     47  C   UNL     1       6.320   4.115  23.936  0.00  0.00    +0.147 A 
ATOM     48  C   UNL     1       7.635   4.342  23.779  0.00  0.00    +0.109 A 
ATOM     49  C   UNL     1       8.097   5.409  22.956  0.00  0.00    +0.135 A 
ATOM     50  C   UNL     1       7.213   6.252  22.246  0.00  0.00    +0.091 A 
ATOM     51  C   UNL     1       5.870   5.968  22.277  0.00  0.00    +0.124 A 
ATOM     52  C   UNL     1       8.456   3.363  24.552  0.00  0.00    +0.238 A 
ATOM     53  O   UNL     1       9.652   3.626  24.650  0.00  0.00    -0.283 OA
ATOM     54  C   UNL     1       5.437   4.884  23.064  0.00  0.00    +0.092 A 
ATOM     55  C   UNL     1       7.799   2.072  25.036  0.00  0.00    +0.214 A 
BRANCH  45  57
ATOM     56  C   UNL     1       5.839   0.810  28.239  0.00  0.00    +0.015 A 
ATOM     57  C   UNL     1       5.798   0.976  26.819  0.00  0.00    +0.025 A 
ATOM     58  C   UNL     1       4.740   0.058  26.370  0.00  0.00    +0.060 A 
ATOM     59  C   UNL     1       3.883  -0.811  27.073  0.00  0.00    +0.159 A 
ATOM     60  C   UNL     1       3.918  -0.820  28.421  0.00  0.00    +0.158 A 
ATOM     61  C   UNL     1       4.871   0.002  29.012  0.00  0.00    +0.050 A 
BRANCH  60  62
ATOM     62  O   UNL     1       3.029  -1.578  29.112  0.00  0.00    -0.503 OA
ATOM     63  H   UNL     1       2.145  -1.208  28.929  0.00  0.00    +0.292 HD
ENDBRANCH  60  62
BRANCH  59  64
ATOM     64  O   UNL     1       3.007  -1.558  26.331  0.00  0.00    -0.503 OA
ATOM     65  H   UNL     1       2.142  -1.114  26.328  0.00  0.00    +0.292 HD
ENDBRANCH  59  64
ENDBRANCH  45  57
BRANCH  51  66
ATOM     66  O   UNL     1       4.951   6.735  21.601  0.00  0.00    -0.507 OA
ATOM     67  H   UNL     1       5.033   7.675  21.861  0.00  0.00    +0.292 HD
ENDBRANCH  51  66
BRANCH  49  68
ATOM     68  O   UNL     1       9.388   5.733  22.829  0.00  0.00    -0.506 OA
ATOM     69  H   UNL     1       9.903   5.191  23.462  0.00  0.00    +0.292 HD
ENDBRANCH  49  68
ENDBRANCH  44  55
ENDBRANCH   1  44
TORSDOF 24
ENDMDL
MODEL 2
REMARK VINA RESULT:      -7.6      1.791      9.427
REMARK  Name = 
REMARK  24 active torsions:
REMARK  status: ('A' for Active; 'I' for Inactive)
REMARK    1  A    between atoms: C_3  and  O_70
REMARK    2  A    between atoms: C_4  and  O_69
REMARK    3  A    between atoms: C_6  and  C_7
REMARK    4  A    between atoms: C_8  and  O_20
REMARK    5  A    between atoms: C_12  and  O_19
REMARK    6  A    between atoms: C_14  and  O_18
REMARK    7  A    between atoms: O_20  and  C_21
REMARK    8  A    between atoms: C_23  and  O_36
REMARK    9  A    between atoms: C_25  and  O_35
REMARK   10  A    between atoms: C_27  and  O_34
REMARK   11  A    between atoms: C_29  and  C_32
REMARK   12  A    between atoms: C_32  and  O_33
REMARK   13  A    between atoms: O_36  and  C_37
REMARK   14  A    between atoms: C_39  and  O_52
REMARK   15  A    between atoms: C_41  and  O_51
REMARK   16  A    between atoms: C_43  and  O_50
REMARK   17  A    between atoms: C_45  and  C_48
REMARK   18  A    between atoms: C_48  and  O_49
REMARK   19  A    between atoms: O_52  and  C_53
REMARK   20  A    between atoms: C_55  and  O_68
REMARK   21  A    between atoms: C_57  and  O_67
REMARK   22  A    between atoms: C_59  and  O_66
REMARK   23  A    between atoms: C_61  and  C_64
REMARK   24  A    between atoms: C_64  and  O_65
REMARK                            x       y       z     vdW  Elec       q    Type
REMARK                         _______ _______ _______ _____ _____    ______ ____
ROOT
ATOM      1  C   UNL     1       5.421  -2.760  24.115  0.00  0.00    +0.340 C 
ATOM      2  O   UNL     1       5.003  -3.174  22.820  0.00  0.00    -0.331 OA
ATOM      3  C   UNL     1       5.758  -4.195  22.222  0.00  0.00    +0.179 C 
ATOM      4  C   UNL     1       7.266  -3.850  22.227  0.00  0.00    +0.177 C 
ATOM      5  C   UNL     1       7.825  -3.534  23.598  0.00  0.00    +0.180 C 
ATOM      6  C   UNL     1       7.112  -2.338  24.260  0.00  0.00    +0.221 C 
ENDROOT
BRANCH   5   7
ATOM      7  O   UNL     1       7.659  -4.719  24.424  0.00  0.00    -0.386 OA
ATOM      8  H   UNL     1       6.847  -4.660  24.970  0.00  0.00    +0.210 HD
ENDBRANCH   5   7
BRANCH   4   9
ATOM      9  O   UNL     1       7.491  -2.707  21.391  0.00  0.00    -0.386 OA
ATOM     10  H   UNL     1       7.952  -2.019  21.904  0.00  0.00    +0.210 HD
ENDBRANCH   4   9
BRANCH   6  11
ATOM     11  O   UNL     1       7.928  -0.980  24.415  0.00  0.00    -0.337 OA
BRANCH  11  12
ATOM     12  C   UNL     1       7.658   0.533  23.934  0.00  0.00    +0.283 C 
ATOM     13  O   UNL     1       8.103   0.754  22.563  0.00  0.00    -0.341 OA
ATOM     14  C   UNL     1       9.521   0.946  22.346  0.00  0.00    +0.178 C 
ATOM     15  C   UNL     1      10.231   1.898  23.348  0.00  0.00    +0.177 C 
ATOM     16  C   UNL     1       9.633   1.738  24.710  0.00  0.00    +0.179 C 
ATOM     17  C   UNL     1       8.098   1.851  24.695  0.00  0.00    +0.208 C 
BRANCH  16  18
ATOM     18  O   UNL     1      10.093   0.444  25.171  0.00  0.00    -0.386 OA
ATOM     19  H   UNL     1      11.025   0.500  25.464  0.00  0.00    +0.210 HD
ENDBRANCH  16  18
BRANCH  15  20
ATOM     20  O   UNL     1      10.122   3.276  22.988  0.00  0.00    -0.386 OA
ATOM     21  H   UNL     1       9.648   3.739  23.707  0.00  0.00    +0.210 HD
ENDBRANCH  15  20
BRANCH  14  22
ATOM     22  C   UNL     1      10.104  -0.470  22.217  0.00  0.00    +0.190 C 
BRANCH  22  23
ATOM     23  O   UNL     1       9.693  -1.163  21.054  0.00  0.00    -0.392 OA
ATOM     24  H   UNL     1      10.402  -1.789  20.828  0.00  0.00    +0.210 HD
ENDBRANCH  22  23
ENDBRANCH  14  22
BRANCH  17  25
ATOM     25  O   UNL     1       7.438   3.161  24.385  0.00  0.00    -0.338 OA
BRANCH  25  26
ATOM     26  C   UNL     1       6.684   3.353  23.112  0.00  0.00    +0.282 C 
ATOM     27  O   UNL     1       7.286   4.285  22.179  0.00  0.00    -0.341 OA
ATOM     28  C   UNL     1       7.087   5.713  22.418  0.00  0.00    +0.178 C 
ATOM     29  C   UNL     1       5.662   6.200  22.813  0.00  0.00    +0.177 C 
ATOM     30  C   UNL     1       5.026   5.209  23.743  0.00  0.00    +0.179 C 
ATOM     31  C   UNL     1       5.229   3.825  23.143  0.00  0.00    +0.201 C 
BRANCH  31  32
ATOM     32  O   UNL     1       4.519   3.630  21.912  0.00  0.00    -0.384 OA
ATOM     33  H   UNL     1       4.269   2.686  21.845  0.00  0.00    +0.210 HD
ENDBRANCH  31  32
BRANCH  30  34
ATOM     34  O   UNL     1       5.552   5.391  25.047  0.00  0.00    -0.386 OA
ATOM     35  H   UNL     1       4.877   5.183  25.714  0.00  0.00    +0.210 HD
ENDBRANCH  30  34
BRANCH  29  36
ATOM     36  O   UNL     1       4.797   6.302  21.665  0.00  0.00    -0.386 OA
ATOM     37  H   UNL     1       3.870   6.349  22.000  0.00  0.00    +0.210 HD
ENDBRANCH  29  36
BRANCH  28  38
ATOM     38  C   UNL     1       8.169   6.086  23.425  0.00  0.00    +0.190 C 
BRANCH  38  39
ATOM     39  O   UNL     1       9.419   6.089  22.734  0.00  0.00    -0.392 OA
ATOM     40  H   UNL     1       9.529   5.169  22.407  0.00  0.00    +0.210 HD
ENDBRANCH  38  39
ENDBRANCH  28  38
ENDBRANCH  25  26
ENDBRANCH  17  25
ENDBRANCH  11  12
ENDBRANCH   6  11
BRANCH   3  41
ATOM     41  C   UNL     1       5.257  -5.506  22.834  0.00  0.00    +0.190 C 
BRANCH  41  42
ATOM     42  O   UNL     1       6.048  -6.611  22.464  0.00  0.00    -0.392 OA
ATOM     43  H   UNL     1       6.916  -6.480  22.890  0.00  0.00    +0.210 HD
ENDBRANCH  41  42
ENDBRANCH   3  41
BRANCH   1  44
ATOM     44  O   UNL     1       4.988  -3.597  25.187  0.00  0.00    -0.453 OA
BRANCH  44  55
ATOM     45  C   UNL     1       3.921  -2.275  26.846  0.00  0.00    +0.181 A 
ATOM     46  O   UNL     1       3.822  -3.383  27.952  0.00  0.00    -0.451 OA
ATOM     47  C   UNL     1       3.374  -4.776  27.756  0.00  0.00    +0.147 A 
ATOM     48  C   UNL     1       2.616  -5.078  26.689  0.00  0.00    +0.109 A 
ATOM     49  C   UNL     1       1.879  -6.296  26.641  0.00  0.00    +0.135 A 
ATOM     50  C   UNL     1       1.930  -7.251  27.680  0.00  0.00    +0.091 A 
ATOM     51  C   UNL     1       2.795  -7.038  28.724  0.00  0.00    +0.124 A 
ATOM     52  C   UNL     1       2.677  -4.005  25.652  0.00  0.00    +0.238 A 
ATOM     53  O   UNL     1       1.850  -4.086  24.748  0.00  0.00    -0.283 OA
ATOM     54  C   UNL     1       3.546  -5.847  28.734  0.00  0.00    +0.092 A 
ATOM     55  C   UNL     1       3.817  -2.990  25.711  0.00  0.00    +0.214 A 
BRANCH  45  57
ATOM     56  C   UNL     1       4.490   0.468  27.675  0.00  0.00    +0.015 A 
ATOM     57  C   UNL     1       4.953  -0.815  27.248  0.00  0.00    +0.025 A 
ATOM     58  C   UNL     1       6.417  -0.739  27.368  0.00  0.00    +0.060 A 
ATOM     59  C   UNL     1       7.276   0.287  27.808  0.00  0.00    +0.159 A 
ATOM     60  C   UNL     1       6.743   1.426  28.297  0.00  0.00    +0.158 A 
ATOM     61  C   UNL     1       5.356   1.516  28.259  0.00  0.00    +0.050 A 
BRANCH  60  62
ATOM     62  O   UNL     1       7.556   2.380  28.817  0.00  0.00    -0.503 OA
ATOM     63  H   UNL     1       7.500   2.296  29.787  0.00  0.00    +0.292 HD
ENDBRANCH  60  62
BRANCH  59  64
ATOM     64  O   UNL     1       8.622   0.034  27.771  0.00  0.00    -0.503 OA
ATOM     65  H   UNL     1       8.772  -0.895  28.019  0.00  0.00    +0.292 HD
ENDBRANCH  59  64
ENDBRANCH  45  57
BRANCH  51  66
ATOM     66  O   UNL     1       2.910  -7.929  29.765  0.00  0.00    -0.507 OA
ATOM     67  H   UNL     1       2.230  -8.628  29.693  0.00  0.00    +0.292 HD
ENDBRANCH  51  66
BRANCH  49  68
ATOM     68  O   UNL     1       1.045  -6.611  25.643  0.00  0.00    -0.506 OA
ATOM     69  H   UNL     1       0.179  -6.191  25.825  0.00  0.00    +0.292 HD
ENDBRANCH  49  68
ENDBRANCH  44  55
ENDBRANCH   1  44
TORSDOF 24
ENDMDL
MODEL 3
REMARK VINA RESULT:      -7.2      2.313      8.731
REMARK  Name = 
REMARK  24 active torsions:
REMARK  status: ('A' for Active; 'I' for Inactive)
REMARK    1  A    between atoms: C_3  and  O_70
REMARK    2  A    between atoms: C_4  and  O_69
REMARK    3  A    between atoms: C_6  and  C_7
REMARK    4  A    between atoms: C_8  and  O_20
REMARK    5  A    between atoms: C_12  and  O_19
REMARK    6  A    between atoms: C_14  and  O_18
REMARK    7  A    between atoms: O_20  and  C_21
REMARK    8  A    between atoms: C_23  and  O_36
REMARK    9  A    between atoms: C_25  and  O_35
REMARK   10  A    between atoms: C_27  and  O_34
REMARK   11  A    between atoms: C_29  and  C_32
REMARK   12  A    between atoms: C_32  and  O_33
REMARK   13  A    between atoms: O_36  and  C_37
REMARK   14  A    between atoms: C_39  and  O_52
REMARK   15  A    between atoms: C_41  and  O_51
REMARK   16  A    between atoms: C_43  and  O_50
REMARK   17  A    between atoms: C_45  and  C_48
REMARK   18  A    between atoms: C_48  and  O_49
REMARK   19  A    between atoms: O_52  and  C_53
REMARK   20  A    between atoms: C_55  and  O_68
REMARK   21  A    between atoms: C_57  and  O_67
REMARK   22  A    between atoms: C_59  and  O_66
REMARK   23  A    between atoms: C_61  and  C_64
REMARK   24  A    between atoms: C_64  and  O_65
REMARK                            x       y       z     vdW  Elec       q    Type
REMARK                         _______ _______ _______ _____ _____    ______ ____
ROOT
ATOM      1  C   UNL     1       6.979  -3.322  24.094  0.00  0.00    +0.340 C 
ATOM      2  O   UNL     1       7.893  -4.342  23.714  0.00  0.00    -0.331 OA
ATOM      3  C   UNL     1       9.036  -4.482  24.516  0.00  0.00    +0.179 C 
ATOM      4  C   UNL     1       9.765  -3.128  24.689  0.00  0.00    +0.177 C 
ATOM      5  C   UNL     1       8.890  -2.017  25.229  0.00  0.00    +0.180 C 
ATOM      6  C   UNL     1       7.675  -1.735  24.323  0.00  0.00    +0.221 C 
ENDROOT
BRANCH   5   7
ATOM      7  O   UNL     1       8.431  -2.422  26.548  0.00  0.00    -0.386 OA
ATOM      8  H   UNL     1       7.458  -2.328  26.630  0.00  0.00    +0.210 HD
ENDBRANCH   5   7
BRANCH   4   9
ATOM      9  O   UNL     1      10.275  -2.701  23.418  0.00  0.00    -0.386 OA
ATOM     10  H   UNL     1      10.916  -3.359  23.092  0.00  0.00    +0.210 HD
ENDBRANCH   4   9
BRANCH   6  11
ATOM     11  O   UNL     1       7.657  -0.365  23.511  0.00  0.00    -0.337 OA
BRANCH  11  12
ATOM     12  C   UNL     1       6.707   0.935  23.559  0.00  0.00    +0.283 C 
ATOM     13  O   UNL     1       6.679   1.634  22.279  0.00  0.00    -0.341 OA
ATOM     14  C   UNL     1       7.809   2.480  21.959  0.00  0.00    +0.178 C 
ATOM     15  C   UNL     1       8.312   3.395  23.110  0.00  0.00    +0.177 C 
ATOM     16  C   UNL     1       8.178   2.682  24.419  0.00  0.00    +0.179 C 
ATOM     17  C   UNL     1       6.768   2.101  24.629  0.00  0.00    +0.208 C 
BRANCH  16  18
ATOM     18  O   UNL     1       9.204   1.661  24.396  0.00  0.00    -0.386 OA
ATOM     19  H   UNL     1       9.087   1.046  25.149  0.00  0.00    +0.210 HD
ENDBRANCH  16  18
BRANCH  15  20
ATOM     20  O   UNL     1       7.587   4.622  23.210  0.00  0.00    -0.386 OA
ATOM     21  H   UNL     1       8.234   5.345  23.330  0.00  0.00    +0.210 HD
ENDBRANCH  15  20
BRANCH  14  22
ATOM     22  C   UNL     1       8.849   1.542  21.327  0.00  0.00    +0.190 C 
BRANCH  22  23
ATOM     23  O   UNL     1      10.192   1.915  21.572  0.00  0.00    -0.392 OA
ATOM     24  H   UNL     1      10.170   2.743  22.082  0.00  0.00    +0.210 HD
ENDBRANCH  22  23
ENDBRANCH  14  22
BRANCH  17  25
ATOM     25  O   UNL     1       5.594   3.013  24.824  0.00  0.00    -0.338 OA
BRANCH  25  26
ATOM     26  C   UNL     1       4.199   2.487  24.757  0.00  0.00    +0.282 C 
ATOM     27  O   UNL     1       3.493   2.780  23.525  0.00  0.00    -0.341 OA
ATOM     28  C   UNL     1       2.912   4.111  23.373  0.00  0.00    +0.178 C 
ATOM     29  C   UNL     1       2.146   4.722  24.583  0.00  0.00    +0.177 C 
ATOM     30  C   UNL     1       2.858   4.378  25.859  0.00  0.00    +0.179 C 
ATOM     31  C   UNL     1       3.173   2.890  25.819  0.00  0.00    +0.201 C 
BRANCH  31  32
ATOM     32  O   UNL     1       2.004   2.060  25.854  0.00  0.00    -0.384 OA
ATOM     33  H   UNL     1       1.971   1.608  26.722  0.00  0.00    +0.210 HD
ENDBRANCH  31  32
BRANCH  30  34
ATOM     34  O   UNL     1       3.976   5.235  26.014  0.00  0.00    -0.386 OA
ATOM     35  H   UNL     1       4.080   5.487  26.947  0.00  0.00    +0.210 HD
ENDBRANCH  30  34
BRANCH  29  36
ATOM     36  O   UNL     1       0.814   4.185  24.696  0.00  0.00    -0.386 OA
ATOM     37  H   UNL     1       0.899   3.256  25.016  0.00  0.00    +0.210 HD
ENDBRANCH  29  36
BRANCH  28  38
ATOM     38  C   UNL     1       4.062   4.975  22.869  0.00  0.00    +0.190 C 
BRANCH  38  39
ATOM     39  O   UNL     1       4.878   4.160  22.027  0.00  0.00    -0.392 OA
ATOM     40  H   UNL     1       4.437   4.184  21.149  0.00  0.00    +0.210 HD
ENDBRANCH  38  39
ENDBRANCH  28  38
ENDBRANCH  25  26
ENDBRANCH  17  25
ENDBRANCH  11  12
ENDBRANCH   6  11
BRANCH   3  41
ATOM     41  C   UNL     1       8.598  -5.291  25.739  0.00  0.00    +0.190 C 
BRANCH  41  42
ATOM     42  O   UNL     1       9.404  -5.042  26.868  0.00  0.00    -0.392 OA
ATOM     43  H   UNL     1       9.638  -5.915  27.234  0.00  0.00    +0.210 HD
ENDBRANCH  41  42
ENDBRANCH   3  41
BRANCH   1  44
ATOM     44  O   UNL     1       6.091  -3.671  25.156  0.00  0.00    -0.453 OA
BRANCH  44  55
ATOM     45  C   UNL     1       4.102  -2.515  25.746  0.00  0.00    +0.181 A 
ATOM     46  O   UNL     1       3.383  -3.708  26.467  0.00  0.00    -0.451 OA
ATOM     47  C   UNL     1       3.278  -5.094  25.970  0.00  0.00    +0.147 A 
ATOM     48  C   UNL     1       3.434  -5.334  24.657  0.00  0.00    +0.109 A 
ATOM     49  C   UNL     1       3.001  -6.566  24.086  0.00  0.00    +0.135 A 
ATOM     50  C   UNL     1       2.427  -7.598  24.862  0.00  0.00    +0.091 A 
ATOM     51  C   UNL     1       2.374  -7.441  26.225  0.00  0.00    +0.124 A 
ATOM     52  C   UNL     1       4.082  -4.183  23.962  0.00  0.00    +0.238 A 
ATOM     53  O   UNL     1       4.061  -4.218  22.734  0.00  0.00    -0.283 OA
ATOM     54  C   UNL     1       2.843  -6.232  26.775  0.00  0.00    +0.092 A 
ATOM     55  C   UNL     1       4.823  -3.142  24.799  0.00  0.00    +0.214 A 
BRANCH  45  57
ATOM     56  C   UNL     1       3.625  -0.382  27.685  0.00  0.00    +0.015 A 
ATOM     57  C   UNL     1       4.505  -1.061  26.786  0.00  0.00    +0.025 A 
ATOM     58  C   UNL     1       5.818  -0.439  27.015  0.00  0.00    +0.060 A 
ATOM     59  C   UNL     1       6.243   0.574  27.897  0.00  0.00    +0.159 A 
ATOM     60  C   UNL     1       5.364   1.081  28.786  0.00  0.00    +0.158 A 
ATOM     61  C   UNL     1       4.065   0.594  28.706  0.00  0.00    +0.050 A 
BRANCH  60  62
ATOM     62  O   UNL     1       5.785   1.984  29.708  0.00  0.00    -0.503 OA
ATOM     63  H   UNL     1       5.401   2.844  29.453  0.00  0.00    +0.292 HD
ENDBRANCH  60  62
BRANCH  59  64
ATOM     64  O   UNL     1       7.561   0.942  27.838  0.00  0.00    -0.503 OA
ATOM     65  H   UNL     1       8.072   0.213  27.446  0.00  0.00    +0.292 HD
ENDBRANCH  59  64
ENDBRANCH  45  57
BRANCH  51  66
ATOM     66  O   UNL     1       1.842  -8.406  27.047  0.00  0.00    -0.507 OA
ATOM     67  H   UNL     1       1.858  -9.279  26.604  0.00  0.00    +0.292 HD
ENDBRANCH  51  66
BRANCH  49  68
ATOM     68  O   UNL     1       3.055  -6.827  22.776  0.00  0.00    -0.506 OA
ATOM     69  H   UNL     1       3.901  -6.478  22.429  0.00  0.00    +0.292 HD
ENDBRANCH  49  68
ENDBRANCH  44  55
ENDBRANCH   1  44
TORSDOF 24
ENDMDL
MODEL 4
REMARK VINA RESULT:      -7.2      2.074      9.049
REMARK  Name = 
REMARK  24 active torsions:
REMARK  status: ('A' for Active; 'I' for Inactive)
REMARK    1  A    between atoms: C_3  and  O_70
REMARK    2  A    between atoms: C_4  and  O_69
REMARK    3  A    between atoms: C_6  and  C_7
REMARK    4  A    between atoms: C_8  and  O_20
REMARK    5  A    between atoms: C_12  and  O_19
REMARK    6  A    between atoms: C_14  and  O_18
REMARK    7  A    between atoms: O_20  and  C_21
REMARK    8  A    between atoms: C_23  and  O_36
REMARK    9  A    between atoms: C_25  and  O_35
REMARK   10  A    between atoms: C_27  and  O_34
REMARK   11  A    between atoms: C_29  and  C_32
REMARK   12  A    between atoms: C_32  and  O_33
REMARK   13  A    between atoms: O_36  and  C_37
REMARK   14  A    between atoms: C_39  and  O_52
REMARK   15  A    between atoms: C_41  and  O_51
REMARK   16  A    between atoms: C_43  and  O_50
REMARK   17  A    between atoms: C_45  and  C_48
REMARK   18  A    between atoms: C_48  and  O_49
REMARK   19  A    between atoms: O_52  and  C_53
REMARK   20  A    between atoms: C_55  and  O_68
REMARK   21  A    between atoms: C_57  and  O_67
REMARK   22  A    between atoms: C_59  and  O_66
REMARK   23  A    between atoms: C_61  and  C_64
REMARK   24  A    between atoms: C_64  and  O_65
REMARK                            x       y       z     vdW  Elec       q    Type
REMARK                         _______ _______ _______ _____ _____    ______ ____
ROOT
ATOM      1  C   UNL     1       6.359  -2.650  25.203  0.00  0.00    +0.340 C 
ATOM      2  O   UNL     1       6.285  -3.722  24.272  0.00  0.00    -0.331 OA
ATOM      3  C   UNL     1       7.024  -4.872  24.590  0.00  0.00    +0.179 C 
ATOM      4  C   UNL     1       8.498  -4.518  24.902  0.00  0.00    +0.177 C 
ATOM      5  C   UNL     1       8.669  -3.479  25.990  0.00  0.00    +0.180 C 
ATOM      6  C   UNL     1       7.975  -2.147  25.643  0.00  0.00    +0.221 C 
ENDROOT
BRANCH   5   7
ATOM      7  O   UNL     1       8.097  -4.024  27.211  0.00  0.00    -0.386 OA
ATOM      8  H   UNL     1       8.659  -4.738  27.578  0.00  0.00    +0.210 HD
ENDBRANCH   5   7
BRANCH   4   9
ATOM      9  O   UNL     1       9.123  -4.011  23.715  0.00  0.00    -0.386 OA
ATOM     10  H   UNL     1       8.772  -3.124  23.520  0.00  0.00    +0.210 HD
ENDBRANCH   4   9
BRANCH   6  11
ATOM     11  O   UNL     1       8.898  -0.893  25.311  0.00  0.00    -0.337 OA
BRANCH  11  12
ATOM     12  C   UNL     1       8.596   0.579  24.734  0.00  0.00    +0.283 C 
ATOM     13  O   UNL     1       7.815   0.532  23.504  0.00  0.00    -0.341 OA
ATOM     14  C   UNL     1       8.517   0.205  22.282  0.00  0.00    +0.178 C 
ATOM     15  C   UNL     1       9.880   0.924  22.076  0.00  0.00    +0.177 C 
ATOM     16  C   UNL     1      10.572   1.081  23.392  0.00  0.00    +0.179 C 
ATOM     17  C   UNL     1       9.665   1.716  24.462  0.00  0.00    +0.208 C 
BRANCH  16  18
ATOM     18  O   UNL     1      11.005  -0.254  23.750  0.00  0.00    -0.386 OA
ATOM     19  H   UNL     1      11.081  -0.336  24.722  0.00  0.00    +0.210 HD
ENDBRANCH  16  18
BRANCH  15  20
ATOM     20  O   UNL     1       9.747   2.224  21.500  0.00  0.00    -0.386 OA
ATOM     21  H   UNL     1       9.137   2.742  22.061  0.00  0.00    +0.210 HD
ENDBRANCH  15  20
BRANCH  14  22
ATOM     22  C   UNL     1       8.539  -1.331  22.227  0.00  0.00    +0.190 C 
BRANCH  22  23
ATOM     23  O   UNL     1       9.712  -1.874  21.654  0.00  0.00    -0.392 OA
ATOM     24  H   UNL     1       9.543  -1.981  20.702  0.00  0.00    +0.210 HD
ENDBRANCH  22  23
ENDBRANCH  14  22
BRANCH  17  25
ATOM     25  O   UNL     1       9.235   3.147  24.337  0.00  0.00    -0.338 OA
BRANCH  25  26
ATOM     26  C   UNL     1       8.194   3.713  25.243  0.00  0.00    +0.282 C 
ATOM     27  O   UNL     1       6.848   3.709  24.706  0.00  0.00    -0.341 OA
ATOM     28  C   UNL     1       6.486   4.765  23.765  0.00  0.00    +0.178 C 
ATOM     29  C   UNL     1       6.924   6.223  24.092  0.00  0.00    +0.177 C 
ATOM     30  C   UNL     1       8.300   6.217  24.689  0.00  0.00    +0.179 C 
ATOM     31  C   UNL     1       8.325   5.145  25.768  0.00  0.00    +0.201 C 
BRANCH  31  32
ATOM     32  O   UNL     1       7.478   5.443  26.885  0.00  0.00    -0.384 OA
ATOM     33  H   UNL     1       7.954   6.061  27.479  0.00  0.00    +0.210 HD
ENDBRANCH  31  32
BRANCH  30  34
ATOM     34  O   UNL     1       9.256   6.064  23.653  0.00  0.00    -0.386 OA
ATOM     35  H   UNL     1       8.855   5.617  22.889  0.00  0.00    +0.210 HD
ENDBRANCH  30  34
BRANCH  29  36
ATOM     36  O   UNL     1       6.054   6.834  25.065  0.00  0.00    -0.386 OA
ATOM     37  H   UNL     1       5.126   6.658  24.780  0.00  0.00    +0.210 HD
ENDBRANCH  29  36
BRANCH  28  38
ATOM     38  C   UNL     1       6.981   4.259  22.415  0.00  0.00    +0.190 C 
BRANCH  38  39
ATOM     39  O   UNL     1       7.307   5.399  21.619  0.00  0.00    -0.392 OA
ATOM     40  H   UNL     1       7.578   6.089  22.265  0.00  0.00    +0.210 HD
ENDBRANCH  38  39
ENDBRANCH  28  38
ENDBRANCH  25  26
ENDBRANCH  17  25
ENDBRANCH  11  12
ENDBRANCH   6  11
BRANCH   3  41
ATOM     41  C   UNL     1       6.181  -5.652  25.601  0.00  0.00    +0.190 C 
BRANCH  41  42
ATOM     42  O   UNL     1       5.104  -6.330  24.996  0.00  0.00    -0.392 OA
ATOM     43  H   UNL     1       5.496  -7.056  24.475  0.00  0.00    +0.210 HD
ENDBRANCH  41  42
ENDBRANCH   3  41
BRANCH   1  44
ATOM     44  O   UNL     1       5.513  -2.780  26.345  0.00  0.00    -0.453 OA
BRANCH  44  55
ATOM     45  C   UNL     1       3.678  -1.305  26.662  0.00  0.00    +0.181 A 
ATOM     46  O   UNL     1       2.998  -2.083  27.841  0.00  0.00    -0.451 OA
ATOM     47  C   UNL     1       2.759  -3.539  27.907  0.00  0.00    +0.147 A 
ATOM     48  C   UNL     1       2.732  -4.251  26.768  0.00  0.00    +0.109 A 
ATOM     49  C   UNL     1       2.168  -5.559  26.741  0.00  0.00    +0.135 A 
ATOM     50  C   UNL     1       1.646  -6.180  27.897  0.00  0.00    +0.091 A 
ATOM     51  C   UNL     1       1.777  -5.537  29.103  0.00  0.00    +0.124 A 
ATOM     52  C   UNL     1       3.343  -3.495  25.634  0.00  0.00    +0.238 A 
ATOM     53  O   UNL     1       3.164  -3.970  24.515  0.00  0.00    -0.283 OA
ATOM     54  C   UNL     1       2.374  -4.262  29.115  0.00  0.00    +0.092 A 
ATOM     55  C   UNL     1       4.239  -2.298  25.947  0.00  0.00    +0.214 A 
BRANCH  45  57
ATOM     56  C   UNL     1       3.501   1.573  27.130  0.00  0.00    +0.015 A 
ATOM     57  C   UNL     1       4.285   0.381  27.044  0.00  0.00    +0.025 A 
ATOM     58  C   UNL     1       5.627   0.789  27.487  0.00  0.00    +0.060 A 
ATOM     59  C   UNL     1       6.139   2.022  27.938  0.00  0.00    +0.159 A 
ATOM     60  C   UNL     1       5.298   3.066  28.091  0.00  0.00    +0.158 A 
ATOM     61  C   UNL     1       3.977   2.846  27.715  0.00  0.00    +0.050 A 
BRANCH  60  62
ATOM     62  O   UNL     1       5.757   4.228  28.619  0.00  0.00    -0.503 OA
ATOM     63  H   UNL     1       5.048   4.887  28.505  0.00  0.00    +0.292 HD
ENDBRANCH  60  62
BRANCH  59  64
ATOM     64  O   UNL     1       7.469   2.066  28.259  0.00  0.00    -0.503 OA
ATOM     65  H   UNL     1       7.816   1.158  28.280  0.00  0.00    +0.292 HD
ENDBRANCH  59  64
ENDBRANCH  45  57
BRANCH  51  66
ATOM     66  O   UNL     1       1.306  -6.085  30.272  0.00  0.00    -0.507 OA
ATOM     67  H   UNL     1       1.532  -5.512  31.033  0.00  0.00    +0.292 HD
ENDBRANCH  51  66
BRANCH  49  68
ATOM     68  O   UNL     1       2.039  -6.280  25.621  0.00  0.00    -0.506 OA
ATOM     69  H   UNL     1       1.173  -6.064  25.217  0.00  0.00    +0.292 HD
ENDBRANCH  49  68
ENDBRANCH  44  55
ENDBRANCH   1  44
TORSDOF 24
ENDMDL
MODEL 5
REMARK VINA RESULT:      -7.0      2.150      5.691
REMARK  Name = 
REMARK  24 active torsions:
REMARK  status: ('A' for Active; 'I' for Inactive)
REMARK    1  A    between atoms: C_3  and  O_70
REMARK    2  A    between atoms: C_4  and  O_69
REMARK    3  A    between atoms: C_6  and  C_7
REMARK    4  A    between atoms: C_8  and  O_20
REMARK    5  A    between atoms: C_12  and  O_19
REMARK    6  A    between atoms: C_14  and  O_18
REMARK    7  A    between atoms: O_20  and  C_21
REMARK    8  A    between atoms: C_23  and  O_36
REMARK    9  A    between atoms: C_25  and  O_35
REMARK   10  A    between atoms: C_27  and  O_34
REMARK   11  A    between atoms: C_29  and  C_32
REMARK   12  A    between atoms: C_32  and  O_33
REMARK   13  A    between atoms: O_36  and  C_37
REMARK   14  A    between atoms: C_39  and  O_52
REMARK   15  A    between atoms: C_41  and  O_51
REMARK   16  A    between atoms: C_43  and  O_50
REMARK   17  A    between atoms: C_45  and  C_48
REMARK   18  A    between atoms: C_48  and  O_49
REMARK   19  A    between atoms: O_52  and  C_53
REMARK   20  A    between atoms: C_55  and  O_68
REMARK   21  A    between atoms: C_57  and  O_67
REMARK   22  A    between atoms: C_59  and  O_66
REMARK   23  A    between atoms: C_61  and  C_64
REMARK   24  A    between atoms: C_64  and  O_65
REMARK                            x       y       z     vdW  Elec       q    Type
REMARK                         _______ _______ _______ _____ _____    ______ ____
ROOT
ATOM      1  C   UNL     1       6.195   2.051  26.006  0.00  0.00    +0.340 C 
ATOM      2  O   UNL     1       5.376   3.210  26.091  0.00  0.00    -0.331 OA
ATOM      3  C   UNL     1       5.475   3.954  27.278  0.00  0.00    +0.179 C 
ATOM      4  C   UNL     1       5.278   3.051  28.519  0.00  0.00    +0.177 C 
ATOM      5  C   UNL     1       6.216   1.864  28.577  0.00  0.00    +0.180 C 
ATOM      6  C   UNL     1       6.069   0.941  27.351  0.00  0.00    +0.221 C 
ENDROOT
BRANCH   5   7
ATOM      7  O   UNL     1       7.574   2.379  28.639  0.00  0.00    -0.386 OA
ATOM      8  H   UNL     1       7.595   3.344  28.463  0.00  0.00    +0.210 HD
ENDBRANCH   5   7
BRANCH   4   9
ATOM      9  O   UNL     1       3.936   2.547  28.528  0.00  0.00    -0.386 OA
ATOM     10  H   UNL     1       3.877   1.799  29.151  0.00  0.00    +0.210 HD
ENDBRANCH   4   9
BRANCH   6  11
ATOM     11  O   UNL     1       5.412  -0.492  27.575  0.00  0.00    -0.337 OA
BRANCH  11  12
ATOM     12  C   UNL     1       4.953  -1.667  26.574  0.00  0.00    +0.283 C 
ATOM     13  O   UNL     1       3.639  -1.406  25.997  0.00  0.00    -0.341 OA
ATOM     14  C   UNL     1       2.484  -1.672  26.826  0.00  0.00    +0.178 C 
ATOM     15  C   UNL     1       2.516  -3.011  27.616  0.00  0.00    +0.177 C 
ATOM     16  C   UNL     1       3.915  -3.305  28.055  0.00  0.00    +0.179 C 
ATOM     17  C   UNL     1       4.926  -3.217  26.897  0.00  0.00    +0.208 C 
BRANCH  16  18
ATOM     18  O   UNL     1       4.187  -2.347  29.106  0.00  0.00    -0.386 OA
ATOM     19  H   UNL     1       4.732  -1.610  28.761  0.00  0.00    +0.210 HD
ENDBRANCH  16  18
BRANCH  15  20
ATOM     20  O   UNL     1       2.061  -4.126  26.848  0.00  0.00    -0.386 OA
ATOM     21  H   UNL     1       1.248  -3.855  26.377  0.00  0.00    +0.210 HD
ENDBRANCH  15  20
BRANCH  14  22
ATOM     22  C   UNL     1       2.279  -0.394  27.655  0.00  0.00    +0.190 C 
BRANCH  22  23
ATOM     23  O   UNL     1       2.552   0.803  26.952  0.00  0.00    -0.392 OA
ATOM     24  H   UNL     1       2.922   1.433  27.594  0.00  0.00    +0.210 HD
ENDBRANCH  22  23
ENDBRANCH  14  22
BRANCH  17  25
ATOM     25  O   UNL     1       4.894  -4.223  25.786  0.00  0.00    -0.338 OA
BRANCH  25  26
ATOM     26  C   UNL     1       4.667  -3.794  24.374  0.00  0.00    +0.282 C 
ATOM     27  O   UNL     1       3.792  -4.657  23.607  0.00  0.00    -0.341 OA
ATOM     28  C   UNL     1       4.358  -5.886  23.056  0.00  0.00    +0.178 C 
ATOM     29  C   UNL     1       5.759  -5.813  22.382  0.00  0.00    +0.177 C 
ATOM     30  C   UNL     1       6.647  -4.883  23.156  0.00  0.00    +0.179 C 
ATOM     31  C   UNL     1       5.853  -3.613  23.425  0.00  0.00    +0.201 C 
BRANCH  31  32
ATOM     32  O   UNL     1       5.549  -2.871  22.236  0.00  0.00    -0.384 OA
ATOM     33  H   UNL     1       5.698  -3.452  21.462  0.00  0.00    +0.210 HD
ENDBRANCH  31  32
BRANCH  30  34
ATOM     34  O   UNL     1       7.133  -5.554  24.306  0.00  0.00    -0.386 OA
ATOM     35  H   UNL     1       6.938  -5.037  25.105  0.00  0.00    +0.210 HD
ENDBRANCH  30  34
BRANCH  29  36
ATOM     36  O   UNL     1       5.678  -5.286  21.043  0.00  0.00    -0.386 OA
ATOM     37  H   UNL     1       5.070  -4.509  21.071  0.00  0.00    +0.210 HD
ENDBRANCH  29  36
BRANCH  28  38
ATOM     38  C   UNL     1       4.274  -6.891  24.200  0.00  0.00    +0.190 C 
BRANCH  38  39
ATOM     39  O   UNL     1       3.274  -7.851  23.860  0.00  0.00    -0.392 OA
ATOM     40  H   UNL     1       3.772  -8.675  23.664  0.00  0.00    +0.210 HD
ENDBRANCH  38  39
ENDBRANCH  28  38
ENDBRANCH  25  26
ENDBRANCH  17  25
ENDBRANCH  11  12
ENDBRANCH   6  11
BRANCH   3  41
ATOM     41  C   UNL     1       6.731   4.817  27.134  0.00  0.00    +0.190 C 
BRANCH  41  42
ATOM     42  O   UNL     1       6.636   5.734  26.068  0.00  0.00    -0.392 OA
ATOM     43  H   UNL     1       5.945   5.389  25.472  0.00  0.00    +0.210 HD
ENDBRANCH  41  42
ENDBRANCH   3  41
BRANCH   1  44
ATOM     44  O   UNL     1       7.553   2.296  25.644  0.00  0.00    -0.453 OA
BRANCH  44  55
ATOM     45  C   UNL     1       8.514   1.362  23.683  0.00  0.00    +0.181 A 
ATOM     46  O   UNL     1       9.808   2.247  23.653  0.00  0.00    -0.451 OA
ATOM     47  C   UNL     1       9.873   3.709  23.849  0.00  0.00    +0.147 A 
ATOM     48  C   UNL     1       8.767   4.447  23.651  0.00  0.00    +0.109 A 
ATOM     49  C   UNL     1       8.856   5.859  23.482  0.00  0.00    +0.135 A 
ATOM     50  C   UNL     1      10.085   6.552  23.546  0.00  0.00    +0.091 A 
ATOM     51  C   UNL     1      11.217   5.849  23.879  0.00  0.00    +0.124 A 
ATOM     52  C   UNL     1       7.537   3.600  23.639  0.00  0.00    +0.238 A 
ATOM     53  O   UNL     1       6.512   4.150  23.245  0.00  0.00    -0.283 OA
ATOM     54  C   UNL     1      11.103   4.460  24.081  0.00  0.00    +0.092 A 
ATOM     55  C   UNL     1       7.608   2.194  24.230  0.00  0.00    +0.214 A 
BRANCH  45  57
ATOM     56  C   UNL     1       9.454  -1.322  23.012  0.00  0.00    +0.015 A 
ATOM     57  C   UNL     1       8.766  -0.440  23.902  0.00  0.00    +0.025 A 
ATOM     58  C   UNL     1       8.465  -1.266  25.081  0.00  0.00    +0.060 A 
ATOM     59  C   UNL     1       8.753  -2.610  25.391  0.00  0.00    +0.159 A 
ATOM     60  C   UNL     1       9.504  -3.335  24.536  0.00  0.00    +0.158 A 
ATOM     61  C   UNL     1       9.879  -2.695  23.360  0.00  0.00    +0.050 A 
BRANCH  60  62
ATOM     62  O   UNL     1       9.874  -4.597  24.870  0.00  0.00    -0.503 OA
ATOM     63  H   UNL     1      10.836  -4.654  24.725  0.00  0.00    +0.292 HD
ENDBRANCH  60  62
BRANCH  59  64
ATOM     64  O   UNL     1       8.300  -3.084  26.594  0.00  0.00    -0.503 OA
ATOM     65  H   UNL     1       9.025  -3.557  27.037  0.00  0.00    +0.292 HD
ENDBRANCH  59  64
ENDBRANCH  45  57
BRANCH  51  66
ATOM     66  O   UNL     1      12.447   6.456  23.974  0.00  0.00    -0.507 OA
ATOM     67  H   UNL     1      12.887   6.209  24.812  0.00  0.00    +0.292 HD
ENDBRANCH  51  66
BRANCH  49  68
ATOM     68  O   UNL     1       7.802   6.632  23.200  0.00  0.00    -0.506 OA
ATOM     69  H   UNL     1       7.785   7.371  23.842  0.00  0.00    +0.292 HD
ENDBRANCH  49  68
ENDBRANCH  44  55
ENDBRANCH   1  44
TORSDOF 24
ENDMDL
MODEL 6
REMARK VINA RESULT:      -6.9      2.204      5.645
REMARK  Name = 
REMARK  24 active torsions:
REMARK  status: ('A' for Active; 'I' for Inactive)
REMARK    1  A    between atoms: C_3  and  O_70
REMARK    2  A    between atoms: C_4  and  O_69
REMARK    3  A    between atoms: C_6  and  C_7
REMARK    4  A    between atoms: C_8  and  O_20
REMARK    5  A    between atoms: C_12  and  O_19
REMARK    6  A    between atoms: C_14  and  O_18
REMARK    7  A    between atoms: O_20  and  C_21
REMARK    8  A    between atoms: C_23  and  O_36
REMARK    9  A    between atoms: C_25  and  O_35
REMARK   10  A    between atoms: C_27  and  O_34
REMARK   11  A    between atoms: C_29  and  C_32
REMARK   12  A    between atoms: C_32  and  O_33
REMARK   13  A    between atoms: O_36  and  C_37
REMARK   14  A    between atoms: C_39  and  O_52
REMARK   15  A    between atoms: C_41  and  O_51
REMARK   16  A    between atoms: C_43  and  O_50
REMARK   17  A    between atoms: C_45  and  C_48
REMARK   18  A    between atoms: C_48  and  O_49
REMARK   19  A    between atoms: O_52  and  C_53
REMARK   20  A    between atoms: C_55  and  O_68
REMARK   21  A    between atoms: C_57  and  O_67
REMARK   22  A    between atoms: C_59  and  O_66
REMARK   23  A    between atoms: C_61  and  C_64
REMARK   24  A    between atoms: C_64  and  O_65
REMARK                            x       y       z     vdW  Elec       q    Type
REMARK                         _______ _______ _______ _____ _____    ______ ____
ROOT
ATOM      1  C   UNL     1       6.085   2.361  26.211  0.00  0.00    +0.340 C 
ATOM      2  O   UNL     1       5.390   3.579  26.445  0.00  0.00    -0.331 OA
ATOM      3  C   UNL     1       5.695   4.247  27.641  0.00  0.00    +0.179 C 
ATOM      4  C   UNL     1       5.567   3.299  28.857  0.00  0.00    +0.177 C 
ATOM      5  C   UNL     1       6.394   2.036  28.749  0.00  0.00    +0.180 C 
ATOM      6  C   UNL     1       6.020   1.195  27.512  0.00  0.00    +0.221 C 
ENDROOT
BRANCH   5   7
ATOM      7  O   UNL     1       7.791   2.431  28.666  0.00  0.00    -0.386 OA
ATOM      8  H   UNL     1       7.957   2.980  27.870  0.00  0.00    +0.210 HD
ENDBRANCH   5   7
BRANCH   4   9
ATOM      9  O   UNL     1       4.195   2.910  29.010  0.00  0.00    -0.386 OA
ATOM     10  H   UNL     1       3.770   2.882  28.133  0.00  0.00    +0.210 HD
ENDBRANCH   4   9
BRANCH   6  11
ATOM     11  O   UNL     1       5.268  -0.187  27.754  0.00  0.00    -0.337 OA
BRANCH  11  12
ATOM     12  C   UNL     1       4.615  -1.278  26.766  0.00  0.00    +0.283 C 
ATOM     13  O   UNL     1       3.283  -0.882  26.324  0.00  0.00    -0.341 OA
ATOM     14  C   UNL     1       2.189  -1.078  27.251  0.00  0.00    +0.178 C 
ATOM     15  C   UNL     1       2.173  -2.444  27.993  0.00  0.00    +0.177 C 
ATOM     16  C   UNL     1       3.574  -2.875  28.288  0.00  0.00    +0.179 C 
ATOM     17  C   UNL     1       4.479  -2.831  27.043  0.00  0.00    +0.208 C 
BRANCH  16  18
ATOM     18  O   UNL     1       4.027  -1.986  29.338  0.00  0.00    -0.386 OA
ATOM     19  H   UNL     1       4.461  -2.497  30.051  0.00  0.00    +0.210 HD
ENDBRANCH  16  18
BRANCH  15  20
ATOM     20  O   UNL     1       1.550  -3.485  27.239  0.00  0.00    -0.386 OA
ATOM     21  H   UNL     1       0.857  -3.888  27.798  0.00  0.00    +0.210 HD
ENDBRANCH  15  20
BRANCH  14  22
ATOM     22  C   UNL     1       2.177   0.180  28.133  0.00  0.00    +0.190 C 
BRANCH  22  23
ATOM     23  O   UNL     1       2.519   1.370  27.450  0.00  0.00    -0.392 OA
ATOM     24  H   UNL     1       2.611   2.069  28.121  0.00  0.00    +0.210 HD
ENDBRANCH  22  23
ENDBRANCH  14  22
BRANCH  17  25
ATOM     25  O   UNL     1       4.254  -3.787  25.910  0.00  0.00    -0.338 OA
BRANCH  25  26
ATOM     26  C   UNL     1       4.507  -5.248  26.082  0.00  0.00    +0.282 C 
ATOM     27  O   UNL     1       5.204  -5.881  24.980  0.00  0.00    -0.341 OA
ATOM     28  C   UNL     1       4.426  -6.238  23.796  0.00  0.00    +0.178 C 
ATOM     29  C   UNL     1       3.037  -6.909  24.004  0.00  0.00    +0.177 C 
ATOM     30  C   UNL     1       2.339  -6.279  25.173  0.00  0.00    +0.179 C 
ATOM     31  C   UNL     1       3.339  -6.208  26.317  0.00  0.00    +0.201 C 
BRANCH  31  32
ATOM     32  O   UNL     1       3.727  -7.496  26.814  0.00  0.00    -0.384 OA
ATOM     33  H   UNL     1       4.491  -7.379  27.417  0.00  0.00    +0.210 HD
ENDBRANCH  31  32
BRANCH  30  34
ATOM     34  O   UNL     1       1.783  -5.039  24.770  0.00  0.00    -0.386 OA
ATOM     35  H   UNL     1       1.737  -4.990  23.801  0.00  0.00    +0.210 HD
ENDBRANCH  30  34
BRANCH  29  36
ATOM     36  O   UNL     1       3.165  -8.312  24.306  0.00  0.00    -0.386 OA
ATOM     37  H   UNL     1       2.253  -8.686  24.350  0.00  0.00    +0.210 HD
ENDBRANCH  29  36
BRANCH  28  38
ATOM     38  C   UNL     1       4.376  -4.956  22.972  0.00  0.00    +0.190 C 
BRANCH  38  39
ATOM     39  O   UNL     1       5.281  -5.109  21.879  0.00  0.00    -0.392 OA
ATOM     40  H   UNL     1       4.708  -5.278  21.098  0.00  0.00    +0.210 HD
ENDBRANCH  38  39
ENDBRANCH  28  38
ENDBRANCH  25  26
ENDBRANCH  17  25
ENDBRANCH  11  12
ENDBRANCH   6  11
BRANCH   3  41
ATOM     41  C   UNL     1       6.998   5.008  27.381  0.00  0.00    +0.190 C 
BRANCH  41  42
ATOM     42  O   UNL     1       7.583   5.497  28.565  0.00  0.00    -0.392 OA
ATOM     43  H   UNL     1       8.020   6.336  28.327  0.00  0.00    +0.210 HD
ENDBRANCH  41  42
ENDBRANCH   3  41
BRANCH   1  44
ATOM     44  O   UNL     1       7.408   2.509  25.695  0.00  0.00    -0.453 OA
BRANCH  44  55
ATOM     45  C   UNL     1       7.853   1.507  23.588  0.00  0.00    +0.181 A 
ATOM     46  O   UNL     1       9.333   2.002  23.440  0.00  0.00    -0.451 OA
ATOM     47  C   UNL     1       9.828   3.370  23.695  0.00  0.00    +0.147 A 
ATOM     48  C   UNL     1       8.962   4.396  23.671  0.00  0.00    +0.109 A 
ATOM     49  C   UNL     1       9.427   5.738  23.559  0.00  0.00    +0.135 A 
ATOM     50  C   UNL     1      10.801   6.059  23.503  0.00  0.00    +0.091 A 
ATOM     51  C   UNL     1      11.717   5.049  23.659  0.00  0.00    +0.124 A 
ATOM     52  C   UNL     1       7.549   3.924  23.771  0.00  0.00    +0.238 A 
ATOM     53  O   UNL     1       6.685   4.764  23.533  0.00  0.00    -0.283 OA
ATOM     54  C   UNL     1      11.238   3.733  23.809  0.00  0.00    +0.092 A 
ATOM     55  C   UNL     1       7.282   2.509  24.282  0.00  0.00    +0.214 A 
BRANCH  45  57
ATOM     56  C   UNL     1       7.386  -1.201  22.597  0.00  0.00    +0.015 A 
ATOM     57  C   UNL     1       7.608  -0.306  23.689  0.00  0.00    +0.025 A 
ATOM     58  C   UNL     1       7.758  -1.183  24.861  0.00  0.00    +0.060 A 
ATOM     59  C   UNL     1       7.733  -2.584  25.001  0.00  0.00    +0.159 A 
ATOM     60  C   UNL     1       7.628  -3.353  23.898  0.00  0.00    +0.158 A 
ATOM     61  C   UNL     1       7.479  -2.675  22.693  0.00  0.00    +0.050 A 
BRANCH  60  62
ATOM     62  O   UNL     1       7.705  -4.703  24.009  0.00  0.00    -0.503 OA
ATOM     63  H   UNL     1       7.975  -5.041  23.134  0.00  0.00    +0.292 HD
ENDBRANCH  60  62
BRANCH  59  64
ATOM     64  O   UNL     1       7.887  -3.088  26.266  0.00  0.00    -0.503 OA
ATOM     65  H   UNL     1       7.118  -2.828  26.801  0.00  0.00    +0.292 HD
ENDBRANCH  59  64
ENDBRANCH  45  57
BRANCH  51  66
ATOM     66  O   UNL     1      13.071   5.285  23.629  0.00  0.00    -0.507 OA
ATOM     67  H   UNL     1      13.552   4.484  23.337  0.00  0.00    +0.292 HD
ENDBRANCH  51  66
BRANCH  49  68
ATOM     68  O   UNL     1       8.610   6.792  23.446  0.00  0.00    -0.506 OA
ATOM     69  H   UNL     1       8.686   7.325  24.264  0.00  0.00    +0.292 HD
ENDBRANCH  49  68
ENDBRANCH  44  55
ENDBRANCH   1  44
TORSDOF 24
ENDMDL
MODEL 7
REMARK VINA RESULT:      -6.9      1.090      2.023
REMARK  Name = 
REMARK  24 active torsions:
REMARK  status: ('A' for Active; 'I' for Inactive)
REMARK    1  A    between atoms: C_3  and  O_70
REMARK    2  A    between atoms: C_4  and  O_69
REMARK    3  A    between atoms: C_6  and  C_7
REMARK    4  A    between atoms: C_8  and  O_20
REMARK    5  A    between atoms: C_12  and  O_19
REMARK    6  A    between atoms: C_14  and  O_18
REMARK    7  A    between atoms: O_20  and  C_21
REMARK    8  A    between atoms: C_23  and  O_36
REMARK    9  A    between atoms: C_25  and  O_35
REMARK   10  A    between atoms: C_27  and  O_34
REMARK   11  A    between atoms: C_29  and  C_32
REMARK   12  A    between atoms: C_32  and  O_33
REMARK   13  A    between atoms: O_36  and  C_37
REMARK   14  A    between atoms: C_39  and  O_52
REMARK   15  A    between atoms: C_41  and  O_51
REMARK   16  A    between atoms: C_43  and  O_50
REMARK   17  A    between atoms: C_45  and  C_48
REMARK   18  A    between atoms: C_48  and  O_49
REMARK   19  A    between atoms: O_52  and  C_53
REMARK   20  A    between atoms: C_55  and  O_68
REMARK   21  A    between atoms: C_57  and  O_67
REMARK   22  A    between atoms: C_59  and  O_66
REMARK   23  A    between atoms: C_61  and  C_64
REMARK   24  A    between atoms: C_64  and  O_65
REMARK                            x       y       z     vdW  Elec       q    Type
REMARK                         _______ _______ _______ _____ _____    ______ ____
ROOT
ATOM      1  C   UNL     1       7.948  -0.167  24.334  0.00  0.00    +0.340 C 
ATOM      2  O   UNL     1       9.259  -0.355  24.852  0.00  0.00    -0.331 OA
ATOM      3  C   UNL     1      10.270  -0.595  23.909  0.00  0.00    +0.179 C 
ATOM      4  C   UNL     1       9.883  -1.755  22.961  0.00  0.00    +0.177 C 
ATOM      5  C   UNL     1       8.558  -1.563  22.255  0.00  0.00    +0.180 C 
ATOM      6  C   UNL     1       7.385  -1.412  23.244  0.00  0.00    +0.221 C 
ENDROOT
BRANCH   5   7
ATOM      7  O   UNL     1       8.664  -0.366  21.438  0.00  0.00    -0.386 OA
ATOM      8  H   UNL     1       9.572  -0.257  21.085  0.00  0.00    +0.210 HD
ENDBRANCH   5   7
BRANCH   4   9
ATOM      9  O   UNL     1       9.804  -2.973  23.713  0.00  0.00    -0.386 OA
ATOM     10  H   UNL     1       9.693  -2.761  24.658  0.00  0.00    +0.210 HD
ENDBRANCH   4   9
BRANCH   6  11
ATOM     11  O   UNL     1       6.334  -2.605  23.337  0.00  0.00    -0.337 OA
BRANCH  11  12
ATOM     12  C   UNL     1       5.962  -3.662  24.493  0.00  0.00    +0.283 C 
ATOM     13  O   UNL     1       6.846  -4.821  24.475  0.00  0.00    -0.341 OA
ATOM     14  C   UNL     1       6.591  -5.836  23.476  0.00  0.00    +0.178 C 
ATOM     15  C   UNL     1       5.101  -6.239  23.291  0.00  0.00    +0.177 C 
ATOM     16  C   UNL     1       4.227  -5.039  23.469  0.00  0.00    +0.179 C 
ATOM     17  C   UNL     1       4.530  -4.279  24.773  0.00  0.00    +0.208 C 
BRANCH  16  18
ATOM     18  O   UNL     1       4.453  -4.231  22.288  0.00  0.00    -0.386 OA
ATOM     19  H   UNL     1       4.096  -4.682  21.496  0.00  0.00    +0.210 HD
ENDBRANCH  16  18
BRANCH  15  20
ATOM     20  O   UNL     1       4.668  -7.231  24.222  0.00  0.00    -0.386 OA
ATOM     21  H   UNL     1       4.831  -6.890  25.124  0.00  0.00    +0.210 HD
ENDBRANCH  15  20
BRANCH  14  22
ATOM     22  C   UNL     1       7.332  -5.358  22.217  0.00  0.00    +0.190 C 
BRANCH  22  23
ATOM     23  O   UNL     1       6.706  -5.724  21.002  0.00  0.00    -0.392 OA
ATOM     24  H   UNL     1       7.072  -5.149  20.308  0.00  0.00    +0.210 HD
ENDBRANCH  22  23
ENDBRANCH  14  22
BRANCH  17  25
ATOM     25  O   UNL     1       4.219  -4.901  26.102  0.00  0.00    -0.338 OA
BRANCH  25  26
ATOM     26  C   UNL     1       2.888  -4.700  26.746  0.00  0.00    +0.282 C 
ATOM     27  O   UNL     1       2.916  -4.616  28.193  0.00  0.00    -0.341 OA
ATOM     28  C   UNL     1       3.001  -5.865  28.946  0.00  0.00    +0.178 C 
ATOM     29  C   UNL     1       2.104  -7.056  28.499  0.00  0.00    +0.177 C 
ATOM     30  C   UNL     1       2.044  -7.111  27.000  0.00  0.00    +0.179 C 
ATOM     31  C   UNL     1       1.757  -5.701  26.504  0.00  0.00    +0.201 C 
BRANCH  31  32
ATOM     32  O   UNL     1       0.457  -5.222  26.874  0.00  0.00    -0.384 OA
ATOM     33  H   UNL     1       0.144  -4.605  26.179  0.00  0.00    +0.210 HD
ENDBRANCH  31  32
BRANCH  30  34
ATOM     34  O   UNL     1       3.234  -7.701  26.507  0.00  0.00    -0.386 OA
ATOM     35  H   UNL     1       3.924  -7.025  26.397  0.00  0.00    +0.210 HD
ENDBRANCH  30  34
BRANCH  29  36
ATOM     36  O   UNL     1       0.748  -6.904  28.961  0.00  0.00    -0.386 OA
ATOM     37  H   UNL     1       0.763  -6.249  29.699  0.00  0.00    +0.210 HD
ENDBRANCH  29  36
BRANCH  28  38
ATOM     38  C   UNL     1       4.490  -6.190  28.979  0.00  0.00    +0.190 C 
BRANCH  38  39
ATOM     39  O   UNL     1       4.621  -7.609  29.066  0.00  0.00    -0.392 OA
ATOM     40  H   UNL     1       4.667  -7.917  28.134  0.00  0.00    +0.210 HD
ENDBRANCH  38  39
ENDBRANCH  28  38
ENDBRANCH  25  26
ENDBRANCH  17  25
ENDBRANCH  11  12
ENDBRANCH   6  11
BRANCH   3  41
ATOM     41  C   UNL     1      10.658   0.774  23.346  0.00  0.00    +0.190 C 
BRANCH  41  42
ATOM     42  O   UNL     1      11.379   1.554  24.273  0.00  0.00    -0.392 OA
ATOM     43  H   UNL     1      11.177   1.187  25.154  0.00  0.00    +0.210 HD
ENDBRANCH  41  42
ENDBRANCH   3  41
BRANCH   1  44
ATOM     44  O   UNL     1       7.678   1.142  23.832  0.00  0.00    -0.453 OA
BRANCH  44  55
ATOM     45  C   UNL     1       6.421   2.111  25.599  0.00  0.00    +0.181 A 
ATOM     46  O   UNL     1       5.696   3.211  24.749  0.00  0.00    -0.451 OA
ATOM     47  C   UNL     1       6.324   4.101  23.751  0.00  0.00    +0.147 A 
ATOM     48  C   UNL     1       7.649   4.316  23.805  0.00  0.00    +0.109 A 
ATOM     49  C   UNL     1       8.238   5.412  23.111  0.00  0.00    +0.135 A 
ATOM     50  C   UNL     1       7.478   6.297  22.315  0.00  0.00    +0.091 A 
ATOM     51  C   UNL     1       6.143   6.031  22.129  0.00  0.00    +0.124 A 
ATOM     52  C   UNL     1       8.336   3.292  24.648  0.00  0.00    +0.238 A 
ATOM     53  O   UNL     1       9.505   3.534  24.937  0.00  0.00    -0.283 OA
ATOM     54  C   UNL     1       5.588   4.920  22.792  0.00  0.00    +0.092 A 
ATOM     55  C   UNL     1       7.603   1.991  24.967  0.00  0.00    +0.214 A 
BRANCH  45  57
ATOM     56  C   UNL     1       5.727  -0.478  26.759  0.00  0.00    +0.015 A 
ATOM     57  C   UNL     1       5.348   0.846  26.376  0.00  0.00    +0.025 A 
ATOM     58  C   UNL     1       3.980   1.003  26.894  0.00  0.00    +0.060 A 
ATOM     59  C   UNL     1       3.143   0.141  27.628  0.00  0.00    +0.159 A 
ATOM     60  C   UNL     1       3.626  -1.050  28.040  0.00  0.00    +0.158 A 
ATOM     61  C   UNL     1       4.919  -1.357  27.635  0.00  0.00    +0.050 A 
BRANCH  60  62
ATOM     62  O   UNL     1       2.865  -1.846  28.833  0.00  0.00    -0.503 OA
ATOM     63  H   UNL     1       2.224  -1.264  29.281  0.00  0.00    +0.292 HD
ENDBRANCH  60  62
BRANCH  59  64
ATOM     64  O   UNL     1       1.890   0.600  27.938  0.00  0.00    -0.503 OA
ATOM     65  H   UNL     1       1.924   1.040  28.805  0.00  0.00    +0.292 HD
ENDBRANCH  59  64
ENDBRANCH  45  57
BRANCH  51  66
ATOM     66  O   UNL     1       5.343   6.840  21.358  0.00  0.00    -0.507 OA
ATOM     67  H   UNL     1       4.504   7.035  21.824  0.00  0.00    +0.292 HD
ENDBRANCH  51  66
BRANCH  49  68
ATOM     68  O   UNL     1       9.536   5.722  23.195  0.00  0.00    -0.506 OA
ATOM     69  H   UNL     1      10.045   5.039  22.713  0.00  0.00    +0.292 HD
ENDBRANCH  49  68
ENDBRANCH  44  55
ENDBRANCH   1  44
TORSDOF 24
ENDMDL
MODEL 8
REMARK VINA RESULT:      -6.8      1.484      2.652
REMARK  Name = 
REMARK  24 active torsions:
REMARK  status: ('A' for Active; 'I' for Inactive)
REMARK    1  A    between atoms: C_3  and  O_70
REMARK    2  A    between atoms: C_4  and  O_69
REMARK    3  A    between atoms: C_6  and  C_7
REMARK    4  A    between atoms: C_8  and  O_20
REMARK    5  A    between atoms: C_12  and  O_19
REMARK    6  A    between atoms: C_14  and  O_18
REMARK    7  A    between atoms: O_20  and  C_21
REMARK    8  A    between atoms: C_23  and  O_36
REMARK    9  A    between atoms: C_25  and  O_35
REMARK   10  A    between atoms: C_27  and  O_34
REMARK   11  A    between atoms: C_29  and  C_32
REMARK   12  A    between atoms: C_32  and  O_33
REMARK   13  A    between atoms: O_36  and  C_37
REMARK   14  A    between atoms: C_39  and  O_52
REMARK   15  A    between atoms: C_41  and  O_51
REMARK   16  A    between atoms: C_43  and  O_50
REMARK   17  A    between atoms: C_45  and  C_48
REMARK   18  A    between atoms: C_48  and  O_49
REMARK   19  A    between atoms: O_52  and  C_53
REMARK   20  A    between atoms: C_55  and  O_68
REMARK   21  A    between atoms: C_57  and  O_67
REMARK   22  A    between atoms: C_59  and  O_66
REMARK   23  A    between atoms: C_61  and  C_64
REMARK   24  A    between atoms: C_64  and  O_65
REMARK                            x       y       z     vdW  Elec       q    Type
REMARK                         _______ _______ _______ _____ _____    ______ ____
ROOT
ATOM      1  C   UNL     1       8.385   0.323  24.257  0.00  0.00    +0.340 C 
ATOM      2  O   UNL     1       9.794   0.429  24.414  0.00  0.00    -0.331 OA
ATOM      3  C   UNL     1      10.557   0.345  23.239  0.00  0.00    +0.179 C 
ATOM      4  C   UNL     1      10.190  -0.920  22.426  0.00  0.00    +0.177 C 
ATOM      5  C   UNL     1       8.717  -1.037  22.092  0.00  0.00    +0.180 C 
ATOM      6  C   UNL     1       7.832  -1.068  23.354  0.00  0.00    +0.221 C 
ENDROOT
BRANCH   5   7
ATOM      7  O   UNL     1       8.361   0.111  21.275  0.00  0.00    -0.386 OA
ATOM      8  H   UNL     1       7.964  -0.169  20.423  0.00  0.00    +0.210 HD
ENDBRANCH   5   7
BRANCH   4   9
ATOM      9  O   UNL     1      10.560  -2.086  23.174  0.00  0.00    -0.386 OA
ATOM     10  H   UNL     1      11.482  -1.993  23.478  0.00  0.00    +0.210 HD
ENDBRANCH   4   9
BRANCH   6  11
ATOM     11  O   UNL     1       7.111  -2.440  23.720  0.00  0.00    -0.337 OA
BRANCH  11  12
ATOM     12  C   UNL     1       6.362  -2.977  25.040  0.00  0.00    +0.283 C 
ATOM     13  O   UNL     1       7.225  -2.925  26.214  0.00  0.00    -0.341 OA
ATOM     14  C   UNL     1       8.214  -3.972  26.359  0.00  0.00    +0.178 C 
ATOM     15  C   UNL     1       7.713  -5.415  26.069  0.00  0.00    +0.177 C 
ATOM     16  C   UNL     1       6.715  -5.390  24.955  0.00  0.00    +0.179 C 
ATOM     17  C   UNL     1       5.598  -4.356  25.189  0.00  0.00    +0.208 C 
BRANCH  16  18
ATOM     18  O   UNL     1       7.491  -5.112  23.764  0.00  0.00    -0.386 OA
ATOM     19  H   UNL     1       7.627  -5.933  23.249  0.00  0.00    +0.210 HD
ENDBRANCH  16  18
BRANCH  15  20
ATOM     20  O   UNL     1       7.086  -6.029  27.196  0.00  0.00    -0.386 OA
ATOM     21  H   UNL     1       6.135  -5.804  27.172  0.00  0.00    +0.210 HD
ENDBRANCH  15  20
BRANCH  14  22
ATOM     22  C   UNL     1       9.429  -3.494  25.549  0.00  0.00    +0.190 C 
BRANCH  22  23
ATOM     23  O   UNL     1      10.093  -4.521  24.838  0.00  0.00    -0.392 OA
ATOM     24  H   UNL     1      10.545  -5.078  25.495  0.00  0.00    +0.210 HD
ENDBRANCH  22  23
ENDBRANCH  14  22
BRANCH  17  25
ATOM     25  O   UNL     1       4.601  -4.556  26.291  0.00  0.00    -0.338 OA
BRANCH  25  26
ATOM     26  C   UNL     1       4.013  -5.902  26.553  0.00  0.00    +0.282 C 
ATOM     27  O   UNL     1       3.349  -6.511  25.418  0.00  0.00    -0.341 OA
ATOM     28  C   UNL     1       1.993  -6.070  25.104  0.00  0.00    +0.178 C 
ATOM     29  C   UNL     1       0.985  -5.895  26.278  0.00  0.00    +0.177 C 
ATOM     30  C   UNL     1       1.689  -5.305  27.466  0.00  0.00    +0.179 C 
ATOM     31  C   UNL     1       2.979  -6.087  27.666  0.00  0.00    +0.201 C 
BRANCH  31  32
ATOM     32  O   UNL     1       2.763  -7.451  28.050  0.00  0.00    -0.384 OA
ATOM     33  H   UNL     1       3.621  -7.834  28.329  0.00  0.00    +0.210 HD
ENDBRANCH  31  32
BRANCH  30  34
ATOM     34  O   UNL     1       1.844  -3.910  27.269  0.00  0.00    -0.386 OA
ATOM     35  H   UNL     1       1.860  -3.450  28.124  0.00  0.00    +0.210 HD
ENDBRANCH  30  34
BRANCH  29  36
ATOM     36  O   UNL     1       0.443  -7.160  26.706  0.00  0.00    -0.386 OA
ATOM     37  H   UNL     1      -0.517  -7.157  26.480  0.00  0.00    +0.210 HD
ENDBRANCH  29  36
BRANCH  28  38
ATOM     38  C   UNL     1       2.185  -4.813  24.263  0.00  0.00    +0.190 C 
BRANCH  38  39
ATOM     39  O   UNL     1       2.676  -5.219  22.985  0.00  0.00    -0.392 OA
ATOM     40  H   UNL     1       3.651  -5.114  23.044  0.00  0.00    +0.210 HD
ENDBRANCH  38  39
ENDBRANCH  28  38
ENDBRANCH  25  26
ENDBRANCH  17  25
ENDBRANCH  11  12
ENDBRANCH   6  11
BRANCH   3  41
ATOM     41  C   UNL     1      10.495   1.731  22.593  0.00  0.00    +0.190 C 
BRANCH  41  42
ATOM     42  O   UNL     1      11.272   2.683  23.282  0.00  0.00    -0.392 OA
ATOM     43  H   UNL     1      10.641   3.298  23.701  0.00  0.00    +0.210 HD
ENDBRANCH  41  42
ENDBRANCH   3  41
BRANCH   1  44
ATOM     44  O   UNL     1       7.730   1.521  23.842  0.00  0.00    -0.453 OA
BRANCH  44  55
ATOM     45  C   UNL     1       6.637   2.397  25.760  0.00  0.00    +0.181 A 
ATOM     46  O   UNL     1       5.697   3.405  25.013  0.00  0.00    -0.451 OA
ATOM     47  C   UNL     1       6.091   4.333  23.933  0.00  0.00    +0.147 A 
ATOM     48  C   UNL     1       7.384   4.676  23.803  0.00  0.00    +0.109 A 
ATOM     49  C   UNL     1       7.761   5.811  23.029  0.00  0.00    +0.135 A 
ATOM     50  C   UNL     1       6.815   6.604  22.341  0.00  0.00    +0.091 A 
ATOM     51  C   UNL     1       5.501   6.206  22.342  0.00  0.00    +0.124 A 
ATOM     52  C   UNL     1       8.278   3.740  24.548  0.00  0.00    +0.238 A 
ATOM     53  O   UNL     1       9.446   4.099  24.672  0.00  0.00    -0.283 OA
ATOM     54  C   UNL     1       5.154   5.058  23.081  0.00  0.00    +0.092 A 
ATOM     55  C   UNL     1       7.728   2.380  24.972  0.00  0.00    +0.214 A 
BRANCH  45  57
ATOM     56  C   UNL     1       5.814   0.854  28.101  0.00  0.00    +0.015 A 
ATOM     57  C   UNL     1       5.811   1.048  26.685  0.00  0.00    +0.025 A 
ATOM     58  C   UNL     1       4.874   0.034  26.176  0.00  0.00    +0.060 A 
ATOM     59  C   UNL     1       4.087  -0.936  26.827  0.00  0.00    +0.159 A 
ATOM     60  C   UNL     1       4.071  -0.973  28.175  0.00  0.00    +0.158 A 
ATOM     61  C   UNL     1       4.908  -0.069  28.820  0.00  0.00    +0.050 A 
BRANCH  60  62
ATOM     62  O   UNL     1       3.242  -1.835  28.816  0.00  0.00    -0.503 OA
ATOM     63  H   UNL     1       3.288  -2.680  28.331  0.00  0.00    +0.292 HD
ENDBRANCH  60  62
BRANCH  59  64
ATOM     64  O   UNL     1       3.324  -1.755  26.036  0.00  0.00    -0.503 OA
ATOM     65  H   UNL     1       3.865  -2.061  25.289  0.00  0.00    +0.292 HD
ENDBRANCH  59  64
ENDBRANCH  45  57
BRANCH  51  66
ATOM     66  O   UNL     1       4.526   6.918  21.685  0.00  0.00    -0.507 OA
ATOM     67  H   UNL     1       4.658   7.879  21.816  0.00  0.00    +0.292 HD
ENDBRANCH  51  66
BRANCH  49  68
ATOM     68  O   UNL     1       9.021   6.248  22.931  0.00  0.00    -0.506 OA
ATOM     69  H   UNL     1       9.275   6.643  23.791  0.00  0.00    +0.292 HD
ENDBRANCH  49  68
ENDBRANCH  44  55
ENDBRANCH   1  44
TORSDOF 24
ENDMDL
MODEL 9
REMARK VINA RESULT:      -6.6      2.259     10.077
REMARK  Name = 
REMARK  24 active torsions:
REMARK  status: ('A' for Active; 'I' for Inactive)
REMARK    1  A    between atoms: C_3  and  O_70
REMARK    2  A    between atoms: C_4  and  O_69
REMARK    3  A    between atoms: C_6  and  C_7
REMARK    4  A    between atoms: C_8  and  O_20
REMARK    5  A    between atoms: C_12  and  O_19
REMARK    6  A    between atoms: C_14  and  O_18
REMARK    7  A    between atoms: O_20  and  C_21
REMARK    8  A    between atoms: C_23  and  O_36
REMARK    9  A    between atoms: C_25  and  O_35
REMARK   10  A    between atoms: C_27  and  O_34
REMARK   11  A    between atoms: C_29  and  C_32
REMARK   12  A    between atoms: C_32  and  O_33
REMARK   13  A    between atoms: O_36  and  C_37
REMARK   14  A    between atoms: C_39  and  O_52
REMARK   15  A    between atoms: C_41  and  O_51
REMARK   16  A    between atoms: C_43  and  O_50
REMARK   17  A    between atoms: C_45  and  C_48
REMARK   18  A    between atoms: C_48  and  O_49
REMARK   19  A    between atoms: O_52  and  C_53
REMARK   20  A    between atoms: C_55  and  O_68
REMARK   21  A    between atoms: C_57  and  O_67
REMARK   22  A    between atoms: C_59  and  O_66
REMARK   23  A    between atoms: C_61  and  C_64
REMARK   24  A    between atoms: C_64  and  O_65
REMARK                            x       y       z     vdW  Elec       q    Type
REMARK                         _______ _______ _______ _____ _____    ______ ____
ROOT
ATOM      1  C   UNL     1       4.202  -3.251  27.835  0.00  0.00    +0.340 C 
ATOM      2  O   UNL     1       3.416  -3.765  28.902  0.00  0.00    -0.331 OA
ATOM      3  C   UNL     1       2.066  -3.381  28.919  0.00  0.00    +0.179 C 
ATOM      4  C   UNL     1       1.924  -1.843  28.824  0.00  0.00    +0.177 C 
ATOM      5  C   UNL     1       2.618  -1.229  27.627  0.00  0.00    +0.180 C 
ATOM      6  C   UNL     1       4.132  -1.518  27.616  0.00  0.00    +0.221 C 
ENDROOT
BRANCH   5   7
ATOM      7  O   UNL     1       2.006  -1.786  26.432  0.00  0.00    -0.386 OA
ATOM      8  H   UNL     1       1.358  -1.162  26.040  0.00  0.00    +0.210 HD
ENDBRANCH   5   7
BRANCH   4   9
ATOM      9  O   UNL     1       2.478  -1.244  30.003  0.00  0.00    -0.386 OA
ATOM     10  H   UNL     1       3.218  -0.662  29.751  0.00  0.00    +0.210 HD
ENDBRANCH   4   9
BRANCH   6  11
ATOM     11  O   UNL     1       5.122  -0.303  27.895  0.00  0.00    -0.337 OA
BRANCH  11  12
ATOM     12  C   UNL     1       6.047   0.610  26.944  0.00  0.00    +0.283 C 
ATOM     13  O   UNL     1       7.133   1.239  27.685  0.00  0.00    -0.341 OA
ATOM     14  C   UNL     1       6.809   2.406  28.478  0.00  0.00    +0.178 C 
ATOM     15  C   UNL     1       5.893   3.455  27.788  0.00  0.00    +0.177 C 
ATOM     16  C   UNL     1       4.892   2.760  26.921  0.00  0.00    +0.179 C 
ATOM     17  C   UNL     1       5.546   1.748  25.963  0.00  0.00    +0.208 C 
BRANCH  16  18
ATOM     18  O   UNL     1       3.967   2.136  27.844  0.00  0.00    -0.386 OA
ATOM     19  H   UNL     1       3.106   2.602  27.828  0.00  0.00    +0.210 HD
ENDBRANCH  16  18
BRANCH  15  20
ATOM     20  O   UNL     1       6.613   4.374  26.965  0.00  0.00    -0.386 OA
ATOM     21  H   UNL     1       7.565   4.168  27.045  0.00  0.00    +0.210 HD
ENDBRANCH  15  20
BRANCH  14  22
ATOM     22  C   UNL     1       6.323   1.855  29.827  0.00  0.00    +0.190 C 
BRANCH  22  23
ATOM     23  O   UNL     1       5.282   2.608  30.420  0.00  0.00    -0.392 OA
ATOM     24  H   UNL     1       5.447   3.542  30.205  0.00  0.00    +0.210 HD
ENDBRANCH  22  23
ENDBRANCH  14  22
BRANCH  17  25
ATOM     25  O   UNL     1       6.422   2.223  24.843  0.00  0.00    -0.338 OA
BRANCH  25  26
ATOM     26  C   UNL     1       7.406   1.303  24.200  0.00  0.00    +0.282 C 
ATOM     27  O   UNL     1       8.796   1.612  24.466  0.00  0.00    -0.341 OA
ATOM     28  C   UNL     1       9.417   2.684  23.692  0.00  0.00    +0.178 C 
ATOM     29  C   UNL     1       9.143   2.739  22.161  0.00  0.00    +0.177 C 
ATOM     30  C   UNL     1       7.713   2.375  21.888  0.00  0.00    +0.179 C 
ATOM     31  C   UNL     1       7.404   1.114  22.682  0.00  0.00    +0.201 C 
BRANCH  31  32
ATOM     32  O   UNL     1       8.133  -0.035  22.230  0.00  0.00    -0.384 OA
ATOM     33  H   UNL     1       7.548  -0.819  22.296  0.00  0.00    +0.210 HD
ENDBRANCH  31  32
BRANCH  30  34
ATOM     34  O   UNL     1       6.887   3.491  22.169  0.00  0.00    -0.386 OA
ATOM     35  H   UNL     1       7.375   4.318  22.018  0.00  0.00    +0.210 HD
ENDBRANCH  30  34
BRANCH  29  36
ATOM     36  O   UNL     1       9.955   1.790  21.441  0.00  0.00    -0.386 OA
ATOM     37  H   UNL     1      10.693   2.294  21.023  0.00  0.00    +0.210 HD
ENDBRANCH  29  36
BRANCH  28  38
ATOM     38  C   UNL     1       9.035   3.960  24.434  0.00  0.00    +0.190 C 
BRANCH  38  39
ATOM     39  O   UNL     1       9.121   5.042  23.506  0.00  0.00    -0.392 OA
ATOM     40  H   UNL     1       9.522   4.650  22.698  0.00  0.00    +0.210 HD
ENDBRANCH  38  39
ENDBRANCH  28  38
ENDBRANCH  25  26
ENDBRANCH  17  25
ENDBRANCH  11  12
ENDBRANCH   6  11
BRANCH   3  41
ATOM     41  C   UNL     1       1.353  -4.292  27.918  0.00  0.00    +0.190 C 
BRANCH  41  42
ATOM     42  O   UNL     1       1.153  -5.593  28.419  0.00  0.00    -0.392 OA
ATOM     43  H   UNL     1       0.287  -5.582  28.869  0.00  0.00    +0.210 HD
ENDBRANCH  41  42
ENDBRANCH   3  41
BRANCH   1  44
ATOM     44  O   UNL     1       4.071  -3.950  26.597  0.00  0.00    -0.453 OA
BRANCH  44  55
ATOM     45  C   UNL     1       5.919  -5.206  25.792  0.00  0.00    +0.181 A 
ATOM     46  O   UNL     1       5.191  -5.878  24.577  0.00  0.00    -0.451 OA
ATOM     47  C   UNL     1       3.856  -6.510  24.597  0.00  0.00    +0.147 A 
ATOM     48  C   UNL     1       3.345  -6.926  25.768  0.00  0.00    +0.109 A 
ATOM     49  C   UNL     1       2.251  -7.838  25.801  0.00  0.00    +0.135 A 
ATOM     50  C   UNL     1       1.633  -8.319  24.626  0.00  0.00    +0.091 A 
ATOM     51  C   UNL     1       2.041  -7.813  23.416  0.00  0.00    +0.124 A 
ATOM     52  C   UNL     1       4.065  -6.319  26.927  0.00  0.00    +0.238 A 
ATOM     53  O   UNL     1       3.818  -6.809  28.026  0.00  0.00    -0.283 OA
ATOM     54  C   UNL     1       3.098  -6.882  23.407  0.00  0.00    +0.092 A 
ATOM     55  C   UNL     1       4.925  -5.079  26.690  0.00  0.00    +0.214 A 
BRANCH  45  57
ATOM     56  C   UNL     1       8.129  -4.128  24.214  0.00  0.00    +0.015 A 
ATOM     57  C   UNL     1       7.313  -4.087  25.387  0.00  0.00    +0.025 A 
ATOM     58  C   UNL     1       7.736  -2.866  26.090  0.00  0.00    +0.060 A 
ATOM     59  C   UNL     1       8.688  -1.877  25.776  0.00  0.00    +0.159 A 
ATOM     60  C   UNL     1       9.334  -1.940  24.593  0.00  0.00    +0.158 A 
ATOM     61  C   UNL     1       9.045  -3.043  23.797  0.00  0.00    +0.050 A 
BRANCH  60  62
ATOM     62  O   UNL     1      10.179  -0.940  24.234  0.00  0.00    -0.503 OA
ATOM     63  H   UNL     1      10.756  -0.773  25.001  0.00  0.00    +0.292 HD
ENDBRANCH  60  62
BRANCH  59  64
ATOM     64  O   UNL     1       8.854  -0.860  26.678  0.00  0.00    -0.503 OA
ATOM     65  H   UNL     1       9.800  -0.782  26.891  0.00  0.00    +0.292 HD
ENDBRANCH  59  64
ENDBRANCH  45  57
BRANCH  51  66
ATOM     66  O   UNL     1       1.478  -8.223  22.231  0.00  0.00    -0.507 OA
ATOM     67  H   UNL     1       1.134  -7.454  21.732  0.00  0.00    +0.292 HD
ENDBRANCH  51  66
BRANCH  49  68
ATOM     68  O   UNL     1       1.757  -8.351  26.933  0.00  0.00    -0.506 OA
ATOM     69  H   UNL     1       1.580  -7.612  27.551  0.00  0.00    +0.292 HD
ENDBRANCH  49  68
ENDBRANCH  44  55
ENDBRANCH   1  44
TORSDOF 24
ENDMDL
