MODEL 1
REMARK VINA RESULT:      -7.4      0.000      0.000
REMARK  Name = 
REMARK  13 active torsions:
REMARK  status: ('A' for Active; 'I' for Inactive)
REMARK    1  A    between atoms: C_1  and  C_2
REMARK    2  A    between atoms: C_2  and  C_3
REMARK    3  A    between atoms: C_3  and  C_4
REMARK    4  A    between atoms: C_3  and  C_5
REMARK    5  A    between atoms: C_5  and  O_7
REMARK    6  A    between atoms: O_7  and  C_8
REMARK    7  A    between atoms: C_9  and  O_29
REMARK    8  A    between atoms: C_11  and  C_14
REMARK    9  A    between atoms: C_15  and  O_27
REMARK   10  A    between atoms: C_19  and  O_26
REMARK   11  A    between atoms: C_21  and  O_25
REMARK   12  A    between atoms: O_27  and  C_28
REMARK   13  A    between atoms: O_29  and  C_30
REMARK                            x       y       z     vdW  Elec       q    Type
REMARK                         _______ _______ _______ _____ _____    ______ ____
ROOT
ATOM      1  C   UNL     1       9.428   1.599  24.034  0.00  0.00    +0.181 A 
ATOM      2  O   UNL     1      10.741   1.992  23.802  0.00  0.00    -0.451 OA
ATOM      3  C   UNL     1      11.034   3.319  23.675  0.00  0.00    +0.147 A 
ATOM      4  C   UNL     1      10.072   4.311  23.785  0.00  0.00    +0.109 A 
ATOM      5  C   UNL     1      10.438   5.655  23.649  0.00  0.00    +0.135 A 
ATOM      6  C   UNL     1      11.764   6.004  23.405  0.00  0.00    +0.091 A 
ATOM      7  C   UNL     1      12.719   4.999  23.296  0.00  0.00    +0.124 A 
ATOM      8  C   UNL     1       8.689   3.907  24.042  0.00  0.00    +0.238 A 
ATOM      9  O   UNL     1       7.826   4.780  24.147  0.00  0.00    -0.283 OA
ATOM     10  C   UNL     1      12.365   3.659  23.429  0.00  0.00    +0.092 A 
ATOM     11  C   UNL     1       8.378   2.448  24.161  0.00  0.00    +0.211 A 
ENDROOT
BRANCH   1  15
ATOM     12  C   UNL     1       9.274  -2.653  24.177  0.00  0.00    +0.173 A 
ATOM     13  C   UNL     1       9.758  -2.003  23.034  0.00  0.00    +0.051 A 
ATOM     14  C   UNL     1       9.818  -0.615  22.999  0.00  0.00    +0.015 A 
ATOM     15  C   UNL     1       9.363   0.133  24.088  0.00  0.00    +0.025 A 
ATOM     16  C   UNL     1       8.885  -0.526  25.238  0.00  0.00    +0.061 A 
ATOM     17  C   UNL     1       8.817  -1.925  25.286  0.00  0.00    +0.163 A 
BRANCH  17  18
ATOM     18  O   UNL     1       8.315  -2.644  26.340  0.00  0.00    -0.491 OA
ATOM     19  C   UNL     1       6.990  -2.334  26.764  0.00  0.00    +0.277 C 
ENDBRANCH  17  18
BRANCH  12  20
ATOM     20  O   UNL     1       9.098  -4.054  24.144  0.00  0.00    -0.422 OA
BRANCH  20  21
ATOM     21  C   UNL     1       7.807  -4.523  23.900  0.00  0.00    +0.315 C 
ATOM     22  O   UNL     1       7.082  -5.090  24.708  0.00  0.00    -0.250 OA
BRANCH  21  23
ATOM     23  C   UNL     1       7.478  -4.331  22.423  0.00  0.00    +0.095 C 
ATOM     24  C   UNL     1       6.250  -3.433  22.270  0.00  0.00    +0.019 C 
BRANCH  23  26
ATOM     25  C   UNL     1       6.123  -5.782  20.794  0.00  0.00    +0.004 C 
ATOM     26  C   UNL     1       7.265  -5.721  21.798  0.00  0.00    +0.011 C 
ENDBRANCH  23  26
ENDBRANCH  21  23
ENDBRANCH  20  21
ENDBRANCH  12  20
ENDBRANCH   1  15
BRANCH   5  27
ATOM     27  O   UNL     1       9.541   6.686  23.743  0.00  0.00    -0.506 OA
ATOM     28  H   UNL     1       8.656   6.299  23.945  0.00  0.00    +0.292 HD
ENDBRANCH   5  27
BRANCH   7  29
ATOM     29  O   UNL     1      14.029   5.288  23.059  0.00  0.00    -0.507 OA
ATOM     30  H   UNL     1      14.577   4.561  23.400  0.00  0.00    +0.292 HD
ENDBRANCH   7  29
BRANCH  11  31
ATOM     31  O   UNL     1       7.045   2.200  24.379  0.00  0.00    -0.488 OA
ATOM     32  C   UNL     1       6.141   1.835  23.355  0.00  0.00    +0.277 C 
ENDBRANCH  11  31
TORSDOF 9
ENDMDL
MODEL 2
REMARK VINA RESULT:      -7.4      1.470      2.194
REMARK  Name = 
REMARK  13 active torsions:
REMARK  status: ('A' for Active; 'I' for Inactive)
REMARK    1  A    between atoms: C_1  and  C_2
REMARK    2  A    between atoms: C_2  and  C_3
REMARK    3  A    between atoms: C_3  and  C_4
REMARK    4  A    between atoms: C_3  and  C_5
REMARK    5  A    between atoms: C_5  and  O_7
REMARK    6  A    between atoms: O_7  and  C_8
REMARK    7  A    between atoms: C_9  and  O_29
REMARK    8  A    between atoms: C_11  and  C_14
REMARK    9  A    between atoms: C_15  and  O_27
REMARK   10  A    between atoms: C_19  and  O_26
REMARK   11  A    between atoms: C_21  and  O_25
REMARK   12  A    between atoms: O_27  and  C_28
REMARK   13  A    between atoms: O_29  and  C_30
REMARK                            x       y       z     vdW  Elec       q    Type
REMARK                         _______ _______ _______ _____ _____    ______ ____
ROOT
ATOM      1  C   UNL     1       9.076   1.589  23.758  0.00  0.00    +0.181 A 
ATOM      2  O   UNL     1      10.408   1.938  23.583  0.00  0.00    -0.451 OA
ATOM      3  C   UNL     1      10.763   3.257  23.566  0.00  0.00    +0.147 A 
ATOM      4  C   UNL     1       9.842   4.280  23.735  0.00  0.00    +0.109 A 
ATOM      5  C   UNL     1      10.270   5.613  23.712  0.00  0.00    +0.135 A 
ATOM      6  C   UNL     1      11.615   5.919  23.522  0.00  0.00    +0.091 A 
ATOM      7  C   UNL     1      12.527   4.883  23.353  0.00  0.00    +0.124 A 
ATOM      8  C   UNL     1       8.437   3.920  23.932  0.00  0.00    +0.238 A 
ATOM      9  O   UNL     1       7.611   4.820  24.089  0.00  0.00    -0.283 OA
ATOM     10  C   UNL     1      12.112   3.554  23.374  0.00  0.00    +0.092 A 
ATOM     11  C   UNL     1       8.060   2.472  23.931  0.00  0.00    +0.211 A 
ENDROOT
BRANCH   1  15
ATOM     12  C   UNL     1       8.697  -2.649  23.614  0.00  0.00    +0.173 A 
ATOM     13  C   UNL     1       9.637  -2.054  24.465  0.00  0.00    +0.051 A 
ATOM     14  C   UNL     1       9.747  -0.669  24.516  0.00  0.00    +0.015 A 
ATOM     15  C   UNL     1       8.945   0.127  23.695  0.00  0.00    +0.025 A 
ATOM     16  C   UNL     1       7.994  -0.476  22.849  0.00  0.00    +0.061 A 
ATOM     17  C   UNL     1       7.875  -1.871  22.785  0.00  0.00    +0.163 A 
BRANCH  17  18
ATOM     18  O   UNL     1       7.018  -2.541  21.951  0.00  0.00    -0.491 OA
ATOM     19  C   UNL     1       5.699  -2.781  22.433  0.00  0.00    +0.277 C 
ENDBRANCH  17  18
BRANCH  12  20
ATOM     20  O   UNL     1       8.691  -4.055  23.479  0.00  0.00    -0.422 OA
BRANCH  20  21
ATOM     21  C   UNL     1       8.709  -4.803  24.658  0.00  0.00    +0.315 C 
ATOM     22  O   UNL     1       9.580  -5.596  24.994  0.00  0.00    -0.250 OA
BRANCH  21  23
ATOM     23  C   UNL     1       7.406  -4.570  25.415  0.00  0.00    +0.095 C 
ATOM     24  C   UNL     1       7.605  -4.853  26.904  0.00  0.00    +0.019 C 
BRANCH  23  26
ATOM     25  C   UNL     1       5.398  -6.122  25.804  0.00  0.00    +0.004 C 
ATOM     26  C   UNL     1       6.325  -5.470  24.789  0.00  0.00    +0.011 C 
ENDBRANCH  23  26
ENDBRANCH  21  23
ENDBRANCH  20  21
ENDBRANCH  12  20
ENDBRANCH   1  15
BRANCH   5  27
ATOM     27  O   UNL     1       9.417   6.672  23.869  0.00  0.00    -0.506 OA
ATOM     28  H   UNL     1       8.823   6.702  23.082  0.00  0.00    +0.292 HD
ENDBRANCH   5  27
BRANCH   7  29
ATOM     29  O   UNL     1      13.854   5.129  23.165  0.00  0.00    -0.507 OA
ATOM     30  H   UNL     1      14.235   5.448  24.001  0.00  0.00    +0.292 HD
ENDBRANCH   7  29
BRANCH  11  31
ATOM     31  O   UNL     1       6.714   2.268  24.102  0.00  0.00    -0.488 OA
ATOM     32  C   UNL     1       6.136   1.852  25.324  0.00  0.00    +0.277 C 
ENDBRANCH  11  31
TORSDOF 9
ENDMDL
MODEL 3
REMARK VINA RESULT:      -7.1      2.578      9.113
REMARK  Name = 
REMARK  13 active torsions:
REMARK  status: ('A' for Active; 'I' for Inactive)
REMARK    1  A    between atoms: C_1  and  C_2
REMARK    2  A    between atoms: C_2  and  C_3
REMARK    3  A    between atoms: C_3  and  C_4
REMARK    4  A    between atoms: C_3  and  C_5
REMARK    5  A    between atoms: C_5  and  O_7
REMARK    6  A    between atoms: O_7  and  C_8
REMARK    7  A    between atoms: C_9  and  O_29
REMARK    8  A    between atoms: C_11  and  C_14
REMARK    9  A    between atoms: C_15  and  O_27
REMARK   10  A    between atoms: C_19  and  O_26
REMARK   11  A    between atoms: C_21  and  O_25
REMARK   12  A    between atoms: O_27  and  C_28
REMARK   13  A    between atoms: O_29  and  C_30
REMARK                            x       y       z     vdW  Elec       q    Type
REMARK                         _______ _______ _______ _____ _____    ______ ____
ROOT
ATOM      1  C   UNL     1       6.792  -3.804  24.208  0.00  0.00    +0.181 A 
ATOM      2  O   UNL     1       7.035  -3.971  25.565  0.00  0.00    -0.451 OA
ATOM      3  C   UNL     1       6.366  -4.941  26.256  0.00  0.00    +0.147 A 
ATOM      4  C   UNL     1       5.454  -5.792  25.653  0.00  0.00    +0.109 A 
ATOM      5  C   UNL     1       4.803  -6.770  26.415  0.00  0.00    +0.135 A 
ATOM      6  C   UNL     1       5.069  -6.895  27.777  0.00  0.00    +0.091 A 
ATOM      7  C   UNL     1       5.986  -6.033  28.368  0.00  0.00    +0.124 A 
ATOM      8  C   UNL     1       5.199  -5.632  24.220  0.00  0.00    +0.238 A 
ATOM      9  O   UNL     1       4.394  -6.386  23.673  0.00  0.00    -0.283 OA
ATOM     10  C   UNL     1       6.638  -5.057  27.619  0.00  0.00    +0.092 A 
ATOM     11  C   UNL     1       5.926  -4.553  23.479  0.00  0.00    +0.211 A 
ENDROOT
BRANCH   1  15
ATOM     12  C   UNL     1       9.130  -0.568  22.729  0.00  0.00    +0.173 A 
ATOM     13  C   UNL     1       9.745  -1.771  23.100  0.00  0.00    +0.051 A 
ATOM     14  C   UNL     1       8.974  -2.828  23.571  0.00  0.00    +0.015 A 
ATOM     15  C   UNL     1       7.592  -2.680  23.706  0.00  0.00    +0.025 A 
ATOM     16  C   UNL     1       6.977  -1.472  23.322  0.00  0.00    +0.061 A 
ATOM     17  C   UNL     1       7.742  -0.397  22.850  0.00  0.00    +0.163 A 
BRANCH  17  18
ATOM     18  O   UNL     1       7.234   0.830  22.508  0.00  0.00    -0.491 OA
ATOM     19  C   UNL     1       6.232   1.376  23.361  0.00  0.00    +0.277 C 
ENDBRANCH  17  18
BRANCH  12  20
ATOM     20  O   UNL     1       9.940   0.534  22.380  0.00  0.00    -0.422 OA
BRANCH  20  21
ATOM     21  C   UNL     1      10.517   1.252  23.429  0.00  0.00    +0.315 C 
ATOM     22  O   UNL     1      11.203   0.785  24.330  0.00  0.00    -0.250 OA
BRANCH  21  23
ATOM     23  C   UNL     1      10.057   2.704  23.350  0.00  0.00    +0.095 C 
ATOM     24  C   UNL     1      11.266   3.638  23.330  0.00  0.00    +0.019 C 
BRANCH  23  26
ATOM     25  C   UNL     1       8.694   4.427  24.679  0.00  0.00    +0.004 C 
ATOM     26  C   UNL     1       9.130   2.975  24.549  0.00  0.00    +0.011 C 
ENDBRANCH  23  26
ENDBRANCH  21  23
ENDBRANCH  20  21
ENDBRANCH  12  20
ENDBRANCH   1  15
BRANCH   5  27
ATOM     27  O   UNL     1       3.889  -7.642  25.887  0.00  0.00    -0.506 OA
ATOM     28  H   UNL     1       3.768  -8.380  26.530  0.00  0.00    +0.292 HD
ENDBRANCH   5  27
BRANCH   7  29
ATOM     29  O   UNL     1       6.283  -6.116  29.696  0.00  0.00    -0.507 OA
ATOM     30  H   UNL     1       5.455  -6.079  30.205  0.00  0.00    +0.292 HD
ENDBRANCH   7  29
BRANCH  11  31
ATOM     31  O   UNL     1       5.584  -4.492  22.151  0.00  0.00    -0.488 OA
ATOM     32  C   UNL     1       6.274  -5.192  21.134  0.00  0.00    +0.277 C 
ENDBRANCH  11  31
TORSDOF 9
ENDMDL
MODEL 4
REMARK VINA RESULT:      -7.0      1.765      8.800
REMARK  Name = 
REMARK  13 active torsions:
REMARK  status: ('A' for Active; 'I' for Inactive)
REMARK    1  A    between atoms: C_1  and  C_2
REMARK    2  A    between atoms: C_2  and  C_3
REMARK    3  A    between atoms: C_3  and  C_4
REMARK    4  A    between atoms: C_3  and  C_5
REMARK    5  A    between atoms: C_5  and  O_7
REMARK    6  A    between atoms: O_7  and  C_8
REMARK    7  A    between atoms: C_9  and  O_29
REMARK    8  A    between atoms: C_11  and  C_14
REMARK    9  A    between atoms: C_15  and  O_27
REMARK   10  A    between atoms: C_19  and  O_26
REMARK   11  A    between atoms: C_21  and  O_25
REMARK   12  A    between atoms: O_27  and  C_28
REMARK   13  A    between atoms: O_29  and  C_30
REMARK                            x       y       z     vdW  Elec       q    Type
REMARK                         _______ _______ _______ _____ _____    ______ ____
ROOT
ATOM      1  C   UNL     1       8.064  -1.668  24.269  0.00  0.00    +0.181 A 
ATOM      2  O   UNL     1       7.622  -2.380  23.162  0.00  0.00    -0.451 OA
ATOM      3  C   UNL     1       6.988  -3.576  23.338  0.00  0.00    +0.147 A 
ATOM      4  C   UNL     1       6.746  -4.115  24.592  0.00  0.00    +0.109 A 
ATOM      5  C   UNL     1       6.088  -5.345  24.707  0.00  0.00    +0.135 A 
ATOM      6  C   UNL     1       5.671  -6.031  23.569  0.00  0.00    +0.091 A 
ATOM      7  C   UNL     1       5.922  -5.479  22.317  0.00  0.00    +0.124 A 
ATOM      8  C   UNL     1       7.198  -3.366  25.766  0.00  0.00    +0.238 A 
ATOM      9  O   UNL     1       6.984  -3.833  26.885  0.00  0.00    -0.283 OA
ATOM     10  C   UNL     1       6.577  -4.257  22.192  0.00  0.00    +0.092 A 
ATOM     11  C   UNL     1       7.907  -2.065  25.557  0.00  0.00    +0.211 A 
ENDROOT
BRANCH   1  15
ATOM     12  C   UNL     1      10.075   1.850  22.965  0.00  0.00    +0.173 A 
ATOM     13  C   UNL     1      10.687   0.989  23.885  0.00  0.00    +0.051 A 
ATOM     14  C   UNL     1      10.030  -0.165  24.297  0.00  0.00    +0.015 A 
ATOM     15  C   UNL     1       8.747  -0.447  23.821  0.00  0.00    +0.025 A 
ATOM     16  C   UNL     1       8.141   0.417  22.890  0.00  0.00    +0.061 A 
ATOM     17  C   UNL     1       8.790   1.586  22.468  0.00  0.00    +0.163 A 
BRANCH  17  18
ATOM     18  O   UNL     1       8.252   2.509  21.609  0.00  0.00    -0.491 OA
ATOM     19  C   UNL     1       7.129   3.251  22.077  0.00  0.00    +0.277 C 
ENDBRANCH  17  18
BRANCH  12  20
ATOM     20  O   UNL     1      10.700   3.079  22.660  0.00  0.00    -0.422 OA
BRANCH  20  21
ATOM     21  C   UNL     1      10.625   4.084  23.627  0.00  0.00    +0.315 C 
ATOM     22  O   UNL     1       9.627   4.395  24.265  0.00  0.00    -0.250 OA
BRANCH  21  23
ATOM     23  C   UNL     1      11.957   4.823  23.680  0.00  0.00    +0.095 C 
ATOM     24  C   UNL     1      11.759   6.221  24.266  0.00  0.00    +0.019 C 
BRANCH  23  26
ATOM     25  C   UNL     1      13.539   5.985  22.025  0.00  0.00    +0.004 C 
ATOM     26  C   UNL     1      12.536   4.864  22.254  0.00  0.00    +0.011 C 
ENDBRANCH  23  26
ENDBRANCH  21  23
ENDBRANCH  20  21
ENDBRANCH  12  20
ENDBRANCH   1  15
BRANCH   5  27
ATOM     27  O   UNL     1       5.818  -5.937  25.912  0.00  0.00    -0.506 OA
ATOM     28  H   UNL     1       6.477  -6.658  26.049  0.00  0.00    +0.292 HD
ENDBRANCH   5  27
BRANCH   7  29
ATOM     29  O   UNL     1       5.533  -6.110  21.173  0.00  0.00    -0.507 OA
ATOM     30  H   UNL     1       5.346  -7.041  21.376  0.00  0.00    +0.292 HD
ENDBRANCH   7  29
BRANCH  11  31
ATOM     31  O   UNL     1       8.298  -1.473  26.732  0.00  0.00    -0.488 OA
ATOM     32  C   UNL     1       7.679  -0.321  27.271  0.00  0.00    +0.277 C 
ENDBRANCH  11  31
TORSDOF 9
ENDMDL
MODEL 5
REMARK VINA RESULT:      -6.9      2.226      8.670
REMARK  Name = 
REMARK  13 active torsions:
REMARK  status: ('A' for Active; 'I' for Inactive)
REMARK    1  A    between atoms: C_1  and  C_2
REMARK    2  A    between atoms: C_2  and  C_3
REMARK    3  A    between atoms: C_3  and  C_4
REMARK    4  A    between atoms: C_3  and  C_5
REMARK    5  A    between atoms: C_5  and  O_7
REMARK    6  A    between atoms: O_7  and  C_8
REMARK    7  A    between atoms: C_9  and  O_29
REMARK    8  A    between atoms: C_11  and  C_14
REMARK    9  A    between atoms: C_15  and  O_27
REMARK   10  A    between atoms: C_19  and  O_26
REMARK   11  A    between atoms: C_21  and  O_25
REMARK   12  A    between atoms: O_27  and  C_28
REMARK   13  A    between atoms: O_29  and  C_30
REMARK                            x       y       z     vdW  Elec       q    Type
REMARK                         _______ _______ _______ _____ _____    ______ ____
ROOT
ATOM      1  C   UNL     1       7.447  -0.705  23.280  0.00  0.00    +0.181 A 
ATOM      2  O   UNL     1       6.341  -1.499  23.005  0.00  0.00    -0.451 OA
ATOM      3  C   UNL     1       6.456  -2.859  23.062  0.00  0.00    +0.147 A 
ATOM      4  C   UNL     1       7.640  -3.494  23.403  0.00  0.00    +0.109 A 
ATOM      5  C   UNL     1       7.692  -4.893  23.447  0.00  0.00    +0.135 A 
ATOM      6  C   UNL     1       6.561  -5.651  23.152  0.00  0.00    +0.091 A 
ATOM      7  C   UNL     1       5.381  -4.999  22.811  0.00  0.00    +0.124 A 
ATOM      8  C   UNL     1       8.807  -2.666  23.706  0.00  0.00    +0.238 A 
ATOM      9  O   UNL     1       9.863  -3.219  24.016  0.00  0.00    -0.283 OA
ATOM     10  C   UNL     1       5.318  -3.609  22.764  0.00  0.00    +0.092 A 
ATOM     11  C   UNL     1       8.672  -1.177  23.623  0.00  0.00    +0.211 A 
ENDROOT
BRANCH   1  15
ATOM     12  C   UNL     1       6.390   3.385  22.754  0.00  0.00    +0.173 A 
ATOM     13  C   UNL     1       7.249   2.756  21.844  0.00  0.00    +0.051 A 
ATOM     14  C   UNL     1       7.581   1.417  22.015  0.00  0.00    +0.015 A 
ATOM     15  C   UNL     1       7.085   0.708  23.111  0.00  0.00    +0.025 A 
ATOM     16  C   UNL     1       6.214   1.342  24.018  0.00  0.00    +0.061 A 
ATOM     17  C   UNL     1       5.874   2.692  23.860  0.00  0.00    +0.163 A 
BRANCH  17  18
ATOM     18  O   UNL     1       5.080   3.401  24.724  0.00  0.00    -0.491 OA
ATOM     19  C   UNL     1       3.672   3.208  24.618  0.00  0.00    +0.277 C 
ENDBRANCH  17  18
BRANCH  12  20
ATOM     20  O   UNL     1       6.171   4.775  22.639  0.00  0.00    -0.422 OA
BRANCH  20  21
ATOM     21  C   UNL     1       7.293   5.601  22.728  0.00  0.00    +0.315 C 
ATOM     22  O   UNL     1       7.734   6.314  21.836  0.00  0.00    -0.250 OA
BRANCH  21  23
ATOM     23  C   UNL     1       7.963   5.385  24.080  0.00  0.00    +0.095 C 
ATOM     24  C   UNL     1       7.608   6.528  25.032  0.00  0.00    +0.019 C 
BRANCH  23  26
ATOM     25  C   UNL     1       9.992   3.838  23.788  0.00  0.00    +0.004 C 
ATOM     26  C   UNL     1       9.480   5.270  23.846  0.00  0.00    +0.011 C 
ENDBRANCH  23  26
ENDBRANCH  21  23
ENDBRANCH  20  21
ENDBRANCH  12  20
ENDBRANCH   1  15
BRANCH   5  27
ATOM     27  O   UNL     1       8.826  -5.587  23.773  0.00  0.00    -0.506 OA
ATOM     28  H   UNL     1       9.353  -5.710  22.948  0.00  0.00    +0.292 HD
ENDBRANCH   5  27
BRANCH   7  29
ATOM     29  O   UNL     1       4.247  -5.695  22.516  0.00  0.00    -0.507 OA
ATOM     30  H   UNL     1       4.493  -6.591  22.230  0.00  0.00    +0.292 HD
ENDBRANCH   7  29
BRANCH  11  31
ATOM     31  O   UNL     1       9.841  -0.516  23.908  0.00  0.00    -0.488 OA
ATOM     32  C   UNL     1      10.085   0.145  25.134  0.00  0.00    +0.277 C 
ENDBRANCH  11  31
TORSDOF 9
ENDMDL
MODEL 6
REMARK VINA RESULT:      -6.8      2.257      4.058
REMARK  Name = 
REMARK  13 active torsions:
REMARK  status: ('A' for Active; 'I' for Inactive)
REMARK    1  A    between atoms: C_1  and  C_2
REMARK    2  A    between atoms: C_2  and  C_3
REMARK    3  A    between atoms: C_3  and  C_4
REMARK    4  A    between atoms: C_3  and  C_5
REMARK    5  A    between atoms: C_5  and  O_7
REMARK    6  A    between atoms: O_7  and  C_8
REMARK    7  A    between atoms: C_9  and  O_29
REMARK    8  A    between atoms: C_11  and  C_14
REMARK    9  A    between atoms: C_15  and  O_27
REMARK   10  A    between atoms: C_19  and  O_26
REMARK   11  A    between atoms: C_21  and  O_25
REMARK   12  A    between atoms: O_27  and  C_28
REMARK   13  A    between atoms: O_29  and  C_30
REMARK                            x       y       z     vdW  Elec       q    Type
REMARK                         _______ _______ _______ _____ _____    ______ ____
ROOT
ATOM      1  C   UNL     1       8.641  -0.035  24.519  0.00  0.00    +0.181 A 
ATOM      2  O   UNL     1       7.988   0.846  25.371  0.00  0.00    -0.451 OA
ATOM      3  C   UNL     1       8.199   2.189  25.243  0.00  0.00    +0.147 A 
ATOM      4  C   UNL     1       9.035   2.725  24.276  0.00  0.00    +0.109 A 
ATOM      5  C   UNL     1       9.206   4.112  24.194  0.00  0.00    +0.135 A 
ATOM      6  C   UNL     1       8.541   4.959  25.077  0.00  0.00    +0.091 A 
ATOM      7  C   UNL     1       7.706   4.407  26.043  0.00  0.00    +0.124 A 
ATOM      8  C   UNL     1       9.718   1.805  23.365  0.00  0.00    +0.238 A 
ATOM      9  O   UNL     1      10.459   2.270  22.499  0.00  0.00    -0.283 OA
ATOM     10  C   UNL     1       7.529   3.029  26.134  0.00  0.00    +0.092 A 
ATOM     11  C   UNL     1       9.492   0.334  23.528  0.00  0.00    +0.211 A 
ENDROOT
BRANCH   1  15
ATOM     12  C   UNL     1       7.606  -4.019  25.604  0.00  0.00    +0.173 A 
ATOM     13  C   UNL     1       8.357  -3.222  26.479  0.00  0.00    +0.051 A 
ATOM     14  C   UNL     1       8.681  -1.918  26.123  0.00  0.00    +0.015 A 
ATOM     15  C   UNL     1       8.288  -1.413  24.882  0.00  0.00    +0.025 A 
ATOM     16  C   UNL     1       7.526  -2.215  24.010  0.00  0.00    +0.061 A 
ATOM     17  C   UNL     1       7.195  -3.533  24.354  0.00  0.00    +0.163 A 
BRANCH  17  18
ATOM     18  O   UNL     1       6.506  -4.399  23.545  0.00  0.00    -0.491 OA
ATOM     19  C   UNL     1       7.092  -4.712  22.284  0.00  0.00    +0.277 C 
ENDBRANCH  17  18
BRANCH  12  20
ATOM     20  O   UNL     1       7.400  -5.379  25.925  0.00  0.00    -0.422 OA
BRANCH  20  21
ATOM     21  C   UNL     1       6.713  -5.652  27.108  0.00  0.00    +0.315 C 
ATOM     22  O   UNL     1       7.208  -6.065  28.150  0.00  0.00    -0.250 OA
BRANCH  21  23
ATOM     23  C   UNL     1       5.218  -5.471  26.868  0.00  0.00    +0.095 C 
ATOM     24  C   UNL     1       4.543  -4.935  28.130  0.00  0.00    +0.019 C 
BRANCH  23  26
ATOM     25  C   UNL     1       4.423  -6.954  24.928  0.00  0.00    +0.004 C 
ATOM     26  C   UNL     1       4.639  -6.829  26.429  0.00  0.00    +0.011 C 
ENDBRANCH  23  26
ENDBRANCH  21  23
ENDBRANCH  20  21
ENDBRANCH  12  20
ENDBRANCH   1  15
BRANCH   5  27
ATOM     27  O   UNL     1      10.017   4.710  23.266  0.00  0.00    -0.506 OA
ATOM     28  H   UNL     1       9.440   5.157  22.603  0.00  0.00    +0.292 HD
ENDBRANCH   5  27
BRANCH   7  29
ATOM     29  O   UNL     1       7.031   5.192  26.929  0.00  0.00    -0.507 OA
ATOM     30  H   UNL     1       6.235   4.719  27.224  0.00  0.00    +0.292 HD
ENDBRANCH   7  29
BRANCH  11  31
ATOM     31  O   UNL     1      10.205  -0.420  22.630  0.00  0.00    -0.488 OA
ATOM     32  C   UNL     1       9.646  -0.964  21.450  0.00  0.00    +0.277 C 
ENDBRANCH  11  31
TORSDOF 9
ENDMDL
MODEL 7
REMARK VINA RESULT:      -6.8      3.092      5.346
REMARK  Name = 
REMARK  13 active torsions:
REMARK  status: ('A' for Active; 'I' for Inactive)
REMARK    1  A    between atoms: C_1  and  C_2
REMARK    2  A    between atoms: C_2  and  C_3
REMARK    3  A    between atoms: C_3  and  C_4
REMARK    4  A    between atoms: C_3  and  C_5
REMARK    5  A    between atoms: C_5  and  O_7
REMARK    6  A    between atoms: O_7  and  C_8
REMARK    7  A    between atoms: C_9  and  O_29
REMARK    8  A    between atoms: C_11  and  C_14
REMARK    9  A    between atoms: C_15  and  O_27
REMARK   10  A    between atoms: C_19  and  O_26
REMARK   11  A    between atoms: C_21  and  O_25
REMARK   12  A    between atoms: O_27  and  C_28
REMARK   13  A    between atoms: O_29  and  C_30
REMARK                            x       y       z     vdW  Elec       q    Type
REMARK                         _______ _______ _______ _____ _____    ______ ____
ROOT
ATOM      1  C   UNL     1       7.077  -1.424  23.721  0.00  0.00    +0.181 A 
ATOM      2  O   UNL     1       6.572  -0.295  23.090  0.00  0.00    -0.451 OA
ATOM      3  C   UNL     1       7.302   0.859  23.087  0.00  0.00    +0.147 A 
ATOM      4  C   UNL     1       8.551   0.954  23.679  0.00  0.00    +0.109 A 
ATOM      5  C   UNL     1       9.252   2.165  23.638  0.00  0.00    +0.135 A 
ATOM      6  C   UNL     1       8.703   3.277  23.004  0.00  0.00    +0.091 A 
ATOM      7  C   UNL     1       7.448   3.168  22.415  0.00  0.00    +0.124 A 
ATOM      8  C   UNL     1       9.098  -0.235  24.336  0.00  0.00    +0.238 A 
ATOM      9  O   UNL     1      10.209  -0.164  24.861  0.00  0.00    -0.283 OA
ATOM     10  C   UNL     1       6.742   1.968  22.451  0.00  0.00    +0.092 A 
ATOM     11  C   UNL     1       8.278  -1.488  24.347  0.00  0.00    +0.211 A 
ENDROOT
BRANCH   1  15
ATOM     12  C   UNL     1       4.206  -4.556  23.451  0.00  0.00    +0.173 A 
ATOM     13  C   UNL     1       4.116  -3.603  24.474  0.00  0.00    +0.051 A 
ATOM     14  C   UNL     1       5.049  -2.576  24.550  0.00  0.00    +0.015 A 
ATOM     15  C   UNL     1       6.096  -2.513  23.626  0.00  0.00    +0.025 A 
ATOM     16  C   UNL     1       6.176  -3.468  22.594  0.00  0.00    +0.061 A 
ATOM     17  C   UNL     1       5.244  -4.511  22.508  0.00  0.00    +0.163 A 
BRANCH  17  18
ATOM     18  O   UNL     1       5.280  -5.512  21.572  0.00  0.00    -0.491 OA
ATOM     19  C   UNL     1       6.565  -5.939  21.130  0.00  0.00    +0.277 C 
ENDBRANCH  17  18
BRANCH  12  20
ATOM     20  O   UNL     1       3.329  -5.663  23.469  0.00  0.00    -0.422 OA
BRANCH  20  21
ATOM     21  C   UNL     1       3.613  -6.679  24.383  0.00  0.00    +0.315 C 
ATOM     22  O   UNL     1       4.609  -7.392  24.380  0.00  0.00    -0.250 OA
BRANCH  21  23
ATOM     23  C   UNL     1       2.425  -6.849  25.323  0.00  0.00    +0.095 C 
ATOM     24  C   UNL     1       2.839  -6.523  26.758  0.00  0.00    +0.019 C 
BRANCH  23  26
ATOM     25  C   UNL     1       1.392  -8.628  23.786  0.00  0.00    +0.004 C 
ATOM     26  C   UNL     1       1.906  -8.291  25.178  0.00  0.00    +0.011 C 
ENDBRANCH  23  26
ENDBRANCH  21  23
ENDBRANCH  20  21
ENDBRANCH  12  20
ENDBRANCH   1  15
BRANCH   5  27
ATOM     27  O   UNL     1      10.488   2.331  24.203  0.00  0.00    -0.506 OA
ATOM     28  H   UNL     1      11.126   1.763  23.709  0.00  0.00    +0.292 HD
ENDBRANCH   5  27
BRANCH   7  29
ATOM     29  O   UNL     1       6.867   4.225  21.781  0.00  0.00    -0.507 OA
ATOM     30  H   UNL     1       7.269   4.323  20.901  0.00  0.00    +0.292 HD
ENDBRANCH   7  29
BRANCH  11  31
ATOM     31  O   UNL     1       8.890  -2.521  25.012  0.00  0.00    -0.488 OA
ATOM     32  C   UNL     1       8.481  -2.983  26.285  0.00  0.00    +0.277 C 
ENDBRANCH  11  31
TORSDOF 9
ENDMDL
MODEL 8
REMARK VINA RESULT:      -6.8      3.208      9.457
REMARK  Name = 
REMARK  13 active torsions:
REMARK  status: ('A' for Active; 'I' for Inactive)
REMARK    1  A    between atoms: C_1  and  C_2
REMARK    2  A    between atoms: C_2  and  C_3
REMARK    3  A    between atoms: C_3  and  C_4
REMARK    4  A    between atoms: C_3  and  C_5
REMARK    5  A    between atoms: C_5  and  O_7
REMARK    6  A    between atoms: O_7  and  C_8
REMARK    7  A    between atoms: C_9  and  O_29
REMARK    8  A    between atoms: C_11  and  C_14
REMARK    9  A    between atoms: C_15  and  O_27
REMARK   10  A    between atoms: C_19  and  O_26
REMARK   11  A    between atoms: C_21  and  O_25
REMARK   12  A    between atoms: O_27  and  C_28
REMARK   13  A    between atoms: O_29  and  C_30
REMARK                            x       y       z     vdW  Elec       q    Type
REMARK                         _______ _______ _______ _____ _____    ______ ____
ROOT
ATOM      1  C   UNL     1       6.354  -3.451  25.740  0.00  0.00    +0.181 A 
ATOM      2  O   UNL     1       4.988  -3.701  25.693  0.00  0.00    -0.451 OA
ATOM      3  C   UNL     1       4.475  -4.766  26.377  0.00  0.00    +0.147 A 
ATOM      4  C   UNL     1       5.262  -5.612  27.142  0.00  0.00    +0.109 A 
ATOM      5  C   UNL     1       4.673  -6.684  27.823  0.00  0.00    +0.135 A 
ATOM      6  C   UNL     1       3.301  -6.906  27.739  0.00  0.00    +0.091 A 
ATOM      7  C   UNL     1       2.524  -6.050  26.967  0.00  0.00    +0.124 A 
ATOM      8  C   UNL     1       6.700  -5.349  27.208  0.00  0.00    +0.238 A 
ATOM      9  O   UNL     1       7.408  -6.091  27.889  0.00  0.00    -0.283 OA
ATOM     10  C   UNL     1       3.099  -4.981  26.285  0.00  0.00    +0.092 A 
ATOM     11  C   UNL     1       7.252  -4.189  26.439  0.00  0.00    +0.211 A 
ENDROOT
BRANCH   1  15
ATOM     12  C   UNL     1       7.258  -0.063  23.325  0.00  0.00    +0.173 A 
ATOM     13  C   UNL     1       6.394   0.062  24.421  0.00  0.00    +0.051 A 
ATOM     14  C   UNL     1       6.113  -1.045  25.212  0.00  0.00    +0.015 A 
ATOM     15  C   UNL     1       6.664  -2.289  24.896  0.00  0.00    +0.025 A 
ATOM     16  C   UNL     1       7.539  -2.408  23.799  0.00  0.00    +0.061 A 
ATOM     17  C   UNL     1       7.829  -1.301  22.991  0.00  0.00    +0.163 A 
BRANCH  17  18
ATOM     18  O   UNL     1       8.623  -1.339  21.874  0.00  0.00    -0.491 OA
ATOM     19  C   UNL     1      10.009  -1.603  22.074  0.00  0.00    +0.277 C 
ENDBRANCH  17  18
BRANCH  12  20
ATOM     20  O   UNL     1       7.427   1.039  22.459  0.00  0.00    -0.422 OA
BRANCH  20  21
ATOM     21  C   UNL     1       8.652   1.705  22.515  0.00  0.00    +0.315 C 
ATOM     22  O   UNL     1       9.406   1.908  21.571  0.00  0.00    -0.250 OA
BRANCH  21  23
ATOM     23  C   UNL     1       8.970   2.039  23.968  0.00  0.00    +0.095 C 
ATOM     24  C   UNL     1       8.794   3.537  24.215  0.00  0.00    +0.019 C 
BRANCH  23  26
ATOM     25  C   UNL     1      10.480   0.299  25.105  0.00  0.00    +0.004 C 
ATOM     26  C   UNL     1      10.405   1.564  24.262  0.00  0.00    +0.011 C 
ENDBRANCH  23  26
ENDBRANCH  21  23
ENDBRANCH  20  21
ENDBRANCH  12  20
ENDBRANCH   1  15
BRANCH   5  27
ATOM     27  O   UNL     1       5.389  -7.561  28.595  0.00  0.00    -0.506 OA
ATOM     28  H   UNL     1       5.525  -7.145  29.479  0.00  0.00    +0.292 HD
ENDBRANCH   5  27
BRANCH   7  29
ATOM     29  O   UNL     1       1.177  -6.223  26.853  0.00  0.00    -0.507 OA
ATOM     30  H   UNL     1       0.731  -5.637  27.488  0.00  0.00    +0.292 HD
ENDBRANCH   7  29
BRANCH  11  31
ATOM     31  O   UNL     1       8.614  -4.063  26.564  0.00  0.00    -0.488 OA
ATOM     32  C   UNL     1       9.541  -4.768  25.763  0.00  0.00    +0.277 C 
ENDBRANCH  11  31
TORSDOF 9
ENDMDL
MODEL 9
REMARK VINA RESULT:      -6.7      3.074      5.234
REMARK  Name = 
REMARK  13 active torsions:
REMARK  status: ('A' for Active; 'I' for Inactive)
REMARK    1  A    between atoms: C_1  and  C_2
REMARK    2  A    between atoms: C_2  and  C_3
REMARK    3  A    between atoms: C_3  and  C_4
REMARK    4  A    between atoms: C_3  and  C_5
REMARK    5  A    between atoms: C_5  and  O_7
REMARK    6  A    between atoms: O_7  and  C_8
REMARK    7  A    between atoms: C_9  and  O_29
REMARK    8  A    between atoms: C_11  and  C_14
REMARK    9  A    between atoms: C_15  and  O_27
REMARK   10  A    between atoms: C_19  and  O_26
REMARK   11  A    between atoms: C_21  and  O_25
REMARK   12  A    between atoms: O_27  and  C_28
REMARK   13  A    between atoms: O_29  and  C_30
REMARK                            x       y       z     vdW  Elec       q    Type
REMARK                         _______ _______ _______ _____ _____    ______ ____
ROOT
ATOM      1  C   UNL     1       7.000  -1.474  23.355  0.00  0.00    +0.181 A 
ATOM      2  O   UNL     1       6.272  -0.293  23.269  0.00  0.00    -0.451 OA
ATOM      3  C   UNL     1       6.889   0.849  22.845  0.00  0.00    +0.147 A 
ATOM      4  C   UNL     1       8.225   0.883  22.475  0.00  0.00    +0.109 A 
ATOM      5  C   UNL     1       8.798   2.086  22.045  0.00  0.00    +0.135 A 
ATOM      6  C   UNL     1       8.035   3.250  21.985  0.00  0.00    +0.091 A 
ATOM      7  C   UNL     1       6.697   3.200  22.361  0.00  0.00    +0.124 A 
ATOM      8  C   UNL     1       8.996  -0.359  22.551  0.00  0.00    +0.238 A 
ATOM      9  O   UNL     1      10.182  -0.341  22.219  0.00  0.00    -0.283 OA
ATOM     10  C   UNL     1       6.117   2.009  22.790  0.00  0.00    +0.092 A 
ATOM     11  C   UNL     1       8.312  -1.599  23.034  0.00  0.00    +0.211 A 
ENDROOT
BRANCH   1  15
ATOM     12  C   UNL     1       4.499  -4.589  24.826  0.00  0.00    +0.173 A 
ATOM     13  C   UNL     1       4.453  -4.227  23.473  0.00  0.00    +0.051 A 
ATOM     14  C   UNL     1       5.281  -3.218  22.997  0.00  0.00    +0.015 A 
ATOM     15  C   UNL     1       6.133  -2.541  23.873  0.00  0.00    +0.025 A 
ATOM     16  C   UNL     1       6.183  -2.915  25.229  0.00  0.00    +0.061 A 
ATOM     17  C   UNL     1       5.351  -3.929  25.724  0.00  0.00    +0.163 A 
BRANCH  17  18
ATOM     18  O   UNL     1       5.293  -4.317  27.037  0.00  0.00    -0.491 OA
ATOM     19  C   UNL     1       6.429  -5.000  27.561  0.00  0.00    +0.277 C 
ENDBRANCH  17  18
BRANCH  12  20
ATOM     20  O   UNL     1       3.559  -5.523  25.316  0.00  0.00    -0.422 OA
BRANCH  20  21
ATOM     21  C   UNL     1       3.548  -6.783  24.715  0.00  0.00    +0.315 C 
ATOM     22  O   UNL     1       4.533  -7.435  24.392  0.00  0.00    -0.250 OA
BRANCH  21  23
ATOM     23  C   UNL     1       2.107  -7.174  24.406  0.00  0.00    +0.095 C 
ATOM     24  C   UNL     1       1.907  -8.671  24.638  0.00  0.00    +0.019 C 
BRANCH  23  26
ATOM     25  C   UNL     1       0.960  -5.503  22.829  0.00  0.00    +0.004 C 
ATOM     26  C   UNL     1       1.804  -6.763  22.953  0.00  0.00    +0.011 C 
ENDBRANCH  23  26
ENDBRANCH  21  23
ENDBRANCH  20  21
ENDBRANCH  12  20
ENDBRANCH   1  15
BRANCH   5  27
ATOM     27  O   UNL     1      10.110   2.194  21.667  0.00  0.00    -0.506 OA
ATOM     28  H   UNL     1      10.392   1.323  21.300  0.00  0.00    +0.292 HD
ENDBRANCH   5  27
BRANCH   7  29
ATOM     29  O   UNL     1       5.907   4.310  22.319  0.00  0.00    -0.507 OA
ATOM     30  H   UNL     1       6.449   5.089  22.529  0.00  0.00    +0.292 HD
ENDBRANCH   7  29
BRANCH  11  31
ATOM     31  O   UNL     1       9.147  -2.688  23.080  0.00  0.00    -0.488 OA
ATOM     32  C   UNL     1       9.741  -3.167  24.271  0.00  0.00    +0.277 C 
ENDBRANCH  11  31
TORSDOF 9
ENDMDL
