MODEL 1
REMARK VINA RESULT:      -7.4      0.000      0.000
REMARK  Name = 
REMARK  9 active torsions:
REMARK  status: ('A' for Active; 'I' for Inactive)
REMARK    1  A    between atoms: C_1  and  O_2
REMARK    2  A    between atoms: O_2  and  C_3
REMARK    3  A    between atoms: C_5  and  O_27
REMARK    4  A    between atoms: C_10  and  C_19
REMARK    5  A    between atoms: C_11  and  O_14
REMARK    6  A    between atoms: O_14  and  S_15
REMARK    7  A    between atoms: S_15  and  O_18
REMARK    8  A    between atoms: C_21  and  O_26
REMARK    9  A    between atoms: C_22  and  O_25
REMARK                            x       y       z     vdW  Elec       q    Type
REMARK                         _______ _______ _______ _____ _____    ______ ____
ROOT
ATOM      1  C   UNL     1       9.511  -2.106  23.896  0.00  0.00    +0.127 A 
ATOM      2  C   UNL     1      10.126  -0.861  24.018  0.00  0.00    +0.092 A 
ATOM      3  C   UNL     1       9.445   0.296  23.634  0.00  0.00    +0.147 A 
ATOM      4  O   UNL     1      10.139   1.471  23.768  0.00  0.00    -0.451 OA
ATOM      5  C   UNL     1       9.519   2.652  23.409  0.00  0.00    +0.184 A 
ATOM      6  C   UNL     1       8.272   2.746  22.911  0.00  0.00    +0.248 A 
ATOM      7  C   UNL     1       7.519   1.478  22.680  0.00  0.00    +0.241 A 
ATOM      8  O   UNL     1       6.455   1.497  22.070  0.00  0.00    -0.283 OA
ATOM      9  C   UNL     1       8.148   0.224  23.133  0.00  0.00    +0.109 A 
ATOM     10  C   UNL     1       7.520  -1.025  23.044  0.00  0.00    +0.135 A 
ATOM     11  C   UNL     1       8.196  -2.183  23.432  0.00  0.00    +0.092 A 
ENDROOT
BRANCH   5  12
ATOM     12  C   UNL     1      10.385   3.824  23.620  0.00  0.00    +0.025 A 
ATOM     13  C   UNL     1       9.878   4.979  24.242  0.00  0.00    +0.015 A 
ATOM     14  C   UNL     1      10.708   6.079  24.486  0.00  0.00    +0.050 A 
ATOM     15  C   UNL     1      12.042   6.018  24.117  0.00  0.00    +0.158 A 
ATOM     16  C   UNL     1      12.560   4.877  23.508  0.00  0.00    +0.159 A 
ATOM     17  C   UNL     1      11.740   3.778  23.252  0.00  0.00    +0.060 A 
BRANCH  15  18
ATOM     18  O   UNL     1      12.854   7.088  24.363  0.00  0.00    -0.503 OA
ATOM     19  H   UNL     1      12.560   7.429  25.232  0.00  0.00    +0.292 HD
ENDBRANCH  15  18
BRANCH  16  20
ATOM     20  O   UNL     1      13.890   4.882  23.188  0.00  0.00    -0.503 OA
ATOM     21  H   UNL     1      14.044   5.570  22.520  0.00  0.00    +0.292 HD
ENDBRANCH  16  20
ENDBRANCH   5  12
BRANCH   1  23
ATOM     22  C   UNL     1       9.288  -4.148  25.055  0.00  0.00    +0.277 C 
ATOM     23  O   UNL     1      10.086  -3.299  24.232  0.00  0.00    -0.495 OA
ENDBRANCH   1  23
BRANCH  10  24
ATOM     24  O   UNL     1       6.242  -1.133  22.575  0.00  0.00    -0.506 OA
ATOM     25  H   UNL     1       6.112  -1.993  22.139  0.00  0.00    +0.292 HD
ENDBRANCH  10  24
BRANCH   6  26
ATOM     26  O   UNL     1       7.732   3.966  22.528  0.00  0.00    -0.317 OA
BRANCH  26  27
ATOM     27  S   UNL     1       6.411   4.623  23.231  0.00  0.00    +0.252 S 
ATOM     28  O   UNL     1       6.505   6.057  23.075  0.00  0.00    -0.108 OA
ATOM     29  O   UNL     1       6.239   4.033  24.544  0.00  0.00    -0.108 OA
BRANCH  27  30
ATOM     30  O   UNL     1       5.178   4.128  22.313  0.00  0.00    -0.222 OA
ATOM     31  H   UNL     1       4.343   4.340  22.805  0.00  0.00    +0.248 HD
ENDBRANCH  27  30
ENDBRANCH  26  27
ENDBRANCH   6  26
TORSDOF 8
ENDMDL
MODEL 2
REMARK VINA RESULT:      -7.2      3.337      8.865
REMARK  Name = 
REMARK  9 active torsions:
REMARK  status: ('A' for Active; 'I' for Inactive)
REMARK    1  A    between atoms: C_1  and  O_2
REMARK    2  A    between atoms: O_2  and  C_3
REMARK    3  A    between atoms: C_5  and  O_27
REMARK    4  A    between atoms: C_10  and  C_19
REMARK    5  A    between atoms: C_11  and  O_14
REMARK    6  A    between atoms: O_14  and  S_15
REMARK    7  A    between atoms: S_15  and  O_18
REMARK    8  A    between atoms: C_21  and  O_26
REMARK    9  A    between atoms: C_22  and  O_25
REMARK                            x       y       z     vdW  Elec       q    Type
REMARK                         _______ _______ _______ _____ _____    ______ ____
ROOT
ATOM      1  C   UNL     1       7.557   2.306  22.575  0.00  0.00    +0.127 A 
ATOM      2  C   UNL     1       6.827   1.118  22.577  0.00  0.00    +0.092 A 
ATOM      3  C   UNL     1       7.436  -0.076  22.966  0.00  0.00    +0.147 A 
ATOM      4  O   UNL     1       6.648  -1.196  22.913  0.00  0.00    -0.451 OA
ATOM      5  C   UNL     1       7.191  -2.409  23.291  0.00  0.00    +0.184 A 
ATOM      6  C   UNL     1       8.461  -2.590  23.696  0.00  0.00    +0.248 A 
ATOM      7  C   UNL     1       9.367  -1.404  23.691  0.00  0.00    +0.241 A 
ATOM      8  O   UNL     1      10.570  -1.549  23.883  0.00  0.00    -0.283 OA
ATOM      9  C   UNL     1       8.771  -0.096  23.362  0.00  0.00    +0.109 A 
ATOM     10  C   UNL     1       9.492   1.104  23.392  0.00  0.00    +0.135 A 
ATOM     11  C   UNL     1       8.884   2.301  23.008  0.00  0.00    +0.092 A 
ENDROOT
BRANCH   5  12
ATOM     12  C   UNL     1       6.219  -3.512  23.190  0.00  0.00    +0.025 A 
ATOM     13  C   UNL     1       5.126  -3.577  24.072  0.00  0.00    +0.015 A 
ATOM     14  C   UNL     1       4.175  -4.597  23.952  0.00  0.00    +0.050 A 
ATOM     15  C   UNL     1       4.315  -5.541  22.947  0.00  0.00    +0.158 A 
ATOM     16  C   UNL     1       5.388  -5.482  22.060  0.00  0.00    +0.159 A 
ATOM     17  C   UNL     1       6.346  -4.475  22.176  0.00  0.00    +0.060 A 
BRANCH  15  18
ATOM     18  O   UNL     1       3.382  -6.530  22.825  0.00  0.00    -0.503 OA
ATOM     19  H   UNL     1       2.810  -6.244  22.085  0.00  0.00    +0.292 HD
ENDBRANCH  15  18
BRANCH  16  20
ATOM     20  O   UNL     1       5.450  -6.436  21.083  0.00  0.00    -0.503 OA
ATOM     21  H   UNL     1       4.571  -6.839  20.989  0.00  0.00    +0.292 HD
ENDBRANCH  16  20
ENDBRANCH   5  12
BRANCH   1  23
ATOM     22  C   UNL     1       7.659   4.645  22.858  0.00  0.00    +0.277 C 
ATOM     23  O   UNL     1       7.064   3.526  22.204  0.00  0.00    -0.495 OA
ENDBRANCH   1  23
BRANCH  10  24
ATOM     24  O   UNL     1      10.798   1.127  23.793  0.00  0.00    -0.506 OA
ATOM     25  H   UNL     1      11.349   0.607  23.183  0.00  0.00    +0.292 HD
ENDBRANCH  10  24
BRANCH   6  26
ATOM     26  O   UNL     1       8.950  -3.849  24.016  0.00  0.00    -0.317 OA
BRANCH  26  27
ATOM     27  S   UNL     1       8.856  -4.495  25.514  0.00  0.00    +0.252 S 
ATOM     28  O   UNL     1       7.774  -5.453  25.507  0.00  0.00    -0.108 OA
ATOM     29  O   UNL     1       8.884  -3.422  26.487  0.00  0.00    -0.108 OA
BRANCH  27  30
ATOM     30  O   UNL     1      10.227  -5.332  25.678  0.00  0.00    -0.222 OA
ATOM     31  H   UNL     1      10.541  -5.563  24.764  0.00  0.00    +0.248 HD
ENDBRANCH  27  30
ENDBRANCH  26  27
ENDBRANCH   6  26
TORSDOF 8
ENDMDL
MODEL 3
REMARK VINA RESULT:      -7.1      4.249      8.902
REMARK  Name = 
REMARK  9 active torsions:
REMARK  status: ('A' for Active; 'I' for Inactive)
REMARK    1  A    between atoms: C_1  and  O_2
REMARK    2  A    between atoms: O_2  and  C_3
REMARK    3  A    between atoms: C_5  and  O_27
REMARK    4  A    between atoms: C_10  and  C_19
REMARK    5  A    between atoms: C_11  and  O_14
REMARK    6  A    between atoms: O_14  and  S_15
REMARK    7  A    between atoms: S_15  and  O_18
REMARK    8  A    between atoms: C_21  and  O_26
REMARK    9  A    between atoms: C_22  and  O_25
REMARK                            x       y       z     vdW  Elec       q    Type
REMARK                         _______ _______ _______ _____ _____    ______ ____
ROOT
ATOM      1  C   UNL     1      10.109   0.021  24.441  0.00  0.00    +0.127 A 
ATOM      2  C   UNL     1       9.384  -0.702  25.387  0.00  0.00    +0.092 A 
ATOM      3  C   UNL     1       8.684  -1.848  25.005  0.00  0.00    +0.147 A 
ATOM      4  O   UNL     1       7.980  -2.479  25.998  0.00  0.00    -0.451 OA
ATOM      5  C   UNL     1       7.270  -3.621  25.685  0.00  0.00    +0.184 A 
ATOM      6  C   UNL     1       7.194  -4.168  24.458  0.00  0.00    +0.248 A 
ATOM      7  C   UNL     1       7.886  -3.463  23.340  0.00  0.00    +0.241 A 
ATOM      8  O   UNL     1       7.704  -3.821  22.180  0.00  0.00    -0.283 OA
ATOM      9  C   UNL     1       8.706  -2.286  23.684  0.00  0.00    +0.109 A 
ATOM     10  C   UNL     1       9.464  -1.578  22.742  0.00  0.00    +0.135 A 
ATOM     11  C   UNL     1      10.169  -0.434  23.122  0.00  0.00    +0.092 A 
ENDROOT
BRANCH   5  12
ATOM     12  C   UNL     1       6.578  -4.187  26.856  0.00  0.00    +0.025 A 
ATOM     13  C   UNL     1       5.447  -3.546  27.390  0.00  0.00    +0.015 A 
ATOM     14  C   UNL     1       4.758  -4.103  28.473  0.00  0.00    +0.050 A 
ATOM     15  C   UNL     1       5.196  -5.302  29.012  0.00  0.00    +0.158 A 
ATOM     16  C   UNL     1       6.310  -5.953  28.487  0.00  0.00    +0.159 A 
ATOM     17  C   UNL     1       7.009  -5.403  27.413  0.00  0.00    +0.060 A 
BRANCH  15  18
ATOM     18  O   UNL     1       4.518  -5.849  30.064  0.00  0.00    -0.503 OA
ATOM     19  H   UNL     1       3.663  -5.375  30.083  0.00  0.00    +0.292 HD
ENDBRANCH  15  18
BRANCH  16  20
ATOM     20  O   UNL     1       6.672  -7.142  29.058  0.00  0.00    -0.503 OA
ATOM     21  H   UNL     1       6.648  -7.040  30.024  0.00  0.00    +0.292 HD
ENDBRANCH  16  20
ENDBRANCH   5  12
BRANCH   1  23
ATOM     22  C   UNL     1      10.575   2.246  23.814  0.00  0.00    +0.277 C 
ATOM     23  O   UNL     1      10.820   1.158  24.703  0.00  0.00    -0.495 OA
ENDBRANCH   1  23
BRANCH  10  24
ATOM     24  O   UNL     1       9.525  -1.989  21.441  0.00  0.00    -0.506 OA
ATOM     25  H   UNL     1       8.695  -1.778  20.979  0.00  0.00    +0.292 HD
ENDBRANCH  10  24
BRANCH   6  26
ATOM     26  O   UNL     1       6.422  -5.295  24.210  0.00  0.00    -0.317 OA
BRANCH  26  27
ATOM     27  S   UNL     1       4.913  -5.230  23.586  0.00  0.00    +0.252 S 
ATOM     28  O   UNL     1       4.379  -3.919  23.878  0.00  0.00    -0.108 OA
ATOM     29  O   UNL     1       4.194  -6.425  23.979  0.00  0.00    -0.108 OA
BRANCH  27  30
ATOM     30  O   UNL     1       5.136  -5.303  21.987  0.00  0.00    -0.222 OA
ATOM     31  H   UNL     1       4.245  -5.200  21.562  0.00  0.00    +0.248 HD
ENDBRANCH  27  30
ENDBRANCH  26  27
ENDBRANCH   6  26
TORSDOF 8
ENDMDL
MODEL 4
REMARK VINA RESULT:      -7.1      3.313      5.641
REMARK  Name = 
REMARK  9 active torsions:
REMARK  status: ('A' for Active; 'I' for Inactive)
REMARK    1  A    between atoms: C_1  and  O_2
REMARK    2  A    between atoms: O_2  and  C_3
REMARK    3  A    between atoms: C_5  and  O_27
REMARK    4  A    between atoms: C_10  and  C_19
REMARK    5  A    between atoms: C_11  and  O_14
REMARK    6  A    between atoms: O_14  and  S_15
REMARK    7  A    between atoms: S_15  and  O_18
REMARK    8  A    between atoms: C_21  and  O_26
REMARK    9  A    between atoms: C_22  and  O_25
REMARK                            x       y       z     vdW  Elec       q    Type
REMARK                         _______ _______ _______ _____ _____    ______ ____
ROOT
ATOM      1  C   UNL     1       5.230  -4.916  22.818  0.00  0.00    +0.127 A 
ATOM      2  C   UNL     1       5.234  -3.529  22.685  0.00  0.00    +0.092 A 
ATOM      3  C   UNL     1       6.413  -2.810  22.891  0.00  0.00    +0.147 A 
ATOM      4  O   UNL     1       6.314  -1.448  22.762  0.00  0.00    -0.451 OA
ATOM      5  C   UNL     1       7.447  -0.681  22.949  0.00  0.00    +0.184 A 
ATOM      6  C   UNL     1       8.660  -1.165  23.272  0.00  0.00    +0.248 A 
ATOM      7  C   UNL     1       8.784  -2.635  23.496  0.00  0.00    +0.241 A 
ATOM      8  O   UNL     1       9.819  -3.102  23.960  0.00  0.00    -0.283 OA
ATOM      9  C   UNL     1       7.595  -3.465  23.223  0.00  0.00    +0.109 A 
ATOM     10  C   UNL     1       7.597  -4.862  23.322  0.00  0.00    +0.135 A 
ATOM     11  C   UNL     1       6.420  -5.584  23.112  0.00  0.00    +0.092 A 
ENDROOT
BRANCH   5  12
ATOM     12  C   UNL     1       7.184   0.757  22.766  0.00  0.00    +0.025 A 
ATOM     13  C   UNL     1       7.847   1.477  21.756  0.00  0.00    +0.015 A 
ATOM     14  C   UNL     1       7.568   2.833  21.548  0.00  0.00    +0.050 A 
ATOM     15  C   UNL     1       6.621   3.461  22.343  0.00  0.00    +0.158 A 
ATOM     16  C   UNL     1       5.950   2.757  23.341  0.00  0.00    +0.159 A 
ATOM     17  C   UNL     1       6.227   1.408  23.562  0.00  0.00    +0.060 A 
BRANCH  15  18
ATOM     18  O   UNL     1       6.343   4.781  22.134  0.00  0.00    -0.503 OA
ATOM     19  H   UNL     1       7.090   5.261  22.544  0.00  0.00    +0.292 HD
ENDBRANCH  15  18
BRANCH  16  20
ATOM     20  O   UNL     1       5.017   3.437  24.072  0.00  0.00    -0.503 OA
ATOM     21  H   UNL     1       5.462   4.161  24.544  0.00  0.00    +0.292 HD
ENDBRANCH  16  20
ENDBRANCH   5  12
BRANCH   1  23
ATOM     22  C   UNL     1       2.980  -5.329  23.392  0.00  0.00    +0.277 C 
ATOM     23  O   UNL     1       4.134  -5.715  22.649  0.00  0.00    -0.495 OA
ENDBRANCH   1  23
BRANCH  10  24
ATOM     24  O   UNL     1       8.742  -5.541  23.628  0.00  0.00    -0.506 OA
ATOM     25  H   UNL     1       9.523  -5.013  23.390  0.00  0.00    +0.292 HD
ENDBRANCH  10  24
BRANCH   6  26
ATOM     26  O   UNL     1       9.744  -0.326  23.490  0.00  0.00    -0.317 OA
BRANCH  26  27
ATOM     27  S   UNL     1      10.109   0.312  24.949  0.00  0.00    +0.252 S 
ATOM     28  O   UNL     1      11.541   0.500  24.995  0.00  0.00    -0.108 OA
ATOM     29  O   UNL     1       9.432  -0.456  25.975  0.00  0.00    -0.108 OA
BRANCH  27  30
ATOM     30  O   UNL     1       9.439   1.782  24.924  0.00  0.00    -0.222 OA
ATOM     31  H   UNL     1       8.589   1.725  25.434  0.00  0.00    +0.248 HD
ENDBRANCH  27  30
ENDBRANCH  26  27
ENDBRANCH   6  26
TORSDOF 8
ENDMDL
MODEL 5
REMARK VINA RESULT:      -6.9      4.863      8.269
REMARK  Name = 
REMARK  9 active torsions:
REMARK  status: ('A' for Active; 'I' for Inactive)
REMARK    1  A    between atoms: C_1  and  O_2
REMARK    2  A    between atoms: O_2  and  C_3
REMARK    3  A    between atoms: C_5  and  O_27
REMARK    4  A    between atoms: C_10  and  C_19
REMARK    5  A    between atoms: C_11  and  O_14
REMARK    6  A    between atoms: O_14  and  S_15
REMARK    7  A    between atoms: S_15  and  O_18
REMARK    8  A    between atoms: C_21  and  O_26
REMARK    9  A    between atoms: C_22  and  O_25
REMARK                            x       y       z     vdW  Elec       q    Type
REMARK                         _______ _______ _______ _____ _____    ______ ____
ROOT
ATOM      1  C   UNL     1       2.171  -6.172  23.292  0.00  0.00    +0.127 A 
ATOM      2  C   UNL     1       2.979  -5.073  23.004  0.00  0.00    +0.092 A 
ATOM      3  C   UNL     1       4.198  -4.909  23.663  0.00  0.00    +0.147 A 
ATOM      4  O   UNL     1       4.912  -3.786  23.331  0.00  0.00    -0.451 OA
ATOM      5  C   UNL     1       6.130  -3.569  23.946  0.00  0.00    +0.184 A 
ATOM      6  C   UNL     1       6.677  -4.373  24.875  0.00  0.00    +0.248 A 
ATOM      7  C   UNL     1       5.890  -5.562  25.315  0.00  0.00    +0.241 A 
ATOM      8  O   UNL     1       6.262  -6.225  26.277  0.00  0.00    -0.283 OA
ATOM      9  C   UNL     1       4.626  -5.838  24.607  0.00  0.00    +0.109 A 
ATOM     10  C   UNL     1       3.828  -6.960  24.870  0.00  0.00    +0.135 A 
ATOM     11  C   UNL     1       2.611  -7.129  24.208  0.00  0.00    +0.092 A 
ENDROOT
BRANCH   5  12
ATOM     12  C   UNL     1       6.779  -2.332  23.478  0.00  0.00    +0.025 A 
ATOM     13  C   UNL     1       6.437  -1.093  24.047  0.00  0.00    +0.015 A 
ATOM     14  C   UNL     1       7.082   0.080  23.639  0.00  0.00    +0.050 A 
ATOM     15  C   UNL     1       8.073   0.009  22.672  0.00  0.00    +0.158 A 
ATOM     16  C   UNL     1       8.428  -1.213  22.107  0.00  0.00    +0.159 A 
ATOM     17  C   UNL     1       7.785  -2.387  22.500  0.00  0.00    +0.060 A 
BRANCH  15  18
ATOM     18  O   UNL     1       8.708   1.153  22.281  0.00  0.00    -0.503 OA
ATOM     19  H   UNL     1       8.591   1.771  23.030  0.00  0.00    +0.292 HD
ENDBRANCH  15  18
BRANCH  16  20
ATOM     20  O   UNL     1       9.427  -1.209  21.173  0.00  0.00    -0.503 OA
ATOM     21  H   UNL     1       9.823  -0.322  21.150  0.00  0.00    +0.292 HD
ENDBRANCH  16  20
ENDBRANCH   5  12
BRANCH   1  23
ATOM     22  C   UNL     1       0.830  -7.708  22.107  0.00  0.00    +0.277 C 
ATOM     23  O   UNL     1       0.958  -6.424  22.715  0.00  0.00    -0.495 OA
ENDBRANCH   1  23
BRANCH  10  24
ATOM     24  O   UNL     1       4.224  -7.903  25.776  0.00  0.00    -0.506 OA
ATOM     25  H   UNL     1       4.397  -7.491  26.640  0.00  0.00    +0.292 HD
ENDBRANCH  10  24
BRANCH   6  26
ATOM     26  O   UNL     1       7.886  -4.065  25.484  0.00  0.00    -0.317 OA
BRANCH  26  27
ATOM     27  S   UNL     1       9.319  -4.683  24.998  0.00  0.00    +0.252 S 
ATOM     28  O   UNL     1      10.112  -3.588  24.487  0.00  0.00    -0.108 OA
ATOM     29  O   UNL     1       9.069  -5.856  24.186  0.00  0.00    -0.108 OA
BRANCH  27  30
ATOM     30  O   UNL     1      10.025  -5.181  26.363  0.00  0.00    -0.222 OA
ATOM     31  H   UNL     1      10.408  -4.378  26.805  0.00  0.00    +0.248 HD
ENDBRANCH  27  30
ENDBRANCH  26  27
ENDBRANCH   6  26
TORSDOF 8
ENDMDL
MODEL 6
REMARK VINA RESULT:      -6.9      4.096      9.205
REMARK  Name = 
REMARK  9 active torsions:
REMARK  status: ('A' for Active; 'I' for Inactive)
REMARK    1  A    between atoms: C_1  and  O_2
REMARK    2  A    between atoms: O_2  and  C_3
REMARK    3  A    between atoms: C_5  and  O_27
REMARK    4  A    between atoms: C_10  and  C_19
REMARK    5  A    between atoms: C_11  and  O_14
REMARK    6  A    between atoms: O_14  and  S_15
REMARK    7  A    between atoms: S_15  and  O_18
REMARK    8  A    between atoms: C_21  and  O_26
REMARK    9  A    between atoms: C_22  and  O_25
REMARK                            x       y       z     vdW  Elec       q    Type
REMARK                         _______ _______ _______ _____ _____    ______ ____
ROOT
ATOM      1  C   UNL     1       8.054   1.401  22.806  0.00  0.00    +0.127 A 
ATOM      2  C   UNL     1       7.056   0.428  22.830  0.00  0.00    +0.092 A 
ATOM      3  C   UNL     1       7.066  -0.561  23.815  0.00  0.00    +0.147 A 
ATOM      4  O   UNL     1       6.059  -1.488  23.744  0.00  0.00    -0.451 OA
ATOM      5  C   UNL     1       6.011  -2.490  24.693  0.00  0.00    +0.184 A 
ATOM      6  C   UNL     1       6.900  -2.647  25.691  0.00  0.00    +0.248 A 
ATOM      7  C   UNL     1       8.052  -1.701  25.750  0.00  0.00    +0.241 A 
ATOM      8  O   UNL     1       8.977  -1.906  26.530  0.00  0.00    -0.283 OA
ATOM      9  C   UNL     1       8.064  -0.585  24.785  0.00  0.00    +0.109 A 
ATOM     10  C   UNL     1       9.047   0.413  24.780  0.00  0.00    +0.135 A 
ATOM     11  C   UNL     1       9.036   1.406  23.799  0.00  0.00    +0.092 A 
ENDROOT
BRANCH   5  12
ATOM     12  C   UNL     1       4.869  -3.398  24.490  0.00  0.00    +0.025 A 
ATOM     13  C   UNL     1       3.673  -3.204  25.204  0.00  0.00    +0.015 A 
ATOM     14  C   UNL     1       2.570  -4.036  24.982  0.00  0.00    +0.050 A 
ATOM     15  C   UNL     1       2.661  -5.050  24.042  0.00  0.00    +0.158 A 
ATOM     16  C   UNL     1       3.837  -5.247  23.321  0.00  0.00    +0.159 A 
ATOM     17  C   UNL     1       4.946  -4.429  23.540  0.00  0.00    +0.060 A 
BRANCH  15  18
ATOM     18  O   UNL     1       1.581  -5.856  23.820  0.00  0.00    -0.503 OA
ATOM     19  H   UNL     1       1.960  -6.693  23.486  0.00  0.00    +0.292 HD
ENDBRANCH  15  18
BRANCH  16  20
ATOM     20  O   UNL     1       3.848  -6.255  22.397  0.00  0.00    -0.503 OA
ATOM     21  H   UNL     1       4.609  -6.831  22.578  0.00  0.00    +0.292 HD
ENDBRANCH  16  20
ENDBRANCH   5  12
BRANCH   1  23
ATOM     22  C   UNL     1       7.503   3.626  22.250  0.00  0.00    +0.277 C 
ATOM     23  O   UNL     1       8.145   2.406  21.884  0.00  0.00    -0.495 OA
ENDBRANCH   1  23
BRANCH  10  24
ATOM     24  O   UNL     1      10.031   0.432  25.727  0.00  0.00    -0.506 OA
ATOM     25  H   UNL     1      10.880   0.689  25.329  0.00  0.00    +0.292 HD
ENDBRANCH  10  24
BRANCH   6  26
ATOM     26  O   UNL     1       6.813  -3.708  26.582  0.00  0.00    -0.317 OA
BRANCH  26  27
ATOM     27  S   UNL     1       7.677  -5.086  26.425  0.00  0.00    +0.252 S 
ATOM     28  O   UNL     1       7.911  -5.293  25.013  0.00  0.00    -0.108 OA
ATOM     29  O   UNL     1       7.057  -6.120  27.229  0.00  0.00    -0.108 OA
BRANCH  27  30
ATOM     30  O   UNL     1       9.106  -4.743  27.095  0.00  0.00    -0.222 OA
ATOM     31  H   UNL     1       8.991  -4.808  28.079  0.00  0.00    +0.248 HD
ENDBRANCH  27  30
ENDBRANCH  26  27
ENDBRANCH   6  26
TORSDOF 8
ENDMDL
MODEL 7
REMARK VINA RESULT:      -6.7      3.130      4.799
REMARK  Name = 
REMARK  9 active torsions:
REMARK  status: ('A' for Active; 'I' for Inactive)
REMARK    1  A    between atoms: C_1  and  O_2
REMARK    2  A    between atoms: O_2  and  C_3
REMARK    3  A    between atoms: C_5  and  O_27
REMARK    4  A    between atoms: C_10  and  C_19
REMARK    5  A    between atoms: C_11  and  O_14
REMARK    6  A    between atoms: O_14  and  S_15
REMARK    7  A    between atoms: S_15  and  O_18
REMARK    8  A    between atoms: C_21  and  O_26
REMARK    9  A    between atoms: C_22  and  O_25
REMARK                            x       y       z     vdW  Elec       q    Type
REMARK                         _______ _______ _______ _____ _____    ______ ____
ROOT
ATOM      1  C   UNL     1       7.081  -5.181  22.780  0.00  0.00    +0.127 A 
ATOM      2  C   UNL     1       7.696  -3.936  22.658  0.00  0.00    +0.092 A 
ATOM      3  C   UNL     1       7.739  -3.067  23.750  0.00  0.00    +0.147 A 
ATOM      4  O   UNL     1       8.343  -1.856  23.529  0.00  0.00    -0.451 OA
ATOM      5  C   UNL     1       8.422  -0.954  24.572  0.00  0.00    +0.184 A 
ATOM      6  C   UNL     1       7.929  -1.160  25.806  0.00  0.00    +0.248 A 
ATOM      7  C   UNL     1       7.198  -2.436  26.058  0.00  0.00    +0.241 A 
ATOM      8  O   UNL     1       6.583  -2.596  27.108  0.00  0.00    -0.283 OA
ATOM      9  C   UNL     1       7.179  -3.433  24.971  0.00  0.00    +0.109 A 
ATOM     10  C   UNL     1       6.591  -4.698  25.101  0.00  0.00    +0.135 A 
ATOM     11  C   UNL     1       6.551  -5.571  24.011  0.00  0.00    +0.092 A 
ENDROOT
BRANCH   5  12
ATOM     12  C   UNL     1       9.106   0.291  24.182  0.00  0.00    +0.025 A 
ATOM     13  C   UNL     1      10.456   0.494  24.516  0.00  0.00    +0.015 A 
ATOM     14  C   UNL     1      11.124   1.655  24.110  0.00  0.00    +0.050 A 
ATOM     15  C   UNL     1      10.443   2.604  23.363  0.00  0.00    +0.158 A 
ATOM     16  C   UNL     1       9.107   2.411  23.017  0.00  0.00    +0.159 A 
ATOM     17  C   UNL     1       8.430   1.262  23.424  0.00  0.00    +0.060 A 
BRANCH  15  18
ATOM     18  O   UNL     1      11.097   3.732  22.959  0.00  0.00    -0.503 OA
ATOM     19  H   UNL     1      12.046   3.525  23.075  0.00  0.00    +0.292 HD
ENDBRANCH  15  18
BRANCH  16  20
ATOM     20  O   UNL     1       8.506   3.381  22.263  0.00  0.00    -0.503 OA
ATOM     21  H   UNL     1       7.553   3.197  22.226  0.00  0.00    +0.292 HD
ENDBRANCH  16  20
ENDBRANCH   5  12
BRANCH   1  23
ATOM     22  C   UNL     1       6.068  -5.758  20.730  0.00  0.00    +0.277 C 
ATOM     23  O   UNL     1       6.974  -6.102  21.776  0.00  0.00    -0.495 OA
ENDBRANCH   1  23
BRANCH  10  24
ATOM     24  O   UNL     1       6.048  -5.099  26.288  0.00  0.00    -0.506 OA
ATOM     25  H   UNL     1       5.084  -5.196  26.204  0.00  0.00    +0.292 HD
ENDBRANCH  10  24
BRANCH   6  26
ATOM     26  O   UNL     1       8.006  -0.186  26.792  0.00  0.00    -0.317 OA
BRANCH  26  27
ATOM     27  S   UNL     1       6.835   0.925  27.051  0.00  0.00    +0.252 S 
ATOM     28  O   UNL     1       6.479   0.862  28.450  0.00  0.00    -0.108 OA
ATOM     29  O   UNL     1       5.822   0.782  26.024  0.00  0.00    -0.108 OA
BRANCH  27  30
ATOM     30  O   UNL     1       7.568   2.344  26.813  0.00  0.00    -0.222 OA
ATOM     31  H   UNL     1       8.529   2.219  27.033  0.00  0.00    +0.248 HD
ENDBRANCH  27  30
ENDBRANCH  26  27
ENDBRANCH   6  26
TORSDOF 8
ENDMDL
MODEL 8
REMARK VINA RESULT:      -6.6      3.049      5.063
REMARK  Name = 
REMARK  9 active torsions:
REMARK  status: ('A' for Active; 'I' for Inactive)
REMARK    1  A    between atoms: C_1  and  O_2
REMARK    2  A    between atoms: O_2  and  C_3
REMARK    3  A    between atoms: C_5  and  O_27
REMARK    4  A    between atoms: C_10  and  C_19
REMARK    5  A    between atoms: C_11  and  O_14
REMARK    6  A    between atoms: O_14  and  S_15
REMARK    7  A    between atoms: S_15  and  O_18
REMARK    8  A    between atoms: C_21  and  O_26
REMARK    9  A    between atoms: C_22  and  O_25
REMARK                            x       y       z     vdW  Elec       q    Type
REMARK                         _______ _______ _______ _____ _____    ______ ____
ROOT
ATOM      1  C   UNL     1       6.164  -4.238  22.387  0.00  0.00    +0.127 A 
ATOM      2  C   UNL     1       5.857  -2.879  22.360  0.00  0.00    +0.092 A 
ATOM      3  C   UNL     1       6.723  -1.954  22.944  0.00  0.00    +0.147 A 
ATOM      4  O   UNL     1       6.326  -0.643  22.890  0.00  0.00    -0.451 OA
ATOM      5  C   UNL     1       7.143   0.322  23.447  0.00  0.00    +0.184 A 
ATOM      6  C   UNL     1       8.310   0.076  24.068  0.00  0.00    +0.248 A 
ATOM      7  C   UNL     1       8.734  -1.348  24.213  0.00  0.00    +0.241 A 
ATOM      8  O   UNL     1       9.695  -1.635  24.919  0.00  0.00    -0.283 OA
ATOM      9  C   UNL     1       7.903  -2.373  23.553  0.00  0.00    +0.109 A 
ATOM     10  C   UNL     1       8.227  -3.736  23.549  0.00  0.00    +0.135 A 
ATOM     11  C   UNL     1       7.364  -4.662  22.960  0.00  0.00    +0.092 A 
ENDROOT
BRANCH   5  12
ATOM     12  C   UNL     1       6.586   1.678  23.299  0.00  0.00    +0.025 A 
ATOM     13  C   UNL     1       5.458   2.067  24.043  0.00  0.00    +0.015 A 
ATOM     14  C   UNL     1       4.953   3.368  23.941  0.00  0.00    +0.050 A 
ATOM     15  C   UNL     1       5.581   4.277  23.105  0.00  0.00    +0.158 A 
ATOM     16  C   UNL     1       6.706   3.908  22.370  0.00  0.00    +0.159 A 
ATOM     17  C   UNL     1       7.213   2.612  22.457  0.00  0.00    +0.060 A 
BRANCH  15  18
ATOM     18  O   UNL     1       5.093   5.549  23.013  0.00  0.00    -0.503 OA
ATOM     19  H   UNL     1       5.767   6.107  23.450  0.00  0.00    +0.292 HD
ENDBRANCH  15  18
BRANCH  16  20
ATOM     20  O   UNL     1       7.283   4.863  21.581  0.00  0.00    -0.503 OA
ATOM     21  H   UNL     1       6.579   5.393  21.171  0.00  0.00    +0.292 HD
ENDBRANCH  16  20
ENDBRANCH   5  12
BRANCH   1  23
ATOM     22  C   UNL     1       5.998  -5.994  20.821  0.00  0.00    +0.277 C 
ATOM     23  O   UNL     1       5.385  -5.227  21.855  0.00  0.00    -0.495 OA
ENDBRANCH   1  23
BRANCH  10  24
ATOM     24  O   UNL     1       9.385  -4.182  24.120  0.00  0.00    -0.506 OA
ATOM     25  H   UNL     1       9.938  -3.431  24.396  0.00  0.00    +0.292 HD
ENDBRANCH  10  24
BRANCH   6  26
ATOM     26  O   UNL     1       9.056   1.095  24.646  0.00  0.00    -0.317 OA
BRANCH  26  27
ATOM     27  S   UNL     1      10.418   1.701  23.977  0.00  0.00    +0.252 S 
ATOM     28  O   UNL     1      11.540   1.029  24.592  0.00  0.00    -0.108 OA
ATOM     29  O   UNL     1      10.334   3.148  23.977  0.00  0.00    -0.108 OA
BRANCH  27  30
ATOM     30  O   UNL     1      10.361   1.213  22.438  0.00  0.00    -0.222 OA
ATOM     31  H   UNL     1      10.107   2.002  21.890  0.00  0.00    +0.248 HD
ENDBRANCH  27  30
ENDBRANCH  26  27
ENDBRANCH   6  26
TORSDOF 8
ENDMDL
MODEL 9
REMARK VINA RESULT:      -6.6      1.777      6.609
REMARK  Name = 
REMARK  9 active torsions:
REMARK  status: ('A' for Active; 'I' for Inactive)
REMARK    1  A    between atoms: C_1  and  O_2
REMARK    2  A    between atoms: O_2  and  C_3
REMARK    3  A    between atoms: C_5  and  O_27
REMARK    4  A    between atoms: C_10  and  C_19
REMARK    5  A    between atoms: C_11  and  O_14
REMARK    6  A    between atoms: O_14  and  S_15
REMARK    7  A    between atoms: S_15  and  O_18
REMARK    8  A    between atoms: C_21  and  O_26
REMARK    9  A    between atoms: C_22  and  O_25
REMARK                            x       y       z     vdW  Elec       q    Type
REMARK                         _______ _______ _______ _____ _____    ______ ____
ROOT
ATOM      1  C   UNL     1      11.548   4.987  23.538  0.00  0.00    +0.127 A 
ATOM      2  C   UNL     1      11.280   3.619  23.536  0.00  0.00    +0.092 A 
ATOM      3  C   UNL     1       9.962   3.164  23.597  0.00  0.00    +0.147 A 
ATOM      4  O   UNL     1       9.798   1.804  23.615  0.00  0.00    -0.451 OA
ATOM      5  C   UNL     1       8.516   1.290  23.669  0.00  0.00    +0.184 A 
ATOM      6  C   UNL     1       7.394   2.029  23.727  0.00  0.00    +0.248 A 
ATOM      7  C   UNL     1       7.541   3.513  23.788  0.00  0.00    +0.241 A 
ATOM      8  O   UNL     1       6.564   4.220  24.016  0.00  0.00    -0.283 OA
ATOM      9  C   UNL     1       8.902   4.066  23.652  0.00  0.00    +0.109 A 
ATOM     10  C   UNL     1       9.172   5.440  23.619  0.00  0.00    +0.135 A 
ATOM     11  C   UNL     1      10.489   5.897  23.554  0.00  0.00    +0.092 A 
ENDROOT
BRANCH   5  12
ATOM     12  C   UNL     1       8.504  -0.183  23.671  0.00  0.00    +0.025 A 
ATOM     13  C   UNL     1       8.467  -0.893  22.458  0.00  0.00    +0.015 A 
ATOM     14  C   UNL     1       8.501  -2.292  22.451  0.00  0.00    +0.050 A 
ATOM     15  C   UNL     1       8.582  -2.975  23.654  0.00  0.00    +0.158 A 
ATOM     16  C   UNL     1       8.629  -2.283  24.863  0.00  0.00    +0.159 A 
ATOM     17  C   UNL     1       8.587  -0.890  24.881  0.00  0.00    +0.060 A 
BRANCH  15  18
ATOM     18  O   UNL     1       8.624  -4.340  23.647  0.00  0.00    -0.503 OA
ATOM     19  H   UNL     1       9.311  -4.572  24.303  0.00  0.00    +0.292 HD
ENDBRANCH  15  18
BRANCH  16  20
ATOM     20  O   UNL     1       8.728  -3.024  26.008  0.00  0.00    -0.503 OA
ATOM     21  H   UNL     1       8.395  -2.491  26.750  0.00  0.00    +0.292 HD
ENDBRANCH  16  20
ENDBRANCH   5  12
BRANCH   1  23
ATOM     22  C   UNL     1      13.372   5.633  22.189  0.00  0.00    +0.277 C 
ATOM     23  O   UNL     1      12.797   5.540  23.491  0.00  0.00    -0.495 OA
ENDBRANCH   1  23
BRANCH  10  24
ATOM     24  O   UNL     1       8.157   6.353  23.653  0.00  0.00    -0.506 OA
ATOM     25  H   UNL     1       7.960   6.675  22.757  0.00  0.00    +0.292 HD
ENDBRANCH  10  24
BRANCH   6  26
ATOM     26  O   UNL     1       6.140   1.441  23.827  0.00  0.00    -0.317 OA
BRANCH  26  27
ATOM     27  S   UNL     1       5.371   1.200  25.248  0.00  0.00    +0.252 S 
ATOM     28  O   UNL     1       4.099   1.881  25.175  0.00  0.00    -0.108 OA
ATOM     29  O   UNL     1       6.295   1.476  26.331  0.00  0.00    -0.108 OA
BRANCH  27  30
ATOM     30  O   UNL     1       5.058  -0.385  25.272  0.00  0.00    -0.222 OA
ATOM     31  H   UNL     1       4.405  -0.543  26.003  0.00  0.00    +0.248 HD
ENDBRANCH  27  30
ENDBRANCH  26  27
ENDBRANCH   6  26
TORSDOF 8
ENDMDL
