MODEL 1
REMARK VINA RESULT:      -7.0      0.000      0.000
REMARK  Name = 
REMARK  12 active torsions:
REMARK  status: ('A' for Active; 'I' for Inactive)
REMARK    1  A    between atoms: C_2  and  C_37
REMARK    2  A    between atoms: C_4  and  O_36
REMARK    3  A    between atoms: C_6  and  O_35
REMARK    4  A    between atoms: C_8  and  O_34
REMARK    5  A    between atoms: C_10  and  O_12
REMARK    6  A    between atoms: O_12  and  C_13
REMARK    7  A    between atoms: C_14  and  C_26
REMARK    8  A    between atoms: C_18  and  O_25
REMARK    9  A    between atoms: C_20  and  O_24
REMARK   10  A    between atoms: C_28  and  O_33
REMARK   11  A    between atoms: C_29  and  O_32
REMARK   12  A    between atoms: C_37  and  O_38
REMARK                            x       y       z     vdW  Elec       q    Type
REMARK                         _______ _______ _______ _____ _____    ______ ____
ROOT
ATOM      1  C   UNL     1       7.069  -1.819  24.013  0.00  0.00    +0.211 A 
ATOM      2  C   UNL     1       6.946  -2.874  22.966  0.00  0.00    +0.238 A 
ATOM      3  O   UNL     1       7.295  -2.695  21.806  0.00  0.00    -0.283 OA
ATOM      4  C   UNL     1       6.300  -4.130  23.369  0.00  0.00    +0.109 A 
ATOM      5  C   UNL     1       5.477  -4.093  24.493  0.00  0.00    +0.147 A 
ATOM      6  C   UNL     1       4.726  -5.221  24.838  0.00  0.00    +0.092 A 
ATOM      7  C   UNL     1       4.829  -6.377  24.060  0.00  0.00    +0.124 A 
ATOM      8  C   UNL     1       5.685  -6.436  22.966  0.00  0.00    +0.091 A 
ATOM      9  O   UNL     1       5.349  -2.972  25.282  0.00  0.00    -0.451 OA
ATOM     10  C   UNL     1       6.432  -5.314  22.628  0.00  0.00    +0.135 A 
ATOM     11  C   UNL     1       6.228  -1.911  25.071  0.00  0.00    +0.181 A 
ENDROOT
BRANCH  11  12
ATOM     12  C   UNL     1       6.178  -0.855  26.125  0.00  0.00    +0.025 A 
ATOM     13  C   UNL     1       5.016  -0.098  26.363  0.00  0.00    +0.015 A 
ATOM     14  C   UNL     1       4.957   0.822  27.422  0.00  0.00    +0.050 A 
ATOM     15  C   UNL     1       6.056   0.981  28.252  0.00  0.00    +0.158 A 
ATOM     16  C   UNL     1       7.230   0.287  28.002  0.00  0.00    +0.159 A 
ATOM     17  C   UNL     1       7.307  -0.593  26.929  0.00  0.00    +0.060 A 
BRANCH  15  18
ATOM     18  O   UNL     1       5.978   1.822  29.325  0.00  0.00    -0.503 OA
ATOM     19  H   UNL     1       5.623   2.656  28.955  0.00  0.00    +0.292 HD
ENDBRANCH  15  18
BRANCH  16  20
ATOM     20  O   UNL     1       8.285   0.484  28.851  0.00  0.00    -0.503 OA
ATOM     21  H   UNL     1       8.644   1.372  28.678  0.00  0.00    +0.292 HD
ENDBRANCH  16  20
ENDBRANCH  11  12
BRANCH   7  22
ATOM     22  O   UNL     1       4.109  -7.498  24.335  0.00  0.00    -0.507 OA
ATOM     23  H   UNL     1       4.462  -7.918  25.136  0.00  0.00    +0.292 HD
ENDBRANCH   7  22
BRANCH  10  24
ATOM     24  O   UNL     1       7.319  -5.398  21.593  0.00  0.00    -0.506 OA
ATOM     25  H   UNL     1       8.225  -5.268  21.913  0.00  0.00    +0.292 HD
ENDBRANCH  10  24
BRANCH   1  26
ATOM     26  O   UNL     1       8.024  -0.815  23.946  0.00  0.00    -0.479 OA
BRANCH  26  28
ATOM     27  C   UNL     1       8.423   0.631  22.007  0.00  0.00    +0.055 C 
ATOM     28  C   UNL     1       7.722   0.458  23.365  0.00  0.00    +0.205 C 
ATOM     29  C   UNL     1       8.187   1.577  24.343  0.00  0.00    +0.186 C 
ATOM     30  C   UNL     1       9.723   1.779  24.415  0.00  0.00    +0.175 C 
ATOM     31  C   UNL     1      10.358   1.854  23.010  0.00  0.00    +0.151 C 
ATOM     32  C   UNL     1       9.953   0.677  22.110  0.00  0.00    +0.049 C 
BRANCH  29  33
ATOM     33  O   UNL     1       7.554   2.816  23.984  0.00  0.00    -0.385 OA
ATOM     34  H   UNL     1       8.029   3.168  23.201  0.00  0.00    +0.210 HD
ENDBRANCH  29  33
BRANCH  30  35
ATOM     35  O   UNL     1      10.327   0.770  25.219  0.00  0.00    -0.387 OA
ATOM     36  H   UNL     1      11.253   1.034  25.371  0.00  0.00    +0.210 HD
ENDBRANCH  30  35
BRANCH  31  37
ATOM     37  O   UNL     1       9.908   3.074  22.393  0.00  0.00    -0.389 OA
ATOM     38  H   UNL     1       9.024   2.899  22.018  0.00  0.00    +0.210 HD
ENDBRANCH  31  37
BRANCH  32  39
ATOM     39  C   UNL     1      10.585  -0.652  22.540  0.00  0.00    +0.162 C 
BRANCH  39  40
ATOM     40  O   UNL     1      10.087  -1.687  21.697  0.00  0.00    -0.395 OA
ATOM     41  H   UNL     1       9.116  -1.655  21.762  0.00  0.00    +0.209 HD
ENDBRANCH  39  40
ENDBRANCH  32  39
ENDBRANCH  26  28
ENDBRANCH   1  26
TORSDOF 12
ENDMDL
MODEL 2
REMARK VINA RESULT:      -7.0      1.662      5.447
REMARK  Name = 
REMARK  12 active torsions:
REMARK  status: ('A' for Active; 'I' for Inactive)
REMARK    1  A    between atoms: C_2  and  C_37
REMARK    2  A    between atoms: C_4  and  O_36
REMARK    3  A    between atoms: C_6  and  O_35
REMARK    4  A    between atoms: C_8  and  O_34
REMARK    5  A    between atoms: C_10  and  O_12
REMARK    6  A    between atoms: O_12  and  C_13
REMARK    7  A    between atoms: C_14  and  C_26
REMARK    8  A    between atoms: C_18  and  O_25
REMARK    9  A    between atoms: C_20  and  O_24
REMARK   10  A    between atoms: C_28  and  O_33
REMARK   11  A    between atoms: C_29  and  O_32
REMARK   12  A    between atoms: C_37  and  O_38
REMARK                            x       y       z     vdW  Elec       q    Type
REMARK                         _______ _______ _______ _____ _____    ______ ____
ROOT
ATOM      1  C   UNL     1       7.090  -0.977  25.770  0.00  0.00    +0.211 A 
ATOM      2  C   UNL     1       6.781  -0.219  27.016  0.00  0.00    +0.238 A 
ATOM      3  O   UNL     1       7.576   0.558  27.529  0.00  0.00    -0.283 OA
ATOM      4  C   UNL     1       5.493  -0.508  27.661  0.00  0.00    +0.109 A 
ATOM      5  C   UNL     1       4.885  -1.725  27.356  0.00  0.00    +0.147 A 
ATOM      6  C   UNL     1       3.733  -2.114  28.047  0.00  0.00    +0.092 A 
ATOM      7  C   UNL     1       3.198  -1.267  29.020  0.00  0.00    +0.124 A 
ATOM      8  C   UNL     1       3.772  -0.031  29.294  0.00  0.00    +0.091 A 
ATOM      9  O   UNL     1       5.384  -2.586  26.405  0.00  0.00    -0.451 OA
ATOM     10  C   UNL     1       4.914   0.355  28.603  0.00  0.00    +0.135 A 
ATOM     11  C   UNL     1       6.410  -2.133  25.576  0.00  0.00    +0.181 A 
ENDROOT
BRANCH  11  12
ATOM     12  C   UNL     1       6.711  -3.035  24.426  0.00  0.00    +0.025 A 
ATOM     13  C   UNL     1       7.642  -4.086  24.531  0.00  0.00    +0.015 A 
ATOM     14  C   UNL     1       7.842  -4.983  23.469  0.00  0.00    +0.050 A 
ATOM     15  C   UNL     1       7.103  -4.840  22.305  0.00  0.00    +0.158 A 
ATOM     16  C   UNL     1       6.222  -3.780  22.159  0.00  0.00    +0.159 A 
ATOM     17  C   UNL     1       6.053  -2.864  23.190  0.00  0.00    +0.060 A 
BRANCH  15  18
ATOM     18  O   UNL     1       7.242  -5.753  21.298  0.00  0.00    -0.503 OA
ATOM     19  H   UNL     1       8.176  -5.666  21.018  0.00  0.00    +0.292 HD
ENDBRANCH  15  18
BRANCH  16  20
ATOM     20  O   UNL     1       5.520  -3.685  20.987  0.00  0.00    -0.503 OA
ATOM     21  H   UNL     1       5.376  -2.740  20.803  0.00  0.00    +0.292 HD
ENDBRANCH  16  20
ENDBRANCH  11  12
BRANCH   7  22
ATOM     22  O   UNL     1       2.092  -1.601  29.738  0.00  0.00    -0.507 OA
ATOM     23  H   UNL     1       2.220  -1.338  30.665  0.00  0.00    +0.292 HD
ENDBRANCH   7  22
BRANCH  10  24
ATOM     24  O   UNL     1       5.436   1.597  28.831  0.00  0.00    -0.506 OA
ATOM     25  H   UNL     1       5.213   2.195  28.100  0.00  0.00    +0.292 HD
ENDBRANCH  10  24
BRANCH   1  26
ATOM     26  O   UNL     1       7.990  -0.512  24.822  0.00  0.00    -0.479 OA
BRANCH  26  28
ATOM     27  C   UNL     1       7.638   0.457  22.598  0.00  0.00    +0.055 C 
ATOM     28  C   UNL     1       7.753   0.707  24.111  0.00  0.00    +0.205 C 
ATOM     29  C   UNL     1       8.930   1.688  24.394  0.00  0.00    +0.186 C 
ATOM     30  C   UNL     1      10.259   1.327  23.682  0.00  0.00    +0.175 C 
ATOM     31  C   UNL     1      10.042   1.004  22.188  0.00  0.00    +0.151 C 
ATOM     32  C   UNL     1       8.941  -0.041  21.959  0.00  0.00    +0.049 C 
BRANCH  29  33
ATOM     33  O   UNL     1       8.535   3.021  24.033  0.00  0.00    -0.385 OA
ATOM     34  H   UNL     1       9.260   3.622  24.309  0.00  0.00    +0.210 HD
ENDBRANCH  29  33
BRANCH  30  35
ATOM     35  O   UNL     1      10.926   0.267  24.364  0.00  0.00    -0.387 OA
ATOM     36  H   UNL     1      11.703   0.022  23.831  0.00  0.00    +0.210 HD
ENDBRANCH  30  35
BRANCH  31  37
ATOM     37  O   UNL     1       9.653   2.225  21.531  0.00  0.00    -0.389 OA
ATOM     38  H   UNL     1       9.820   2.105  20.577  0.00  0.00    +0.210 HD
ENDBRANCH  31  37
BRANCH  32  39
ATOM     39  C   UNL     1       9.349  -1.450  22.407  0.00  0.00    +0.162 C 
BRANCH  39  40
ATOM     40  O   UNL     1      10.676  -1.705  21.956  0.00  0.00    -0.395 OA
ATOM     41  H   UNL     1      11.125  -2.185  22.674  0.00  0.00    +0.209 HD
ENDBRANCH  39  40
ENDBRANCH  32  39
ENDBRANCH  26  28
ENDBRANCH   1  26
TORSDOF 12
ENDMDL
MODEL 3
REMARK VINA RESULT:      -6.7      1.782      6.317
REMARK  Name = 
REMARK  12 active torsions:
REMARK  status: ('A' for Active; 'I' for Inactive)
REMARK    1  A    between atoms: C_2  and  C_37
REMARK    2  A    between atoms: C_4  and  O_36
REMARK    3  A    between atoms: C_6  and  O_35
REMARK    4  A    between atoms: C_8  and  O_34
REMARK    5  A    between atoms: C_10  and  O_12
REMARK    6  A    between atoms: O_12  and  C_13
REMARK    7  A    between atoms: C_14  and  C_26
REMARK    8  A    between atoms: C_18  and  O_25
REMARK    9  A    between atoms: C_20  and  O_24
REMARK   10  A    between atoms: C_28  and  O_33
REMARK   11  A    between atoms: C_29  and  O_32
REMARK   12  A    between atoms: C_37  and  O_38
REMARK                            x       y       z     vdW  Elec       q    Type
REMARK                         _______ _______ _______ _____ _____    ______ ____
ROOT
ATOM      1  C   UNL     1       7.315  -1.677  24.487  0.00  0.00    +0.211 A 
ATOM      2  C   UNL     1       8.515  -1.440  23.634  0.00  0.00    +0.238 A 
ATOM      3  O   UNL     1       9.227  -2.350  23.230  0.00  0.00    -0.283 OA
ATOM      4  C   UNL     1       8.864  -0.039  23.362  0.00  0.00    +0.109 A 
ATOM      5  C   UNL     1       8.368   0.925  24.239  0.00  0.00    +0.147 A 
ATOM      6  C   UNL     1       8.783   2.254  24.112  0.00  0.00    +0.092 A 
ATOM      7  C   UNL     1       9.675   2.600  23.095  0.00  0.00    +0.124 A 
ATOM      8  C   UNL     1      10.136   1.652  22.187  0.00  0.00    +0.091 A 
ATOM      9  O   UNL     1       7.489   0.621  25.254  0.00  0.00    -0.451 OA
ATOM     10  C   UNL     1       9.719   0.333  22.313  0.00  0.00    +0.135 A 
ATOM     11  C   UNL     1       6.917  -0.650  25.275  0.00  0.00    +0.181 A 
ENDROOT
BRANCH  11  12
ATOM     12  C   UNL     1       5.800  -0.803  26.254  0.00  0.00    +0.025 A 
ATOM     13  C   UNL     1       4.787   0.166  26.382  0.00  0.00    +0.015 A 
ATOM     14  C   UNL     1       3.694  -0.040  27.239  0.00  0.00    +0.050 A 
ATOM     15  C   UNL     1       3.603  -1.220  27.960  0.00  0.00    +0.158 A 
ATOM     16  C   UNL     1       4.616  -2.164  27.892  0.00  0.00    +0.159 A 
ATOM     17  C   UNL     1       5.722  -1.944  27.079  0.00  0.00    +0.060 A 
BRANCH  15  18
ATOM     18  O   UNL     1       2.506  -1.455  28.739  0.00  0.00    -0.503 OA
ATOM     19  H   UNL     1       2.875  -1.718  29.606  0.00  0.00    +0.292 HD
ENDBRANCH  15  18
BRANCH  16  20
ATOM     20  O   UNL     1       4.476  -3.310  28.627  0.00  0.00    -0.503 OA
ATOM     21  H   UNL     1       3.953  -3.939  28.099  0.00  0.00    +0.292 HD
ENDBRANCH  16  20
ENDBRANCH  11  12
BRANCH   7  22
ATOM     22  O   UNL     1      10.130   3.871  22.935  0.00  0.00    -0.507 OA
ATOM     23  H   UNL     1      10.088   4.111  21.995  0.00  0.00    +0.292 HD
ENDBRANCH   7  22
BRANCH  10  24
ATOM     24  O   UNL     1      10.123  -0.580  21.381  0.00  0.00    -0.506 OA
ATOM     25  H   UNL     1      11.004  -0.353  21.046  0.00  0.00    +0.292 HD
ENDBRANCH  10  24
BRANCH   1  26
ATOM     26  O   UNL     1       6.602  -2.866  24.450  0.00  0.00    -0.479 OA
BRANCH  26  28
ATOM     27  C   UNL     1       4.560  -4.101  23.889  0.00  0.00    +0.055 C 
ATOM     28  C   UNL     1       5.651  -3.129  23.412  0.00  0.00    +0.205 C 
ATOM     29  C   UNL     1       6.400  -3.737  22.190  0.00  0.00    +0.186 C 
ATOM     30  C   UNL     1       6.862  -5.205  22.378  0.00  0.00    +0.175 C 
ATOM     31  C   UNL     1       5.732  -6.094  22.942  0.00  0.00    +0.151 C 
ATOM     32  C   UNL     1       5.087  -5.506  24.206  0.00  0.00    +0.049 C 
BRANCH  29  33
ATOM     33  O   UNL     1       5.567  -3.639  21.023  0.00  0.00    -0.385 OA
ATOM     34  H   UNL     1       4.694  -4.019  21.259  0.00  0.00    +0.210 HD
ENDBRANCH  29  33
BRANCH  30  35
ATOM     35  O   UNL     1       8.038  -5.266  23.180  0.00  0.00    -0.387 OA
ATOM     36  H   UNL     1       7.934  -6.017  23.792  0.00  0.00    +0.210 HD
ENDBRANCH  30  35
BRANCH  31  37
ATOM     37  O   UNL     1       4.719  -6.209  21.926  0.00  0.00    -0.389 OA
ATOM     38  H   UNL     1       4.302  -7.085  22.032  0.00  0.00    +0.210 HD
ENDBRANCH  31  37
BRANCH  32  39
ATOM     39  C   UNL     1       6.009  -5.558  25.430  0.00  0.00    +0.162 C 
BRANCH  39  40
ATOM     40  O   UNL     1       5.216  -5.420  26.605  0.00  0.00    -0.395 OA
ATOM     41  H   UNL     1       5.797  -5.041  27.289  0.00  0.00    +0.209 HD
ENDBRANCH  39  40
ENDBRANCH  32  39
ENDBRANCH  26  28
ENDBRANCH   1  26
TORSDOF 12
ENDMDL
MODEL 4
REMARK VINA RESULT:      -6.5      2.742      8.174
REMARK  Name = 
REMARK  12 active torsions:
REMARK  status: ('A' for Active; 'I' for Inactive)
REMARK    1  A    between atoms: C_2  and  C_37
REMARK    2  A    between atoms: C_4  and  O_36
REMARK    3  A    between atoms: C_6  and  O_35
REMARK    4  A    between atoms: C_8  and  O_34
REMARK    5  A    between atoms: C_10  and  O_12
REMARK    6  A    between atoms: O_12  and  C_13
REMARK    7  A    between atoms: C_14  and  C_26
REMARK    8  A    between atoms: C_18  and  O_25
REMARK    9  A    between atoms: C_20  and  O_24
REMARK   10  A    between atoms: C_28  and  O_33
REMARK   11  A    between atoms: C_29  and  O_32
REMARK   12  A    between atoms: C_37  and  O_38
REMARK                            x       y       z     vdW  Elec       q    Type
REMARK                         _______ _______ _______ _____ _____    ______ ____
ROOT
ATOM      1  C   UNL     1       8.246   2.988  24.259  0.00  0.00    +0.211 A 
ATOM      2  C   UNL     1       8.682   4.401  24.061  0.00  0.00    +0.238 A 
ATOM      3  O   UNL     1       7.888   5.326  23.951  0.00  0.00    -0.283 OA
ATOM      4  C   UNL     1      10.126   4.630  23.918  0.00  0.00    +0.109 A 
ATOM      5  C   UNL     1      10.910   3.545  23.532  0.00  0.00    +0.147 A 
ATOM      6  C   UNL     1      12.265   3.739  23.243  0.00  0.00    +0.092 A 
ATOM      7  C   UNL     1      12.816   5.016  23.366  0.00  0.00    +0.124 A 
ATOM      8  C   UNL     1      12.050   6.094  23.797  0.00  0.00    +0.091 A 
ATOM      9  O   UNL     1      10.402   2.273  23.399  0.00  0.00    -0.451 OA
ATOM     10  C   UNL     1      10.705   5.897  24.087  0.00  0.00    +0.135 A 
ATOM     11  C   UNL     1       9.112   2.024  23.866  0.00  0.00    +0.181 A 
ENDROOT
BRANCH  11  12
ATOM     12  C   UNL     1       8.744   0.577  23.909  0.00  0.00    +0.025 A 
ATOM     13  C   UNL     1       9.459  -0.348  24.693  0.00  0.00    +0.015 A 
ATOM     14  C   UNL     1       9.040  -1.684  24.796  0.00  0.00    +0.050 A 
ATOM     15  C   UNL     1       7.900  -2.097  24.124  0.00  0.00    +0.158 A 
ATOM     16  C   UNL     1       7.212  -1.217  23.303  0.00  0.00    +0.159 A 
ATOM     17  C   UNL     1       7.648   0.095  23.164  0.00  0.00    +0.060 A 
BRANCH  15  18
ATOM     18  O   UNL     1       7.449  -3.376  24.279  0.00  0.00    -0.503 OA
ATOM     19  H   UNL     1       7.135  -3.413  25.205  0.00  0.00    +0.292 HD
ENDBRANCH  15  18
BRANCH  16  20
ATOM     20  O   UNL     1       6.094  -1.678  22.662  0.00  0.00    -0.503 OA
ATOM     21  H   UNL     1       6.113  -2.651  22.694  0.00  0.00    +0.292 HD
ENDBRANCH  16  20
ENDBRANCH  11  12
BRANCH   7  22
ATOM     22  O   UNL     1      14.121   5.270  23.079  0.00  0.00    -0.507 OA
ATOM     23  H   UNL     1      14.172   5.854  22.305  0.00  0.00    +0.292 HD
ENDBRANCH   7  22
BRANCH  10  24
ATOM     24  O   UNL     1       9.974   6.944  24.572  0.00  0.00    -0.506 OA
ATOM     25  H   UNL     1       9.546   7.422  23.845  0.00  0.00    +0.292 HD
ENDBRANCH  10  24
BRANCH   1  26
ATOM     26  O   UNL     1       7.038   2.662  24.857  0.00  0.00    -0.479 OA
BRANCH  26  28
ATOM     27  C   UNL     1       5.669   1.492  26.521  0.00  0.00    +0.055 C 
ATOM     28  C   UNL     1       6.978   2.243  26.225  0.00  0.00    +0.205 C 
ATOM     29  C   UNL     1       7.081   3.500  27.138  0.00  0.00    +0.186 C 
ATOM     30  C   UNL     1       5.807   4.384  27.170  0.00  0.00    +0.175 C 
ATOM     31  C   UNL     1       4.530   3.542  27.384  0.00  0.00    +0.151 C 
ATOM     32  C   UNL     1       4.417   2.371  26.397  0.00  0.00    +0.049 C 
BRANCH  29  33
ATOM     33  O   UNL     1       7.419   3.093  28.473  0.00  0.00    -0.385 OA
ATOM     34  H   UNL     1       6.929   3.679  29.088  0.00  0.00    +0.210 HD
ENDBRANCH  29  33
BRANCH  30  35
ATOM     35  O   UNL     1       5.722   5.192  25.999  0.00  0.00    -0.387 OA
ATOM     36  H   UNL     1       5.439   4.614  25.267  0.00  0.00    +0.210 HD
ENDBRANCH  30  35
BRANCH  31  37
ATOM     37  O   UNL     1       4.578   3.008  28.720  0.00  0.00    -0.389 OA
ATOM     38  H   UNL     1       3.762   3.292  29.173  0.00  0.00    +0.210 HD
ENDBRANCH  31  37
BRANCH  32  39
ATOM     39  C   UNL     1       4.118   2.821  24.962  0.00  0.00    +0.162 C 
BRANCH  39  40
ATOM     40  O   UNL     1       4.527   1.792  24.066  0.00  0.00    -0.395 OA
ATOM     41  H   UNL     1       3.712   1.403  23.702  0.00  0.00    +0.209 HD
ENDBRANCH  39  40
ENDBRANCH  32  39
ENDBRANCH  26  28
ENDBRANCH   1  26
TORSDOF 12
ENDMDL
MODEL 5
REMARK VINA RESULT:      -6.5      2.483      3.404
REMARK  Name = 
REMARK  12 active torsions:
REMARK  status: ('A' for Active; 'I' for Inactive)
REMARK    1  A    between atoms: C_2  and  C_37
REMARK    2  A    between atoms: C_4  and  O_36
REMARK    3  A    between atoms: C_6  and  O_35
REMARK    4  A    between atoms: C_8  and  O_34
REMARK    5  A    between atoms: C_10  and  O_12
REMARK    6  A    between atoms: O_12  and  C_13
REMARK    7  A    between atoms: C_14  and  C_26
REMARK    8  A    between atoms: C_18  and  O_25
REMARK    9  A    between atoms: C_20  and  O_24
REMARK   10  A    between atoms: C_28  and  O_33
REMARK   11  A    between atoms: C_29  and  O_32
REMARK   12  A    between atoms: C_37  and  O_38
REMARK                            x       y       z     vdW  Elec       q    Type
REMARK                         _______ _______ _______ _____ _____    ______ ____
ROOT
ATOM      1  C   UNL     1       7.566  -0.848  24.675  0.00  0.00    +0.211 A 
ATOM      2  C   UNL     1       8.137  -2.179  24.325  0.00  0.00    +0.238 A 
ATOM      3  O   UNL     1       8.613  -2.423  23.223  0.00  0.00    -0.283 OA
ATOM      4  C   UNL     1       8.030  -3.231  25.345  0.00  0.00    +0.109 A 
ATOM      5  C   UNL     1       7.054  -3.072  26.326  0.00  0.00    +0.147 A 
ATOM      6  C   UNL     1       6.812  -4.107  27.235  0.00  0.00    +0.092 A 
ATOM      7  C   UNL     1       7.569  -5.279  27.157  0.00  0.00    +0.124 A 
ATOM      8  C   UNL     1       8.577  -5.425  26.210  0.00  0.00    +0.091 A 
ATOM      9  O   UNL     1       6.289  -1.933  26.433  0.00  0.00    -0.451 OA
ATOM     10  C   UNL     1       8.817  -4.393  25.311  0.00  0.00    +0.135 A 
ATOM     11  C   UNL     1       6.644  -0.823  25.668  0.00  0.00    +0.181 A 
ENDROOT
BRANCH  11  12
ATOM     12  C   UNL     1       5.918   0.430  26.032  0.00  0.00    +0.025 A 
ATOM     13  C   UNL     1       6.244   1.167  27.186  0.00  0.00    +0.015 A 
ATOM     14  C   UNL     1       5.617   2.393  27.461  0.00  0.00    +0.050 A 
ATOM     15  C   UNL     1       4.672   2.891  26.578  0.00  0.00    +0.158 A 
ATOM     16  C   UNL     1       4.296   2.156  25.464  0.00  0.00    +0.159 A 
ATOM     17  C   UNL     1       4.882   0.921  25.211  0.00  0.00    +0.060 A 
BRANCH  15  18
ATOM     18  O   UNL     1       4.113   4.116  26.804  0.00  0.00    -0.503 OA
ATOM     19  H   UNL     1       3.148   3.949  26.792  0.00  0.00    +0.292 HD
ENDBRANCH  15  18
BRANCH  16  20
ATOM     20  O   UNL     1       3.357   2.694  24.626  0.00  0.00    -0.503 OA
ATOM     21  H   UNL     1       3.804   3.346  24.058  0.00  0.00    +0.292 HD
ENDBRANCH  16  20
ENDBRANCH  11  12
BRANCH   7  22
ATOM     22  O   UNL     1       7.365  -6.326  28.000  0.00  0.00    -0.507 OA
ATOM     23  H   UNL     1       6.572  -6.158  28.535  0.00  0.00    +0.292 HD
ENDBRANCH   7  22
BRANCH  10  24
ATOM     24  O   UNL     1       9.850  -4.515  24.426  0.00  0.00    -0.506 OA
ATOM     25  H   UNL     1      10.502  -5.155  24.754  0.00  0.00    +0.292 HD
ENDBRANCH  10  24
BRANCH   1  26
ATOM     26  O   UNL     1       7.981   0.324  24.060  0.00  0.00    -0.479 OA
BRANCH  26  28
ATOM     27  C   UNL     1       8.704   2.522  24.870  0.00  0.00    +0.055 C 
ATOM     28  C   UNL     1       9.097   1.068  24.560  0.00  0.00    +0.205 C 
ATOM     29  C   UNL     1      10.232   1.047  23.494  0.00  0.00    +0.186 C 
ATOM     30  C   UNL     1       9.971   1.938  22.252  0.00  0.00    +0.175 C 
ATOM     31  C   UNL     1       9.495   3.352  22.649  0.00  0.00    +0.151 C 
ATOM     32  C   UNL     1       8.310   3.328  23.626  0.00  0.00    +0.049 C 
BRANCH  29  33
ATOM     33  O   UNL     1      11.472   1.429  24.110  0.00  0.00    -0.385 OA
ATOM     34  H   UNL     1      12.155   1.435  23.406  0.00  0.00    +0.210 HD
ENDBRANCH  29  33
BRANCH  30  35
ATOM     35  O   UNL     1       9.062   1.303  21.356  0.00  0.00    -0.387 OA
ATOM     36  H   UNL     1       8.833   1.951  20.665  0.00  0.00    +0.210 HD
ENDBRANCH  30  35
BRANCH  31  37
ATOM     37  O   UNL     1      10.599   4.018  23.291  0.00  0.00    -0.389 OA
ATOM     38  H   UNL     1      11.347   3.392  23.301  0.00  0.00    +0.210 HD
ENDBRANCH  31  37
BRANCH  32  39
ATOM     39  C   UNL     1       7.005   2.858  22.973  0.00  0.00    +0.162 C 
BRANCH  39  40
ATOM     40  O   UNL     1       6.854   3.525  21.723  0.00  0.00    -0.395 OA
ATOM     41  H   UNL     1       6.653   2.837  21.064  0.00  0.00    +0.209 HD
ENDBRANCH  39  40
ENDBRANCH  32  39
ENDBRANCH  26  28
ENDBRANCH   1  26
TORSDOF 12
ENDMDL
MODEL 6
REMARK VINA RESULT:      -6.4      2.137      2.899
REMARK  Name = 
REMARK  12 active torsions:
REMARK  status: ('A' for Active; 'I' for Inactive)
REMARK    1  A    between atoms: C_2  and  C_37
REMARK    2  A    between atoms: C_4  and  O_36
REMARK    3  A    between atoms: C_6  and  O_35
REMARK    4  A    between atoms: C_8  and  O_34
REMARK    5  A    between atoms: C_10  and  O_12
REMARK    6  A    between atoms: O_12  and  C_13
REMARK    7  A    between atoms: C_14  and  C_26
REMARK    8  A    between atoms: C_18  and  O_25
REMARK    9  A    between atoms: C_20  and  O_24
REMARK   10  A    between atoms: C_28  and  O_33
REMARK   11  A    between atoms: C_29  and  O_32
REMARK   12  A    between atoms: C_37  and  O_38
REMARK                            x       y       z     vdW  Elec       q    Type
REMARK                         _______ _______ _______ _____ _____    ______ ____
ROOT
ATOM      1  C   UNL     1       7.175  -0.687  24.878  0.00  0.00    +0.211 A 
ATOM      2  C   UNL     1       7.441  -2.048  24.329  0.00  0.00    +0.238 A 
ATOM      3  O   UNL     1       7.521  -2.269  23.127  0.00  0.00    -0.283 OA
ATOM      4  C   UNL     1       7.522  -3.146  25.300  0.00  0.00    +0.109 A 
ATOM      5  C   UNL     1       6.923  -2.946  26.542  0.00  0.00    +0.147 A 
ATOM      6  C   UNL     1       6.845  -4.006  27.451  0.00  0.00    +0.092 A 
ATOM      7  C   UNL     1       7.388  -5.246  27.108  0.00  0.00    +0.124 A 
ATOM      8  C   UNL     1       8.030  -5.438  25.889  0.00  0.00    +0.091 A 
ATOM      9  O   UNL     1       6.375  -1.739  26.916  0.00  0.00    -0.451 OA
ATOM     10  C   UNL     1       8.109  -4.382  24.990  0.00  0.00    +0.135 A 
ATOM     11  C   UNL     1       6.614  -0.627  26.109  0.00  0.00    +0.181 A 
ENDROOT
BRANCH  11  12
ATOM     12  C   UNL     1       6.197   0.671  26.717  0.00  0.00    +0.025 A 
ATOM     13  C   UNL     1       4.920   1.219  26.495  0.00  0.00    +0.015 A 
ATOM     14  C   UNL     1       4.512   2.391  27.152  0.00  0.00    +0.050 A 
ATOM     15  C   UNL     1       5.376   3.012  28.041  0.00  0.00    +0.158 A 
ATOM     16  C   UNL     1       6.658   2.521  28.233  0.00  0.00    +0.159 A 
ATOM     17  C   UNL     1       7.081   1.386  27.552  0.00  0.00    +0.060 A 
BRANCH  15  18
ATOM     18  O   UNL     1       4.957   4.111  28.736  0.00  0.00    -0.503 OA
ATOM     19  H   UNL     1       3.992   3.981  28.839  0.00  0.00    +0.292 HD
ENDBRANCH  15  18
BRANCH  16  20
ATOM     20  O   UNL     1       7.469   3.174  29.122  0.00  0.00    -0.503 OA
ATOM     21  H   UNL     1       8.290   2.658  29.210  0.00  0.00    +0.292 HD
ENDBRANCH  16  20
ENDBRANCH  11  12
BRANCH   7  22
ATOM     22  O   UNL     1       7.325  -6.318  27.942  0.00  0.00    -0.507 OA
ATOM     23  H   UNL     1       8.022  -6.951  27.704  0.00  0.00    +0.292 HD
ENDBRANCH   7  22
BRANCH  10  24
ATOM     24  O   UNL     1       8.797  -4.558  23.822  0.00  0.00    -0.506 OA
ATOM     25  H   UNL     1       9.517  -3.912  23.755  0.00  0.00    +0.292 HD
ENDBRANCH  10  24
BRANCH   1  26
ATOM     26  O   UNL     1       7.524   0.470  24.197  0.00  0.00    -0.479 OA
BRANCH  26  28
ATOM     27  C   UNL     1       8.644   2.646  24.059  0.00  0.00    +0.055 C 
ATOM     28  C   UNL     1       8.729   1.178  24.508  0.00  0.00    +0.205 C 
ATOM     29  C   UNL     1       9.921   0.478  23.792  0.00  0.00    +0.186 C 
ATOM     30  C   UNL     1       9.978   0.702  22.258  0.00  0.00    +0.175 C 
ATOM     31  C   UNL     1       9.797   2.191  21.889  0.00  0.00    +0.151 C 
ATOM     32  C   UNL     1       8.553   2.817  22.537  0.00  0.00    +0.049 C 
BRANCH  29  33
ATOM     33  O   UNL     1      11.155   0.908  24.389  0.00  0.00    -0.385 OA
ATOM     34  H   UNL     1      11.008   0.950  25.358  0.00  0.00    +0.210 HD
ENDBRANCH  29  33
BRANCH  30  35
ATOM     35  O   UNL     1       9.035  -0.131  21.590  0.00  0.00    -0.387 OA
ATOM     36  H   UNL     1       8.216   0.386  21.481  0.00  0.00    +0.210 HD
ENDBRANCH  30  35
BRANCH  31  37
ATOM     37  O   UNL     1      10.959   2.900  22.356  0.00  0.00    -0.389 OA
ATOM     38  H   UNL     1      11.619   2.877  21.638  0.00  0.00    +0.210 HD
ENDBRANCH  31  37
BRANCH  32  39
ATOM     39  C   UNL     1       7.240   2.303  21.935  0.00  0.00    +0.162 C 
BRANCH  39  40
ATOM     40  O   UNL     1       6.362   3.409  21.746  0.00  0.00    -0.395 OA
ATOM     41  H   UNL     1       6.168   3.449  20.792  0.00  0.00    +0.209 HD
ENDBRANCH  39  40
ENDBRANCH  32  39
ENDBRANCH  26  28
ENDBRANCH   1  26
TORSDOF 12
ENDMDL
MODEL 7
REMARK VINA RESULT:      -6.4      1.989      7.713
REMARK  Name = 
REMARK  12 active torsions:
REMARK  status: ('A' for Active; 'I' for Inactive)
REMARK    1  A    between atoms: C_2  and  C_37
REMARK    2  A    between atoms: C_4  and  O_36
REMARK    3  A    between atoms: C_6  and  O_35
REMARK    4  A    between atoms: C_8  and  O_34
REMARK    5  A    between atoms: C_10  and  O_12
REMARK    6  A    between atoms: O_12  and  C_13
REMARK    7  A    between atoms: C_14  and  C_26
REMARK    8  A    between atoms: C_18  and  O_25
REMARK    9  A    between atoms: C_20  and  O_24
REMARK   10  A    between atoms: C_28  and  O_33
REMARK   11  A    between atoms: C_29  and  O_32
REMARK   12  A    between atoms: C_37  and  O_38
REMARK                            x       y       z     vdW  Elec       q    Type
REMARK                         _______ _______ _______ _____ _____    ______ ____
ROOT
ATOM      1  C   UNL     1       6.376  -0.932  24.280  0.00  0.00    +0.211 A 
ATOM      2  C   UNL     1       6.411   0.543  24.495  0.00  0.00    +0.238 A 
ATOM      3  O   UNL     1       5.442   1.174  24.897  0.00  0.00    -0.283 OA
ATOM      4  C   UNL     1       7.652   1.234  24.121  0.00  0.00    +0.109 A 
ATOM      5  C   UNL     1       8.493   0.591  23.214  0.00  0.00    +0.147 A 
ATOM      6  C   UNL     1       9.614   1.261  22.714  0.00  0.00    +0.092 A 
ATOM      7  C   UNL     1       9.885   2.561  23.147  0.00  0.00    +0.124 A 
ATOM      8  C   UNL     1       9.077   3.190  24.088  0.00  0.00    +0.091 A 
ATOM      9  O   UNL     1       8.257  -0.689  22.764  0.00  0.00    -0.451 OA
ATOM     10  C   UNL     1       7.967   2.520  24.586  0.00  0.00    +0.135 A 
ATOM     11  C   UNL     1       7.264  -1.439  23.392  0.00  0.00    +0.181 A 
ENDROOT
BRANCH  11  12
ATOM     12  C   UNL     1       7.251  -2.882  23.008  0.00  0.00    +0.025 A 
ATOM     13  C   UNL     1       7.929  -3.857  23.764  0.00  0.00    +0.015 A 
ATOM     14  C   UNL     1       7.826  -5.220  23.443  0.00  0.00    +0.050 A 
ATOM     15  C   UNL     1       7.036  -5.613  22.374  0.00  0.00    +0.158 A 
ATOM     16  C   UNL     1       6.403  -4.666  21.583  0.00  0.00    +0.159 A 
ATOM     17  C   UNL     1       6.538  -3.313  21.871  0.00  0.00    +0.060 A 
BRANCH  15  18
ATOM     18  O   UNL     1       6.875  -6.942  22.104  0.00  0.00    -0.503 OA
ATOM     19  H   UNL     1       6.626  -7.337  22.964  0.00  0.00    +0.292 HD
ENDBRANCH  15  18
BRANCH  16  20
ATOM     20  O   UNL     1       5.638  -5.110  20.539  0.00  0.00    -0.503 OA
ATOM     21  H   UNL     1       5.226  -5.950  20.809  0.00  0.00    +0.292 HD
ENDBRANCH  16  20
ENDBRANCH  11  12
BRANCH   7  22
ATOM     22  O   UNL     1      10.947   3.270  22.681  0.00  0.00    -0.507 OA
ATOM     23  H   UNL     1      11.437   2.730  22.039  0.00  0.00    +0.292 HD
ENDBRANCH   7  22
BRANCH  10  24
ATOM     24  O   UNL     1       7.214   3.117  25.557  0.00  0.00    -0.506 OA
ATOM     25  H   UNL     1       7.745   3.257  26.357  0.00  0.00    +0.292 HD
ENDBRANCH  10  24
BRANCH   1  26
ATOM     26  O   UNL     1       5.516  -1.764  24.983  0.00  0.00    -0.479 OA
BRANCH  26  28
ATOM     27  C   UNL     1       5.942  -3.440  26.720  0.00  0.00    +0.055 C 
ATOM     28  C   UNL     1       5.665  -1.963  26.393  0.00  0.00    +0.205 C 
ATOM     29  C   UNL     1       4.358  -1.503  27.104  0.00  0.00    +0.186 C 
ATOM     30  C   UNL     1       3.150  -2.458  26.920  0.00  0.00    +0.175 C 
ATOM     31  C   UNL     1       3.536  -3.930  27.182  0.00  0.00    +0.151 C 
ATOM     32  C   UNL     1       4.771  -4.372  26.385  0.00  0.00    +0.049 C 
BRANCH  29  33
ATOM     33  O   UNL     1       4.618  -1.318  28.505  0.00  0.00    -0.385 OA
ATOM     34  H   UNL     1       4.193  -2.064  28.979  0.00  0.00    +0.210 HD
ENDBRANCH  29  33
BRANCH  30  35
ATOM     35  O   UNL     1       2.559  -2.283  25.635  0.00  0.00    -0.387 OA
ATOM     36  H   UNL     1       3.274  -2.347  24.975  0.00  0.00    +0.210 HD
ENDBRANCH  30  35
BRANCH  31  37
ATOM     37  O   UNL     1       3.830  -4.059  28.586  0.00  0.00    -0.389 OA
ATOM     38  H   UNL     1       4.010  -5.003  28.756  0.00  0.00    +0.210 HD
ENDBRANCH  31  37
BRANCH  32  39
ATOM     39  C   UNL     1       4.499  -4.505  24.882  0.00  0.00    +0.162 C 
BRANCH  39  40
ATOM     40  O   UNL     1       3.218  -5.101  24.701  0.00  0.00    -0.395 OA
ATOM     41  H   UNL     1       2.954  -4.920  23.781  0.00  0.00    +0.209 HD
ENDBRANCH  39  40
ENDBRANCH  32  39
ENDBRANCH  26  28
ENDBRANCH   1  26
TORSDOF 12
ENDMDL
MODEL 8
REMARK VINA RESULT:      -6.3      1.546      2.010
REMARK  Name = 
REMARK  12 active torsions:
REMARK  status: ('A' for Active; 'I' for Inactive)
REMARK    1  A    between atoms: C_2  and  C_37
REMARK    2  A    between atoms: C_4  and  O_36
REMARK    3  A    between atoms: C_6  and  O_35
REMARK    4  A    between atoms: C_8  and  O_34
REMARK    5  A    between atoms: C_10  and  O_12
REMARK    6  A    between atoms: O_12  and  C_13
REMARK    7  A    between atoms: C_14  and  C_26
REMARK    8  A    between atoms: C_18  and  O_25
REMARK    9  A    between atoms: C_20  and  O_24
REMARK   10  A    between atoms: C_28  and  O_33
REMARK   11  A    between atoms: C_29  and  O_32
REMARK   12  A    between atoms: C_37  and  O_38
REMARK                            x       y       z     vdW  Elec       q    Type
REMARK                         _______ _______ _______ _____ _____    ______ ____
ROOT
ATOM      1  C   UNL     1       6.300  -1.481  23.968  0.00  0.00    +0.211 A 
ATOM      2  C   UNL     1       5.762  -2.531  23.055  0.00  0.00    +0.238 A 
ATOM      3  O   UNL     1       5.997  -2.542  21.854  0.00  0.00    -0.283 OA
ATOM      4  C   UNL     1       4.856  -3.521  23.651  0.00  0.00    +0.109 A 
ATOM      5  C   UNL     1       4.223  -3.172  24.843  0.00  0.00    +0.147 A 
ATOM      6  C   UNL     1       3.244  -4.014  25.379  0.00  0.00    +0.092 A 
ATOM      7  C   UNL     1       2.929  -5.205  24.721  0.00  0.00    +0.124 A 
ATOM      8  C   UNL     1       3.590  -5.582  23.556  0.00  0.00    +0.091 A 
ATOM      9  O   UNL     1       4.507  -2.007  25.520  0.00  0.00    -0.451 OA
ATOM     10  C   UNL     1       4.565  -4.744  23.029  0.00  0.00    +0.135 A 
ATOM     11  C   UNL     1       5.608  -1.255  25.110  0.00  0.00    +0.181 A 
ENDROOT
BRANCH  11  12
ATOM     12  C   UNL     1       5.982  -0.155  26.048  0.00  0.00    +0.025 A 
ATOM     13  C   UNL     1       6.858  -0.367  27.128  0.00  0.00    +0.015 A 
ATOM     14  C   UNL     1       7.275   0.699  27.941  0.00  0.00    +0.050 A 
ATOM     15  C   UNL     1       6.824   1.982  27.670  0.00  0.00    +0.158 A 
ATOM     16  C   UNL     1       5.917   2.205  26.645  0.00  0.00    +0.159 A 
ATOM     17  C   UNL     1       5.469   1.146  25.865  0.00  0.00    +0.060 A 
BRANCH  15  18
ATOM     18  O   UNL     1       7.283   3.032  28.413  0.00  0.00    -0.503 OA
ATOM     19  H   UNL     1       6.903   3.822  27.977  0.00  0.00    +0.292 HD
ENDBRANCH  15  18
BRANCH  16  20
ATOM     20  O   UNL     1       5.504   3.491  26.422  0.00  0.00    -0.503 OA
ATOM     21  H   UNL     1       6.173   3.925  25.864  0.00  0.00    +0.292 HD
ENDBRANCH  16  20
ENDBRANCH  11  12
BRANCH   7  22
ATOM     22  O   UNL     1       1.972  -6.053  25.182  0.00  0.00    -0.507 OA
ATOM     23  H   UNL     1       2.117  -6.217  26.129  0.00  0.00    +0.292 HD
ENDBRANCH   7  22
BRANCH  10  24
ATOM     24  O   UNL     1       5.256  -5.150  21.923  0.00  0.00    -0.506 OA
ATOM     25  H   UNL     1       4.664  -5.603  21.302  0.00  0.00    +0.292 HD
ENDBRANCH  10  24
BRANCH   1  26
ATOM     26  O   UNL     1       7.476  -0.796  23.700  0.00  0.00    -0.479 OA
BRANCH  26  28
ATOM     27  C   UNL     1       9.023  -0.383  21.844  0.00  0.00    +0.055 C 
ATOM     28  C   UNL     1       7.653  -0.081  22.472  0.00  0.00    +0.205 C 
ATOM     29  C   UNL     1       7.532   1.445  22.760  0.00  0.00    +0.186 C 
ATOM     30  C   UNL     1       8.747   2.063  23.499  0.00  0.00    +0.175 C 
ATOM     31  C   UNL     1      10.086   1.639  22.858  0.00  0.00    +0.151 C 
ATOM     32  C   UNL     1      10.206   0.118  22.683  0.00  0.00    +0.049 C 
BRANCH  29  33
ATOM     33  O   UNL     1       7.310   2.146  21.527  0.00  0.00    -0.385 OA
ATOM     34  H   UNL     1       6.357   2.057  21.311  0.00  0.00    +0.210 HD
ENDBRANCH  29  33
BRANCH  30  35
ATOM     35  O   UNL     1       8.702   1.756  24.890  0.00  0.00    -0.387 OA
ATOM     36  H   UNL     1       8.651   0.787  24.973  0.00  0.00    +0.210 HD
ENDBRANCH  30  35
BRANCH  31  37
ATOM     37  O   UNL     1      10.160   2.253  21.558  0.00  0.00    -0.389 OA
ATOM     38  H   UNL     1      11.068   2.595  21.452  0.00  0.00    +0.210 HD
ENDBRANCH  31  37
BRANCH  32  39
ATOM     39  C   UNL     1      10.380  -0.627  24.012  0.00  0.00    +0.162 C 
BRANCH  39  40
ATOM     40  O   UNL     1      11.011   0.245  24.945  0.00  0.00    -0.395 OA
ATOM     41  H   UNL     1      11.694  -0.280  25.398  0.00  0.00    +0.209 HD
ENDBRANCH  39  40
ENDBRANCH  32  39
ENDBRANCH  26  28
ENDBRANCH   1  26
TORSDOF 12
ENDMDL
MODEL 9
REMARK VINA RESULT:      -6.3      1.614      5.020
REMARK  Name = 
REMARK  12 active torsions:
REMARK  status: ('A' for Active; 'I' for Inactive)
REMARK    1  A    between atoms: C_2  and  C_37
REMARK    2  A    between atoms: C_4  and  O_36
REMARK    3  A    between atoms: C_6  and  O_35
REMARK    4  A    between atoms: C_8  and  O_34
REMARK    5  A    between atoms: C_10  and  O_12
REMARK    6  A    between atoms: O_12  and  C_13
REMARK    7  A    between atoms: C_14  and  C_26
REMARK    8  A    between atoms: C_18  and  O_25
REMARK    9  A    between atoms: C_20  and  O_24
REMARK   10  A    between atoms: C_28  and  O_33
REMARK   11  A    between atoms: C_29  and  O_32
REMARK   12  A    between atoms: C_37  and  O_38
REMARK                            x       y       z     vdW  Elec       q    Type
REMARK                         _______ _______ _______ _____ _____    ______ ____
ROOT
ATOM      1  C   UNL     1       7.094  -1.442  25.514  0.00  0.00    +0.211 A 
ATOM      2  C   UNL     1       6.481  -2.758  25.857  0.00  0.00    +0.238 A 
ATOM      3  O   UNL     1       6.139  -3.048  26.997  0.00  0.00    -0.283 OA
ATOM      4  C   UNL     1       6.379  -3.740  24.770  0.00  0.00    +0.109 A 
ATOM      5  C   UNL     1       7.226  -3.574  23.676  0.00  0.00    +0.147 A 
ATOM      6  C   UNL     1       7.272  -4.555  22.682  0.00  0.00    +0.092 A 
ATOM      7  C   UNL     1       6.452  -5.681  22.790  0.00  0.00    +0.124 A 
ATOM      8  C   UNL     1       5.570  -5.830  23.855  0.00  0.00    +0.091 A 
ATOM      9  O   UNL     1       8.049  -2.479  23.536  0.00  0.00    -0.451 OA
ATOM     10  C   UNL     1       5.524  -4.851  24.839  0.00  0.00    +0.135 A 
ATOM     11  C   UNL     1       7.877  -1.406  24.409  0.00  0.00    +0.181 A 
ENDROOT
BRANCH  11  12
ATOM     12  C   UNL     1       8.634  -0.177  24.027  0.00  0.00    +0.025 A 
ATOM     13  C   UNL     1       9.816   0.202  24.690  0.00  0.00    +0.015 A 
ATOM     14  C   UNL     1      10.567   1.306  24.254  0.00  0.00    +0.050 A 
ATOM     15  C   UNL     1      10.144   2.027  23.149  0.00  0.00    +0.158 A 
ATOM     16  C   UNL     1       8.953   1.705  22.515  0.00  0.00    +0.159 A 
ATOM     17  C   UNL     1       8.185   0.640  22.969  0.00  0.00    +0.060 A 
BRANCH  15  18
ATOM     18  O   UNL     1      10.908   3.057  22.678  0.00  0.00    -0.503 OA
ATOM     19  H   UNL     1      11.690   2.619  22.284  0.00  0.00    +0.292 HD
ENDBRANCH  15  18
BRANCH  16  20
ATOM     20  O   UNL     1       8.583   2.452  21.429  0.00  0.00    -0.503 OA
ATOM     21  H   UNL     1       8.328   1.836  20.718  0.00  0.00    +0.292 HD
ENDBRANCH  16  20
ENDBRANCH  11  12
BRANCH   7  22
ATOM     22  O   UNL     1       6.469  -6.677  21.865  0.00  0.00    -0.507 OA
ATOM     23  H   UNL     1       7.223  -6.548  21.267  0.00  0.00    +0.292 HD
ENDBRANCH   7  22
BRANCH  10  24
ATOM     24  O   UNL     1       4.610  -4.971  25.847  0.00  0.00    -0.506 OA
ATOM     25  H   UNL     1       3.725  -4.731  25.531  0.00  0.00    +0.292 HD
ENDBRANCH  10  24
BRANCH   1  26
ATOM     26  O   UNL     1       6.846  -0.293  26.251  0.00  0.00    -0.479 OA
BRANCH  26  28
ATOM     27  C   UNL     1       5.043   1.346  25.988  0.00  0.00    +0.055 C 
ATOM     28  C   UNL     1       5.520   0.050  26.665  0.00  0.00    +0.205 C 
ATOM     29  C   UNL     1       5.508   0.230  28.212  0.00  0.00    +0.186 C 
ATOM     30  C   UNL     1       6.190   1.527  28.718  0.00  0.00    +0.175 C 
ATOM     31  C   UNL     1       5.722   2.768  27.928  0.00  0.00    +0.151 C 
ATOM     32  C   UNL     1       5.843   2.586  26.408  0.00  0.00    +0.049 C 
BRANCH  29  33
ATOM     33  O   UNL     1       4.154   0.179  28.687  0.00  0.00    -0.385 OA
ATOM     34  H   UNL     1       3.869  -0.759  28.649  0.00  0.00    +0.210 HD
ENDBRANCH  29  33
BRANCH  30  35
ATOM     35  O   UNL     1       7.609   1.391  28.704  0.00  0.00    -0.387 OA
ATOM     36  H   UNL     1       7.870   1.157  27.795  0.00  0.00    +0.210 HD
ENDBRANCH  30  35
BRANCH  31  37
ATOM     37  O   UNL     1       4.336   2.992  28.250  0.00  0.00    -0.389 OA
ATOM     38  H   UNL     1       3.988   3.630  27.598  0.00  0.00    +0.210 HD
ENDBRANCH  31  37
BRANCH  32  39
ATOM     39  C   UNL     1       7.296   2.578  25.919  0.00  0.00    +0.162 C 
BRANCH  39  40
ATOM     40  O   UNL     1       8.006   3.619  26.582  0.00  0.00    -0.395 OA
ATOM     41  H   UNL     1       7.769   3.560  27.525  0.00  0.00    +0.209 HD
ENDBRANCH  39  40
ENDBRANCH  32  39
ENDBRANCH  26  28
ENDBRANCH   1  26
TORSDOF 12
ENDMDL
