MODEL 1
REMARK VINA RESULT:      -8.2      0.000      0.000
REMARK  Name = 
REMARK  22 active torsions:
REMARK  status: ('A' for Active; 'I' for Inactive)
REMARK    1  A    between atoms: C_1  and  C_2
REMARK    2  A    between atoms: C_4  and  O_68
REMARK    3  A    between atoms: C_6  and  O_67
REMARK    4  A    between atoms: C_8  and  O_66
REMARK    5  A    between atoms: C_10  and  O_13
REMARK    6  A    between atoms: O_13  and  C_14
REMARK    7  A    between atoms: C_14  and  C_15
REMARK    8  A    between atoms: C_17  and  O_65
REMARK    9  A    between atoms: C_19  and  O_64
REMARK   10  A    between atoms: C_21  and  O_48
REMARK   11  A    between atoms: C_23  and  O_26
REMARK   12  A    between atoms: O_26  and  C_27
REMARK   13  A    between atoms: C_28  and  C_40
REMARK   14  A    between atoms: C_32  and  O_39
REMARK   15  A    between atoms: C_34  and  O_38
REMARK   16  A    between atoms: C_42  and  O_47
REMARK   17  A    between atoms: C_43  and  O_46
REMARK   18  A    between atoms: O_48  and  C_49
REMARK   19  A    between atoms: C_51  and  O_63
REMARK   20  A    between atoms: C_53  and  O_62
REMARK   21  A    between atoms: C_55  and  O_61
REMARK   22  A    between atoms: C_57  and  C_60
REMARK                            x       y       z     vdW  Elec       q    Type
REMARK                         _______ _______ _______ _____ _____    ______ ____
ROOT
ATOM      1  C   UNL     1       7.617  -3.049  22.963  0.00  0.00    +0.179 C 
ATOM      2  O   UNL     1       6.500  -2.234  23.321  0.00  0.00    -0.331 OA
ATOM      3  C   UNL     1       5.662  -2.854  24.283  0.00  0.00    +0.340 C 
ATOM      4  C   UNL     1       4.995  -4.116  23.685  0.00  0.00    +0.221 C 
ATOM      5  C   UNL     1       6.131  -5.030  23.136  0.00  0.00    +0.180 C 
ATOM      6  C   UNL     1       7.059  -4.243  22.186  0.00  0.00    +0.177 C 
ENDROOT
BRANCH   6   7
ATOM      7  O   UNL     1       6.282  -3.842  21.048  0.00  0.00    -0.386 OA
ATOM      8  H   UNL     1       6.821  -3.191  20.545  0.00  0.00    +0.210 HD
ENDBRANCH   6   7
BRANCH   5   9
ATOM      9  O   UNL     1       5.567  -6.176  22.477  0.00  0.00    -0.386 OA
ATOM     10  H   UNL     1       5.583  -5.998  21.520  0.00  0.00    +0.210 HD
ENDBRANCH   5   9
BRANCH   4  11
ATOM     11  O   UNL     1       4.263  -4.871  24.681  0.00  0.00    -0.337 OA
BRANCH  11  12
ATOM     12  C   UNL     1       2.848  -4.731  24.614  0.00  0.00    +0.282 C 
ATOM     13  O   UNL     1       2.213  -5.302  25.768  0.00  0.00    -0.343 OA
ATOM     14  C   UNL     1       2.405  -6.713  25.904  0.00  0.00    +0.149 C 
ATOM     15  C   UNL     1       1.607  -7.141  27.135  0.00  0.00    +0.041 C 
ATOM     16  C   UNL     1       1.947  -7.497  24.657  0.00  0.00    +0.174 C 
ATOM     17  C   UNL     1       2.549  -6.867  23.391  0.00  0.00    +0.179 C 
ATOM     18  C   UNL     1       2.234  -5.364  23.352  0.00  0.00    +0.201 C 
BRANCH  18  19
ATOM     19  O   UNL     1       0.820  -5.096  23.283  0.00  0.00    -0.384 OA
ATOM     20  H   UNL     1       0.414  -5.859  22.823  0.00  0.00    +0.210 HD
ENDBRANCH  18  19
BRANCH  17  21
ATOM     21  O   UNL     1       2.062  -7.519  22.215  0.00  0.00    -0.386 OA
ATOM     22  H   UNL     1       2.641  -8.283  22.045  0.00  0.00    +0.210 HD
ENDBRANCH  17  21
BRANCH  16  23
ATOM     23  O   UNL     1       2.319  -8.874  24.792  0.00  0.00    -0.387 OA
ATOM     24  H   UNL     1       1.898  -9.223  25.597  0.00  0.00    +0.210 HD
ENDBRANCH  16  23
ENDBRANCH  11  12
ENDBRANCH   4  11
BRANCH   3  25
ATOM     25  O   UNL     1       4.769  -1.834  24.766  0.00  0.00    -0.453 OA
BRANCH  25  26
ATOM     26  C   UNL     1       5.274  -1.046  25.820  0.00  0.00    +0.214 A 
ATOM     27  C   UNL     1       5.169   0.472  25.759  0.00  0.00    +0.238 A 
ATOM     28  O   UNL     1       4.547   1.089  24.905  0.00  0.00    -0.283 OA
ATOM     29  C   UNL     1       5.833   1.272  26.775  0.00  0.00    +0.109 A 
ATOM     30  C   UNL     1       6.405   0.591  27.830  0.00  0.00    +0.147 A 
ATOM     31  C   UNL     1       7.024   1.313  28.854  0.00  0.00    +0.092 A 
ATOM     32  C   UNL     1       7.054   2.706  28.793  0.00  0.00    +0.124 A 
ATOM     33  C   UNL     1       6.480   3.395  27.734  0.00  0.00    +0.091 A 
ATOM     34  O   UNL     1       6.375  -0.770  27.952  0.00  0.00    -0.451 OA
ATOM     35  C   UNL     1       5.861   2.671  26.720  0.00  0.00    +0.135 A 
ATOM     36  C   UNL     1       5.827  -1.575  26.945  0.00  0.00    +0.181 A 
BRANCH  36  37
ATOM     37  C   UNL     1       5.881  -3.038  27.349  0.00  0.00    +0.025 A 
ATOM     38  C   UNL     1       4.759  -3.615  27.999  0.00  0.00    +0.015 A 
ATOM     39  C   UNL     1       4.654  -4.996  28.240  0.00  0.00    +0.050 A 
ATOM     40  C   UNL     1       5.694  -5.823  27.868  0.00  0.00    +0.158 A 
ATOM     41  C   UNL     1       6.860  -5.276  27.350  0.00  0.00    +0.159 A 
ATOM     42  C   UNL     1       6.949  -3.905  27.081  0.00  0.00    +0.060 A 
BRANCH  41  43
ATOM     43  O   UNL     1       7.911  -6.120  27.106  0.00  0.00    -0.503 OA
ATOM     44  H   UNL     1       7.552  -6.900  26.629  0.00  0.00    +0.292 HD
ENDBRANCH  41  43
BRANCH  40  45
ATOM     45  O   UNL     1       5.557  -7.172  28.002  0.00  0.00    -0.503 OA
ATOM     46  H   UNL     1       4.808  -7.404  27.419  0.00  0.00    +0.292 HD
ENDBRANCH  40  45
ENDBRANCH  36  37
BRANCH  35  47
ATOM     47  O   UNL     1       5.303   3.365  25.688  0.00  0.00    -0.506 OA
ATOM     48  H   UNL     1       4.566   3.912  26.000  0.00  0.00    +0.292 HD
ENDBRANCH  35  47
BRANCH  32  49
ATOM     49  O   UNL     1       7.643   3.460  29.759  0.00  0.00    -0.507 OA
ATOM     50  H   UNL     1       8.476   3.037  30.038  0.00  0.00    +0.292 HD
ENDBRANCH  32  49
ENDBRANCH  25  26
ENDBRANCH   3  25
BRANCH   1  51
ATOM     51  C   UNL     1       8.573  -2.153  22.183  0.00  0.00    +0.197 C 
BRANCH  51  52
ATOM     52  O   UNL     1       9.388  -1.440  23.111  0.00  0.00    -0.346 OA
BRANCH  52  56
ATOM     53  C   UNL     1       6.920   2.122  22.710  0.00  0.00    +0.041 C 
ATOM     54  C   UNL     1       8.283   1.880  22.072  0.00  0.00    +0.149 C 
ATOM     55  O   UNL     1       8.624   0.490  22.040  0.00  0.00    -0.343 OA
ATOM     56  C   UNL     1       8.955  -0.092  23.301  0.00  0.00    +0.282 C 
ATOM     57  C   UNL     1      10.119   0.640  24.002  0.00  0.00    +0.201 C 
ATOM     58  C   UNL     1       9.890   2.152  24.039  0.00  0.00    +0.179 C 
ATOM     59  C   UNL     1       9.452   2.679  22.667  0.00  0.00    +0.174 C 
BRANCH  59  60
ATOM     60  O   UNL     1      10.565   2.560  21.760  0.00  0.00    -0.387 OA
ATOM     61  H   UNL     1      10.267   2.049  20.985  0.00  0.00    +0.210 HD
ENDBRANCH  59  60
BRANCH  58  62
ATOM     62  O   UNL     1       8.963   2.505  25.079  0.00  0.00    -0.386 OA
ATOM     63  H   UNL     1       8.059   2.538  24.726  0.00  0.00    +0.210 HD
ENDBRANCH  58  62
BRANCH  57  64
ATOM     64  O   UNL     1      10.300   0.128  25.333  0.00  0.00    -0.384 OA
ATOM     65  H   UNL     1       9.973  -0.790  25.351  0.00  0.00    +0.210 HD
ENDBRANCH  57  64
ENDBRANCH  52  56
ENDBRANCH  51  52
ENDBRANCH   1  51
TORSDOF 20
ENDMDL
MODEL 2
REMARK VINA RESULT:      -8.1      2.108      3.792
REMARK  Name = 
REMARK  22 active torsions:
REMARK  status: ('A' for Active; 'I' for Inactive)
REMARK    1  A    between atoms: C_1  and  C_2
REMARK    2  A    between atoms: C_4  and  O_68
REMARK    3  A    between atoms: C_6  and  O_67
REMARK    4  A    between atoms: C_8  and  O_66
REMARK    5  A    between atoms: C_10  and  O_13
REMARK    6  A    between atoms: O_13  and  C_14
REMARK    7  A    between atoms: C_14  and  C_15
REMARK    8  A    between atoms: C_17  and  O_65
REMARK    9  A    between atoms: C_19  and  O_64
REMARK   10  A    between atoms: C_21  and  O_48
REMARK   11  A    between atoms: C_23  and  O_26
REMARK   12  A    between atoms: O_26  and  C_27
REMARK   13  A    between atoms: C_28  and  C_40
REMARK   14  A    between atoms: C_32  and  O_39
REMARK   15  A    between atoms: C_34  and  O_38
REMARK   16  A    between atoms: C_42  and  O_47
REMARK   17  A    between atoms: C_43  and  O_46
REMARK   18  A    between atoms: O_48  and  C_49
REMARK   19  A    between atoms: C_51  and  O_63
REMARK   20  A    between atoms: C_53  and  O_62
REMARK   21  A    between atoms: C_55  and  O_61
REMARK   22  A    between atoms: C_57  and  C_60
REMARK                            x       y       z     vdW  Elec       q    Type
REMARK                         _______ _______ _______ _____ _____    ______ ____
ROOT
ATOM      1  C   UNL     1       9.421   0.482  24.202  0.00  0.00    +0.179 C 
ATOM      2  O   UNL     1       7.996   0.412  24.118  0.00  0.00    -0.331 OA
ATOM      3  C   UNL     1       7.520  -0.923  24.078  0.00  0.00    +0.340 C 
ATOM      4  C   UNL     1       7.980  -1.621  22.776  0.00  0.00    +0.221 C 
ATOM      5  C   UNL     1       9.529  -1.489  22.696  0.00  0.00    +0.180 C 
ATOM      6  C   UNL     1       9.965  -0.017  22.862  0.00  0.00    +0.177 C 
ENDROOT
BRANCH   6   7
ATOM      7  O   UNL     1       9.442   0.722  21.749  0.00  0.00    -0.386 OA
ATOM      8  H   UNL     1       8.532   1.004  21.991  0.00  0.00    +0.210 HD
ENDBRANCH   6   7
BRANCH   5   9
ATOM      9  O   UNL     1      10.008  -2.034  21.455  0.00  0.00    -0.386 OA
ATOM     10  H   UNL     1       9.241  -2.410  20.988  0.00  0.00    +0.210 HD
ENDBRANCH   5   9
BRANCH   4  11
ATOM     11  O   UNL     1       7.655  -3.033  22.769  0.00  0.00    -0.337 OA
BRANCH  11  12
ATOM     12  C   UNL     1       6.587  -3.396  21.902  0.00  0.00    +0.282 C 
ATOM     13  O   UNL     1       5.315  -3.243  22.551  0.00  0.00    -0.343 OA
ATOM     14  C   UNL     1       5.130  -4.094  23.685  0.00  0.00    +0.149 C 
ATOM     15  C   UNL     1       3.711  -3.839  24.191  0.00  0.00    +0.041 C 
ATOM     16  C   UNL     1       5.330  -5.585  23.347  0.00  0.00    +0.174 C 
ATOM     17  C   UNL     1       6.649  -5.778  22.583  0.00  0.00    +0.179 C 
ATOM     18  C   UNL     1       6.697  -4.836  21.371  0.00  0.00    +0.201 C 
BRANCH  18  19
ATOM     19  O   UNL     1       5.654  -5.110  20.415  0.00  0.00    -0.384 OA
ATOM     20  H   UNL     1       5.053  -4.338  20.432  0.00  0.00    +0.210 HD
ENDBRANCH  18  19
BRANCH  17  21
ATOM     21  O   UNL     1       6.809  -7.140  22.175  0.00  0.00    -0.386 OA
ATOM     22  H   UNL     1       7.637  -7.466  22.569  0.00  0.00    +0.210 HD
ENDBRANCH  17  21
BRANCH  16  23
ATOM     23  O   UNL     1       5.296  -6.361  24.551  0.00  0.00    -0.387 OA
ATOM     24  H   UNL     1       6.210  -6.473  24.864  0.00  0.00    +0.210 HD
ENDBRANCH  16  23
ENDBRANCH  11  12
ENDBRANCH   4  11
BRANCH   3  25
ATOM     25  O   UNL     1       6.098  -0.856  24.293  0.00  0.00    -0.453 OA
BRANCH  25  26
ATOM     26  C   UNL     1       5.702  -0.214  25.483  0.00  0.00    +0.214 A 
ATOM     27  C   UNL     1       5.148   1.203  25.442  0.00  0.00    +0.238 A 
ATOM     28  O   UNL     1       4.884   1.813  24.415  0.00  0.00    -0.283 OA
ATOM     29  C   UNL     1       4.894   1.904  26.690  0.00  0.00    +0.109 A 
ATOM     30  C   UNL     1       5.036   1.178  27.854  0.00  0.00    +0.147 A 
ATOM     31  C   UNL     1       4.767   1.792  29.080  0.00  0.00    +0.092 A 
ATOM     32  C   UNL     1       4.362   3.127  29.107  0.00  0.00    +0.124 A 
ATOM     33  C   UNL     1       4.217   3.860  27.939  0.00  0.00    +0.091 A 
ATOM     34  O   UNL     1       5.400  -0.140  27.879  0.00  0.00    -0.451 OA
ATOM     35  C   UNL     1       4.481   3.242  26.721  0.00  0.00    +0.135 A 
ATOM     36  C   UNL     1       5.744  -0.818  26.703  0.00  0.00    +0.181 A 
BRANCH  36  37
ATOM     37  C   UNL     1       6.065  -2.272  27.005  0.00  0.00    +0.025 A 
ATOM     38  C   UNL     1       5.053  -3.101  27.554  0.00  0.00    +0.015 A 
ATOM     39  C   UNL     1       5.208  -4.491  27.691  0.00  0.00    +0.050 A 
ATOM     40  C   UNL     1       6.401  -5.074  27.315  0.00  0.00    +0.158 A 
ATOM     41  C   UNL     1       7.457  -4.276  26.896  0.00  0.00    +0.159 A 
ATOM     42  C   UNL     1       7.289  -2.896  26.730  0.00  0.00    +0.060 A 
BRANCH  41  43
ATOM     43  O   UNL     1       8.659  -4.882  26.648  0.00  0.00    -0.503 OA
ATOM     44  H   UNL     1       9.271  -4.189  26.313  0.00  0.00    +0.292 HD
ENDBRANCH  41  43
BRANCH  40  45
ATOM     45  O   UNL     1       6.522  -6.430  27.346  0.00  0.00    -0.503 OA
ATOM     46  H   UNL     1       6.012  -6.707  28.132  0.00  0.00    +0.292 HD
ENDBRANCH  40  45
ENDBRANCH  36  37
BRANCH  35  47
ATOM     47  O   UNL     1       4.334   3.979  25.584  0.00  0.00    -0.506 OA
ATOM     48  H   UNL     1       4.934   4.740  25.587  0.00  0.00    +0.292 HD
ENDBRANCH  35  47
BRANCH  32  49
ATOM     49  O   UNL     1       4.089   3.776  30.270  0.00  0.00    -0.507 OA
ATOM     50  H   UNL     1       4.821   3.637  30.898  0.00  0.00    +0.292 HD
ENDBRANCH  32  49
ENDBRANCH  25  26
ENDBRANCH   3  25
BRANCH   1  51
ATOM     51  C   UNL     1       9.764   1.927  24.548  0.00  0.00    +0.197 C 
BRANCH  51  52
ATOM     52  O   UNL     1       8.558   2.618  24.865  0.00  0.00    -0.346 OA
BRANCH  52  56
ATOM     53  C   UNL     1       9.440   6.720  23.710  0.00  0.00    +0.041 C 
ATOM     54  C   UNL     1       8.264   6.243  24.554  0.00  0.00    +0.149 C 
ATOM     55  O   UNL     1       8.489   4.940  25.104  0.00  0.00    -0.343 OA
ATOM     56  C   UNL     1       8.438   3.861  24.171  0.00  0.00    +0.282 C 
ATOM     57  C   UNL     1       7.097   3.801  23.409  0.00  0.00    +0.201 C 
ATOM     58  C   UNL     1       6.722   5.165  22.826  0.00  0.00    +0.179 C 
ATOM     59  C   UNL     1       6.890   6.277  23.868  0.00  0.00    +0.174 C 
BRANCH  59  60
ATOM     60  O   UNL     1       5.891   6.096  24.889  0.00  0.00    -0.387 OA
ATOM     61  H   UNL     1       5.052   6.465  24.557  0.00  0.00    +0.210 HD
ENDBRANCH  59  60
BRANCH  58  62
ATOM     62  O   UNL     1       7.463   5.430  21.623  0.00  0.00    -0.386 OA
ATOM     63  H   UNL     1       6.905   5.898  20.980  0.00  0.00    +0.210 HD
ENDBRANCH  58  62
BRANCH  57  64
ATOM     64  O   UNL     1       7.159   2.811  22.368  0.00  0.00    -0.384 OA
ATOM     65  H   UNL     1       6.687   3.162  21.591  0.00  0.00    +0.210 HD
ENDBRANCH  57  64
ENDBRANCH  52  56
ENDBRANCH  51  52
ENDBRANCH   1  51
TORSDOF 20
ENDMDL
MODEL 3
REMARK VINA RESULT:      -7.6      2.050      8.239
REMARK  Name = 
REMARK  22 active torsions:
REMARK  status: ('A' for Active; 'I' for Inactive)
REMARK    1  A    between atoms: C_1  and  C_2
REMARK    2  A    between atoms: C_4  and  O_68
REMARK    3  A    between atoms: C_6  and  O_67
REMARK    4  A    between atoms: C_8  and  O_66
REMARK    5  A    between atoms: C_10  and  O_13
REMARK    6  A    between atoms: O_13  and  C_14
REMARK    7  A    between atoms: C_14  and  C_15
REMARK    8  A    between atoms: C_17  and  O_65
REMARK    9  A    between atoms: C_19  and  O_64
REMARK   10  A    between atoms: C_21  and  O_48
REMARK   11  A    between atoms: C_23  and  O_26
REMARK   12  A    between atoms: O_26  and  C_27
REMARK   13  A    between atoms: C_28  and  C_40
REMARK   14  A    between atoms: C_32  and  O_39
REMARK   15  A    between atoms: C_34  and  O_38
REMARK   16  A    between atoms: C_42  and  O_47
REMARK   17  A    between atoms: C_43  and  O_46
REMARK   18  A    between atoms: O_48  and  C_49
REMARK   19  A    between atoms: C_51  and  O_63
REMARK   20  A    between atoms: C_53  and  O_62
REMARK   21  A    between atoms: C_55  and  O_61
REMARK   22  A    between atoms: C_57  and  C_60
REMARK                            x       y       z     vdW  Elec       q    Type
REMARK                         _______ _______ _______ _____ _____    ______ ____
ROOT
ATOM      1  C   UNL     1       5.782  -1.810  26.325  0.00  0.00    +0.179 C 
ATOM      2  O   UNL     1       5.737  -0.971  25.170  0.00  0.00    -0.331 OA
ATOM      3  C   UNL     1       5.927   0.398  25.485  0.00  0.00    +0.340 C 
ATOM      4  C   UNL     1       4.750   0.924  26.341  0.00  0.00    +0.221 C 
ATOM      5  C   UNL     1       4.621  -0.010  27.581  0.00  0.00    +0.180 C 
ATOM      6  C   UNL     1       4.533  -1.490  27.149  0.00  0.00    +0.177 C 
ENDROOT
BRANCH   6   7
ATOM      7  O   UNL     1       3.323  -1.654  26.396  0.00  0.00    -0.386 OA
ATOM      8  H   UNL     1       2.578  -1.645  27.040  0.00  0.00    +0.210 HD
ENDBRANCH   6   7
BRANCH   5   9
ATOM      9  O   UNL     1       3.479   0.369  28.367  0.00  0.00    -0.386 OA
ATOM     10  H   UNL     1       3.427  -0.246  29.120  0.00  0.00    +0.210 HD
ENDBRANCH   5   9
BRANCH   4  11
ATOM     11  O   UNL     1       4.983   2.269  26.823  0.00  0.00    -0.337 OA
BRANCH  11  12
ATOM     12  C   UNL     1       5.636   2.346  28.085  0.00  0.00    +0.282 C 
ATOM     13  O   UNL     1       4.793   2.962  29.072  0.00  0.00    -0.343 OA
ATOM     14  C   UNL     1       4.454   4.322  28.786  0.00  0.00    +0.149 C 
ATOM     15  C   UNL     1       3.621   4.817  29.967  0.00  0.00    +0.041 C 
ATOM     16  C   UNL     1       5.696   5.212  28.581  0.00  0.00    +0.174 C 
ATOM     17  C   UNL     1       6.660   4.548  27.586  0.00  0.00    +0.179 C 
ATOM     18  C   UNL     1       6.971   3.112  28.034  0.00  0.00    +0.201 C 
BRANCH  18  19
ATOM     19  O   UNL     1       7.638   3.062  29.310  0.00  0.00    -0.384 OA
ATOM     20  H   UNL     1       7.681   2.118  29.564  0.00  0.00    +0.210 HD
ENDBRANCH  18  19
BRANCH  17  21
ATOM     21  O   UNL     1       7.864   5.310  27.453  0.00  0.00    -0.386 OA
ATOM     22  H   UNL     1       8.610   4.704  27.606  0.00  0.00    +0.210 HD
ENDBRANCH  17  21
BRANCH  16  23
ATOM     23  O   UNL     1       5.289   6.512  28.137  0.00  0.00    -0.387 OA
ATOM     24  H   UNL     1       5.201   6.487  27.169  0.00  0.00    +0.210 HD
ENDBRANCH  16  23
ENDBRANCH  11  12
ENDBRANCH   4  11
BRANCH   3  25
ATOM     25  O   UNL     1       6.155   1.077  24.236  0.00  0.00    -0.453 OA
BRANCH  25  26
ATOM     26  C   UNL     1       7.446   1.618  24.075  0.00  0.00    +0.214 A 
ATOM     27  C   UNL     1       7.694   3.097  24.337  0.00  0.00    +0.238 A 
ATOM     28  O   UNL     1       6.871   3.862  24.820  0.00  0.00    -0.283 OA
ATOM     29  C   UNL     1       8.992   3.669  24.015  0.00  0.00    +0.109 A 
ATOM     30  C   UNL     1       9.980   2.790  23.618  0.00  0.00    +0.147 A 
ATOM     31  C   UNL     1      11.256   3.281  23.333  0.00  0.00    +0.092 A 
ATOM     32  C   UNL     1      11.510   4.648  23.451  0.00  0.00    +0.124 A 
ATOM     33  C   UNL     1      10.521   5.534  23.850  0.00  0.00    +0.091 A 
ATOM     34  O   UNL     1       9.790   1.440  23.517  0.00  0.00    -0.451 OA
ATOM     35  C   UNL     1       9.253   5.039  24.138  0.00  0.00    +0.135 A 
ATOM     36  C   UNL     1       8.528   0.869  23.729  0.00  0.00    +0.181 A 
BRANCH  36  37
ATOM     37  C   UNL     1       8.603  -0.643  23.598  0.00  0.00    +0.025 A 
ATOM     38  C   UNL     1       9.435  -1.371  24.488  0.00  0.00    +0.015 A 
ATOM     39  C   UNL     1       9.422  -2.774  24.555  0.00  0.00    +0.050 A 
ATOM     40  C   UNL     1       8.599  -3.480  23.700  0.00  0.00    +0.158 A 
ATOM     41  C   UNL     1       7.871  -2.805  22.730  0.00  0.00    +0.159 A 
ATOM     42  C   UNL     1       7.861  -1.406  22.687  0.00  0.00    +0.060 A 
BRANCH  41  43
ATOM     43  O   UNL     1       7.162  -3.551  21.827  0.00  0.00    -0.503 OA
ATOM     44  H   UNL     1       7.720  -3.642  21.023  0.00  0.00    +0.292 HD
ENDBRANCH  41  43
BRANCH  40  45
ATOM     45  O   UNL     1       8.502  -4.832  23.829  0.00  0.00    -0.503 OA
ATOM     46  H   UNL     1       8.986  -5.039  24.653  0.00  0.00    +0.292 HD
ENDBRANCH  40  45
ENDBRANCH  36  37
BRANCH  35  47
ATOM     47  O   UNL     1       8.293   5.925  24.527  0.00  0.00    -0.506 OA
ATOM     48  H   UNL     1       8.369   6.755  24.031  0.00  0.00    +0.292 HD
ENDBRANCH  35  47
BRANCH  32  49
ATOM     49  O   UNL     1      12.732   5.181  23.184  0.00  0.00    -0.507 OA
ATOM     50  H   UNL     1      12.643   6.142  23.045  0.00  0.00    +0.292 HD
ENDBRANCH  32  49
ENDBRANCH  25  26
ENDBRANCH   3  25
BRANCH   1  51
ATOM     51  C   UNL     1       5.878  -3.244  25.817  0.00  0.00    +0.197 C 
BRANCH  51  52
ATOM     52  O   UNL     1       5.012  -3.387  24.693  0.00  0.00    -0.346 OA
BRANCH  52  56
ATOM     53  C   UNL     1       1.634  -5.997  25.543  0.00  0.00    +0.041 C 
ATOM     54  C   UNL     1       2.969  -5.963  26.278  0.00  0.00    +0.149 C 
ATOM     55  O   UNL     1       3.679  -4.741  26.051  0.00  0.00    -0.343 OA
ATOM     56  C   UNL     1       4.235  -4.585  24.746  0.00  0.00    +0.282 C 
ATOM     57  C   UNL     1       5.192  -5.736  24.370  0.00  0.00    +0.201 C 
ATOM     58  C   UNL     1       4.556  -7.103  24.632  0.00  0.00    +0.179 C 
ATOM     59  C   UNL     1       3.906  -7.153  26.020  0.00  0.00    +0.174 C 
BRANCH  59  60
ATOM     60  O   UNL     1       4.950  -7.106  27.011  0.00  0.00    -0.387 OA
ATOM     61  H   UNL     1       4.786  -6.335  27.584  0.00  0.00    +0.210 HD
ENDBRANCH  59  60
BRANCH  58  62
ATOM     62  O   UNL     1       3.633  -7.448  23.586  0.00  0.00    -0.386 OA
ATOM     63  H   UNL     1       3.140  -8.250  23.824  0.00  0.00    +0.210 HD
ENDBRANCH  58  62
BRANCH  57  64
ATOM     64  O   UNL     1       5.589  -5.624  22.993  0.00  0.00    -0.384 OA
ATOM     65  H   UNL     1       6.208  -4.875  22.917  0.00  0.00    +0.210 HD
ENDBRANCH  57  64
ENDBRANCH  52  56
ENDBRANCH  51  52
ENDBRANCH   1  51
TORSDOF 20
ENDMDL
MODEL 4
REMARK VINA RESULT:      -7.3      2.637      4.768
REMARK  Name = 
REMARK  22 active torsions:
REMARK  status: ('A' for Active; 'I' for Inactive)
REMARK    1  A    between atoms: C_1  and  C_2
REMARK    2  A    between atoms: C_4  and  O_68
REMARK    3  A    between atoms: C_6  and  O_67
REMARK    4  A    between atoms: C_8  and  O_66
REMARK    5  A    between atoms: C_10  and  O_13
REMARK    6  A    between atoms: O_13  and  C_14
REMARK    7  A    between atoms: C_14  and  C_15
REMARK    8  A    between atoms: C_17  and  O_65
REMARK    9  A    between atoms: C_19  and  O_64
REMARK   10  A    between atoms: C_21  and  O_48
REMARK   11  A    between atoms: C_23  and  O_26
REMARK   12  A    between atoms: O_26  and  C_27
REMARK   13  A    between atoms: C_28  and  C_40
REMARK   14  A    between atoms: C_32  and  O_39
REMARK   15  A    between atoms: C_34  and  O_38
REMARK   16  A    between atoms: C_42  and  O_47
REMARK   17  A    between atoms: C_43  and  O_46
REMARK   18  A    between atoms: O_48  and  C_49
REMARK   19  A    between atoms: C_51  and  O_63
REMARK   20  A    between atoms: C_53  and  O_62
REMARK   21  A    between atoms: C_55  and  O_61
REMARK   22  A    between atoms: C_57  and  C_60
REMARK                            x       y       z     vdW  Elec       q    Type
REMARK                         _______ _______ _______ _____ _____    ______ ____
ROOT
ATOM      1  C   UNL     1       9.649   0.838  23.311  0.00  0.00    +0.179 C 
ATOM      2  O   UNL     1       8.253   0.602  23.126  0.00  0.00    -0.331 OA
ATOM      3  C   UNL     1       7.748  -0.388  24.007  0.00  0.00    +0.340 C 
ATOM      4  C   UNL     1       8.378  -1.765  23.690  0.00  0.00    +0.221 C 
ATOM      5  C   UNL     1       9.925  -1.593  23.735  0.00  0.00    +0.180 C 
ATOM      6  C   UNL     1      10.375  -0.422  22.835  0.00  0.00    +0.177 C 
ENDROOT
BRANCH   6   7
ATOM      7  O   UNL     1      10.049  -0.763  21.480  0.00  0.00    -0.386 OA
ATOM      8  H   UNL     1       9.407  -0.090  21.159  0.00  0.00    +0.210 HD
ENDBRANCH   6   7
BRANCH   5   9
ATOM      9  O   UNL     1      10.570  -2.818  23.351  0.00  0.00    -0.386 OA
ATOM     10  H   UNL     1      10.724  -3.333  24.163  0.00  0.00    +0.210 HD
ENDBRANCH   5   9
BRANCH   4  11
ATOM     11  O   UNL     1       8.016  -2.770  24.669  0.00  0.00    -0.337 OA
BRANCH  11  12
ATOM     12  C   UNL     1       8.556  -4.064  24.423  0.00  0.00    +0.282 C 
ATOM     13  O   UNL     1       7.684  -4.842  23.588  0.00  0.00    -0.343 OA
ATOM     14  C   UNL     1       6.407  -5.116  24.170  0.00  0.00    +0.149 C 
ATOM     15  C   UNL     1       5.658  -6.000  23.174  0.00  0.00    +0.041 C 
ATOM     16  C   UNL     1       6.517  -5.811  25.543  0.00  0.00    +0.174 C 
ATOM     17  C   UNL     1       7.503  -5.046  26.441  0.00  0.00    +0.179 C 
ATOM     18  C   UNL     1       8.841  -4.858  25.710  0.00  0.00    +0.201 C 
BRANCH  18  19
ATOM     19  O   UNL     1       9.486  -6.110  25.406  0.00  0.00    -0.384 OA
ATOM     20  H   UNL     1       8.849  -6.629  24.875  0.00  0.00    +0.210 HD
ENDBRANCH  18  19
BRANCH  17  21
ATOM     21  O   UNL     1       7.694  -5.725  27.685  0.00  0.00    -0.386 OA
ATOM     22  H   UNL     1       8.579  -5.488  28.013  0.00  0.00    +0.210 HD
ENDBRANCH  17  21
BRANCH  16  23
ATOM     23  O   UNL     1       5.218  -5.904  26.140  0.00  0.00    -0.387 OA
ATOM     24  H   UNL     1       5.064  -6.833  26.383  0.00  0.00    +0.210 HD
ENDBRANCH  16  23
ENDBRANCH  11  12
ENDBRANCH   4  11
BRANCH   3  25
ATOM     25  O   UNL     1       6.312  -0.314  23.925  0.00  0.00    -0.453 OA
BRANCH  25  26
ATOM     26  C   UNL     1       5.747   0.890  24.391  0.00  0.00    +0.214 A 
ATOM     27  C   UNL     1       5.692   2.111  23.483  0.00  0.00    +0.238 A 
ATOM     28  O   UNL     1       5.988   2.105  22.296  0.00  0.00    -0.283 OA
ATOM     29  C   UNL     1       5.252   3.384  24.030  0.00  0.00    +0.109 A 
ATOM     30  C   UNL     1       4.765   3.375  25.321  0.00  0.00    +0.147 A 
ATOM     31  C   UNL     1       4.293   4.564  25.883  0.00  0.00    +0.092 A 
ATOM     32  C   UNL     1       4.323   5.739  25.131  0.00  0.00    +0.124 A 
ATOM     33  C   UNL     1       4.810   5.753  23.833  0.00  0.00    +0.091 A 
ATOM     34  O   UNL     1       4.687   2.245  26.087  0.00  0.00    -0.451 OA
ATOM     35  C   UNL     1       5.274   4.565  23.277  0.00  0.00    +0.135 A 
ATOM     36  C   UNL     1       5.189   1.022  25.626  0.00  0.00    +0.181 A 
BRANCH  36  37
ATOM     37  C   UNL     1       4.937  -0.074  26.648  0.00  0.00    +0.025 A 
ATOM     38  C   UNL     1       4.921   0.262  28.027  0.00  0.00    +0.015 A 
ATOM     39  C   UNL     1       4.516  -0.647  29.019  0.00  0.00    +0.050 A 
ATOM     40  C   UNL     1       4.158  -1.928  28.651  0.00  0.00    +0.158 A 
ATOM     41  C   UNL     1       4.288  -2.328  27.328  0.00  0.00    +0.159 A 
ATOM     42  C   UNL     1       4.659  -1.411  26.337  0.00  0.00    +0.060 A 
BRANCH  41  43
ATOM     43  O   UNL     1       4.035  -3.639  27.027  0.00  0.00    -0.503 OA
ATOM     44  H   UNL     1       3.655  -4.055  27.833  0.00  0.00    +0.292 HD
ENDBRANCH  41  43
BRANCH  40  45
ATOM     45  O   UNL     1       3.666  -2.782  29.592  0.00  0.00    -0.503 OA
ATOM     46  H   UNL     1       3.901  -3.672  29.266  0.00  0.00    +0.292 HD
ENDBRANCH  40  45
ENDBRANCH  36  37
BRANCH  35  47
ATOM     47  O   UNL     1       5.750   4.599  22.000  0.00  0.00    -0.506 OA
ATOM     48  H   UNL     1       5.256   5.239  21.465  0.00  0.00    +0.292 HD
ENDBRANCH  35  47
BRANCH  32  49
ATOM     49  O   UNL     1       3.879   6.924  25.627  0.00  0.00    -0.507 OA
ATOM     50  H   UNL     1       4.440   7.193  26.377  0.00  0.00    +0.292 HD
ENDBRANCH  32  49
ENDBRANCH  25  26
ENDBRANCH   3  25
BRANCH   1  51
ATOM     51  C   UNL     1       9.979   2.112  22.541  0.00  0.00    +0.197 C 
BRANCH  51  52
ATOM     52  O   UNL     1      10.949   2.853  23.280  0.00  0.00    -0.346 OA
BRANCH  52  56
ATOM     53  C   UNL     1       8.252   5.000  25.936  0.00  0.00    +0.041 C 
ATOM     54  C   UNL     1       8.263   5.049  24.412  0.00  0.00    +0.149 C 
ATOM     55  O   UNL     1       8.957   3.934  23.842  0.00  0.00    -0.343 OA
ATOM     56  C   UNL     1      10.376   3.950  23.992  0.00  0.00    +0.282 C 
ATOM     57  C   UNL     1      11.019   5.225  23.407  0.00  0.00    +0.201 C 
ATOM     58  C   UNL     1      10.312   6.488  23.904  0.00  0.00    +0.179 C 
ATOM     59  C   UNL     1       8.789   6.351  23.789  0.00  0.00    +0.174 C 
BRANCH  59  60
ATOM     60  O   UNL     1       8.440   6.335  22.392  0.00  0.00    -0.387 OA
ATOM     61  H   UNL     1       8.903   5.584  21.976  0.00  0.00    +0.210 HD
ENDBRANCH  59  60
BRANCH  58  62
ATOM     62  O   UNL     1      10.730   6.818  25.239  0.00  0.00    -0.386 OA
ATOM     63  H   UNL     1      10.239   6.285  25.886  0.00  0.00    +0.210 HD
ENDBRANCH  58  62
BRANCH  57  64
ATOM     64  O   UNL     1      12.418   5.274  23.734  0.00  0.00    -0.384 OA
ATOM     65  H   UNL     1      12.921   5.324  22.900  0.00  0.00    +0.210 HD
ENDBRANCH  57  64
ENDBRANCH  52  56
ENDBRANCH  51  52
ENDBRANCH   1  51
TORSDOF 20
ENDMDL
MODEL 5
REMARK VINA RESULT:      -7.3      1.168      6.933
REMARK  Name = 
REMARK  22 active torsions:
REMARK  status: ('A' for Active; 'I' for Inactive)
REMARK    1  A    between atoms: C_1  and  C_2
REMARK    2  A    between atoms: C_4  and  O_68
REMARK    3  A    between atoms: C_6  and  O_67
REMARK    4  A    between atoms: C_8  and  O_66
REMARK    5  A    between atoms: C_10  and  O_13
REMARK    6  A    between atoms: O_13  and  C_14
REMARK    7  A    between atoms: C_14  and  C_15
REMARK    8  A    between atoms: C_17  and  O_65
REMARK    9  A    between atoms: C_19  and  O_64
REMARK   10  A    between atoms: C_21  and  O_48
REMARK   11  A    between atoms: C_23  and  O_26
REMARK   12  A    between atoms: O_26  and  C_27
REMARK   13  A    between atoms: C_28  and  C_40
REMARK   14  A    between atoms: C_32  and  O_39
REMARK   15  A    between atoms: C_34  and  O_38
REMARK   16  A    between atoms: C_42  and  O_47
REMARK   17  A    between atoms: C_43  and  O_46
REMARK   18  A    between atoms: O_48  and  C_49
REMARK   19  A    between atoms: C_51  and  O_63
REMARK   20  A    between atoms: C_53  and  O_62
REMARK   21  A    between atoms: C_55  and  O_61
REMARK   22  A    between atoms: C_57  and  C_60
REMARK                            x       y       z     vdW  Elec       q    Type
REMARK                         _______ _______ _______ _____ _____    ______ ____
ROOT
ATOM      1  C   UNL     1       6.051  -4.180  22.495  0.00  0.00    +0.179 C 
ATOM      2  O   UNL     1       5.357  -3.608  23.606  0.00  0.00    -0.331 OA
ATOM      3  C   UNL     1       5.651  -2.231  23.779  0.00  0.00    +0.340 C 
ATOM      4  C   UNL     1       7.138  -2.040  24.161  0.00  0.00    +0.221 C 
ATOM      5  C   UNL     1       7.996  -2.749  23.072  0.00  0.00    +0.180 C 
ATOM      6  C   UNL     1       7.534  -4.209  22.870  0.00  0.00    +0.177 C 
ENDROOT
BRANCH   6   7
ATOM      7  O   UNL     1       7.776  -4.916  24.094  0.00  0.00    -0.386 OA
ATOM      8  H   UNL     1       8.691  -4.695  24.380  0.00  0.00    +0.210 HD
ENDBRANCH   6   7
BRANCH   5   9
ATOM      9  O   UNL     1       9.388  -2.691  23.425  0.00  0.00    -0.386 OA
ATOM     10  H   UNL     1       9.588  -3.486  23.951  0.00  0.00    +0.210 HD
ENDBRANCH   5   9
BRANCH   4  11
ATOM     11  O   UNL     1       7.521  -0.644  24.186  0.00  0.00    -0.337 OA
BRANCH  11  12
ATOM     12  C   UNL     1       8.132  -0.171  22.991  0.00  0.00    +0.282 C 
ATOM     13  O   UNL     1       9.514   0.155  23.206  0.00  0.00    -0.343 OA
ATOM     14  C   UNL     1       9.726   1.221  24.136  0.00  0.00    +0.149 C 
ATOM     15  C   UNL     1      11.234   1.464  24.179  0.00  0.00    +0.041 C 
ATOM     16  C   UNL     1       8.976   2.510  23.742  0.00  0.00    +0.174 C 
ATOM     17  C   UNL     1       7.506   2.187  23.429  0.00  0.00    +0.179 C 
ATOM     18  C   UNL     1       7.425   1.058  22.391  0.00  0.00    +0.201 C 
BRANCH  18  19
ATOM     19  O   UNL     1       8.018   1.422  21.129  0.00  0.00    -0.384 OA
ATOM     20  H   UNL     1       8.980   1.266  21.218  0.00  0.00    +0.210 HD
ENDBRANCH  18  19
BRANCH  17  21
ATOM     21  O   UNL     1       6.814   3.351  22.969  0.00  0.00    -0.386 OA
ATOM     22  H   UNL     1       5.975   3.053  22.576  0.00  0.00    +0.210 HD
ENDBRANCH  17  21
BRANCH  16  23
ATOM     23  O   UNL     1       9.095   3.476  24.793  0.00  0.00    -0.387 OA
ATOM     24  H   UNL     1       9.665   4.198  24.475  0.00  0.00    +0.210 HD
ENDBRANCH  16  23
ENDBRANCH  11  12
ENDBRANCH   4  11
BRANCH   3  25
ATOM     25  O   UNL     1       4.685  -1.722  24.716  0.00  0.00    -0.453 OA
BRANCH  25  26
ATOM     26  C   UNL     1       5.221  -0.978  25.785  0.00  0.00    +0.214 A 
ATOM     27  C   UNL     1       5.169   0.543  25.762  0.00  0.00    +0.238 A 
ATOM     28  O   UNL     1       4.563   1.202  24.928  0.00  0.00    -0.283 OA
ATOM     29  C   UNL     1       5.865   1.295  26.793  0.00  0.00    +0.109 A 
ATOM     30  C   UNL     1       6.420   0.570  27.828  0.00  0.00    +0.147 A 
ATOM     31  C   UNL     1       7.068   1.245  28.866  0.00  0.00    +0.092 A 
ATOM     32  C   UNL     1       7.145   2.637  28.838  0.00  0.00    +0.124 A 
ATOM     33  C   UNL     1       6.589   3.370  27.800  0.00  0.00    +0.091 A 
ATOM     34  O   UNL     1       6.344  -0.793  27.917  0.00  0.00    -0.451 OA
ATOM     35  C   UNL     1       5.941   2.693  26.773  0.00  0.00    +0.135 A 
ATOM     36  C   UNL     1       5.763  -1.553  26.894  0.00  0.00    +0.181 A 
BRANCH  36  37
ATOM     37  C   UNL     1       5.769  -3.027  27.262  0.00  0.00    +0.025 A 
ATOM     38  C   UNL     1       4.583  -3.614  27.776  0.00  0.00    +0.015 A 
ATOM     39  C   UNL     1       4.448  -4.999  27.967  0.00  0.00    +0.050 A 
ATOM     40  C   UNL     1       5.518  -5.823  27.684  0.00  0.00    +0.158 A 
ATOM     41  C   UNL     1       6.734  -5.270  27.304  0.00  0.00    +0.159 A 
ATOM     42  C   UNL     1       6.855  -3.893  27.083  0.00  0.00    +0.060 A 
BRANCH  41  43
ATOM     43  O   UNL     1       7.801  -6.114  27.149  0.00  0.00    -0.503 OA
ATOM     44  H   UNL     1       7.515  -6.836  26.546  0.00  0.00    +0.292 HD
ENDBRANCH  41  43
BRANCH  40  45
ATOM     45  O   UNL     1       5.363  -7.174  27.766  0.00  0.00    -0.503 OA
ATOM     46  H   UNL     1       4.864  -7.316  28.595  0.00  0.00    +0.292 HD
ENDBRANCH  40  45
ENDBRANCH  36  37
BRANCH  35  47
ATOM     47  O   UNL     1       5.401   3.431  25.761  0.00  0.00    -0.506 OA
ATOM     48  H   UNL     1       4.961   4.222  26.108  0.00  0.00    +0.292 HD
ENDBRANCH  35  47
BRANCH  32  49
ATOM     49  O   UNL     1       7.766   3.346  29.818  0.00  0.00    -0.507 OA
ATOM     50  H   UNL     1       7.426   4.260  29.823  0.00  0.00    +0.292 HD
ENDBRANCH  32  49
ENDBRANCH  25  26
ENDBRANCH   3  25
BRANCH   1  51
ATOM     51  C   UNL     1       5.415  -5.542  22.243  0.00  0.00    +0.197 C 
BRANCH  51  52
ATOM     52  O   UNL     1       4.979  -6.080  23.490  0.00  0.00    -0.346 OA
BRANCH  52  56
ATOM     53  C   UNL     1       0.946  -6.647  21.957  0.00  0.00    +0.041 C 
ATOM     54  C   UNL     1       1.401  -5.594  22.960  0.00  0.00    +0.149 C 
ATOM     55  O   UNL     1       2.818  -5.395  22.928  0.00  0.00    -0.343 OA
ATOM     56  C   UNL     1       3.601  -6.456  23.475  0.00  0.00    +0.282 C 
ATOM     57  C   UNL     1       3.226  -6.773  24.938  0.00  0.00    +0.201 C 
ATOM     58  C   UNL     1       1.715  -6.946  25.105  0.00  0.00    +0.179 C 
ATOM     59  C   UNL     1       0.949  -5.813  24.412  0.00  0.00    +0.174 C 
BRANCH  59  60
ATOM     60  O   UNL     1       1.199  -4.591  25.133  0.00  0.00    -0.387 OA
ATOM     61  H   UNL     1       1.925  -4.758  25.762  0.00  0.00    +0.210 HD
ENDBRANCH  59  60
BRANCH  58  62
ATOM     62  O   UNL     1       1.294  -8.244  24.652  0.00  0.00    -0.386 OA
ATOM     63  H   UNL     1       1.574  -8.386  23.732  0.00  0.00    +0.210 HD
ENDBRANCH  58  62
BRANCH  57  64
ATOM     64  O   UNL     1       3.917  -7.952  25.385  0.00  0.00    -0.384 OA
ATOM     65  H   UNL     1       3.251  -8.590  25.703  0.00  0.00    +0.210 HD
ENDBRANCH  57  64
ENDBRANCH  52  56
ENDBRANCH  51  52
ENDBRANCH   1  51
TORSDOF 20
ENDMDL
MODEL 6
REMARK VINA RESULT:      -7.2      2.180      5.323
REMARK  Name = 
REMARK  22 active torsions:
REMARK  status: ('A' for Active; 'I' for Inactive)
REMARK    1  A    between atoms: C_1  and  C_2
REMARK    2  A    between atoms: C_4  and  O_68
REMARK    3  A    between atoms: C_6  and  O_67
REMARK    4  A    between atoms: C_8  and  O_66
REMARK    5  A    between atoms: C_10  and  O_13
REMARK    6  A    between atoms: O_13  and  C_14
REMARK    7  A    between atoms: C_14  and  C_15
REMARK    8  A    between atoms: C_17  and  O_65
REMARK    9  A    between atoms: C_19  and  O_64
REMARK   10  A    between atoms: C_21  and  O_48
REMARK   11  A    between atoms: C_23  and  O_26
REMARK   12  A    between atoms: O_26  and  C_27
REMARK   13  A    between atoms: C_28  and  C_40
REMARK   14  A    between atoms: C_32  and  O_39
REMARK   15  A    between atoms: C_34  and  O_38
REMARK   16  A    between atoms: C_42  and  O_47
REMARK   17  A    between atoms: C_43  and  O_46
REMARK   18  A    between atoms: O_48  and  C_49
REMARK   19  A    between atoms: C_51  and  O_63
REMARK   20  A    between atoms: C_53  and  O_62
REMARK   21  A    between atoms: C_55  and  O_61
REMARK   22  A    between atoms: C_57  and  C_60
REMARK                            x       y       z     vdW  Elec       q    Type
REMARK                         _______ _______ _______ _____ _____    ______ ____
ROOT
ATOM      1  C   UNL     1       3.687   0.249  26.988  0.00  0.00    +0.179 C 
ATOM      2  O   UNL     1       4.760  -0.640  27.304  0.00  0.00    -0.331 OA
ATOM      3  C   UNL     1       4.390  -2.004  27.181  0.00  0.00    +0.340 C 
ATOM      4  C   UNL     1       3.314  -2.368  28.233  0.00  0.00    +0.221 C 
ATOM      5  C   UNL     1       2.136  -1.364  28.065  0.00  0.00    +0.180 C 
ATOM      6  C   UNL     1       2.645   0.093  28.098  0.00  0.00    +0.177 C 
ENDROOT
BRANCH   6   7
ATOM      7  O   UNL     1       3.194   0.334  29.402  0.00  0.00    -0.386 OA
ATOM      8  H   UNL     1       2.525   0.031  30.057  0.00  0.00    +0.210 HD
ENDBRANCH   6   7
BRANCH   5   9
ATOM      9  O   UNL     1       1.146  -1.590  29.081  0.00  0.00    -0.386 OA
ATOM     10  H   UNL     1       0.320  -1.171  28.781  0.00  0.00    +0.210 HD
ENDBRANCH   5   9
BRANCH   4  11
ATOM     11  O   UNL     1       2.789  -3.704  28.037  0.00  0.00    -0.337 OA
BRANCH  11  12
ATOM     12  C   UNL     1       2.461  -4.398  29.235  0.00  0.00    +0.282 C 
ATOM     13  O   UNL     1       3.624  -4.604  30.052  0.00  0.00    -0.343 OA
ATOM     14  C   UNL     1       4.625  -5.429  29.449  0.00  0.00    +0.149 C 
ATOM     15  C   UNL     1       5.737  -5.587  30.485  0.00  0.00    +0.041 C 
ATOM     16  C   UNL     1       4.079  -6.807  29.020  0.00  0.00    +0.174 C 
ATOM     17  C   UNL     1       2.789  -6.629  28.205  0.00  0.00    +0.179 C 
ATOM     18  C   UNL     1       1.790  -5.760  28.984  0.00  0.00    +0.201 C 
BRANCH  18  19
ATOM     19  O   UNL     1       1.381  -6.365  30.226  0.00  0.00    -0.384 OA
ATOM     20  H   UNL     1       1.400  -5.656  30.900  0.00  0.00    +0.210 HD
ENDBRANCH  18  19
BRANCH  17  21
ATOM     21  O   UNL     1       2.212  -7.896  27.877  0.00  0.00    -0.386 OA
ATOM     22  H   UNL     1       2.382  -8.058  26.932  0.00  0.00    +0.210 HD
ENDBRANCH  17  21
BRANCH  16  23
ATOM     23  O   UNL     1       5.082  -7.512  28.280  0.00  0.00    -0.387 OA
ATOM     24  H   UNL     1       4.797  -8.438  28.193  0.00  0.00    +0.210 HD
ENDBRANCH  16  23
ENDBRANCH  11  12
ENDBRANCH   4  11
BRANCH   3  25
ATOM     25  O   UNL     1       5.610  -2.765  27.233  0.00  0.00    -0.453 OA
BRANCH  25  26
ATOM     26  C   UNL     1       6.424  -2.671  26.086  0.00  0.00    +0.214 A 
ATOM     27  C   UNL     1       7.675  -1.804  26.103  0.00  0.00    +0.238 A 
ATOM     28  O   UNL     1       8.127  -1.261  27.101  0.00  0.00    -0.283 OA
ATOM     29  C   UNL     1       8.412  -1.594  24.867  0.00  0.00    +0.109 A 
ATOM     30  C   UNL     1       8.007  -2.324  23.768  0.00  0.00    +0.147 A 
ATOM     31  C   UNL     1       8.705  -2.190  22.565  0.00  0.00    +0.092 A 
ATOM     32  C   UNL     1       9.795  -1.322  22.494  0.00  0.00    +0.124 A 
ATOM     33  C   UNL     1      10.205  -0.588  23.597  0.00  0.00    +0.091 A 
ATOM     34  O   UNL     1       6.966  -3.209  23.794  0.00  0.00    -0.451 OA
ATOM     35  C   UNL     1       9.510  -0.729  24.793  0.00  0.00    +0.135 A 
ATOM     36  C   UNL     1       6.177  -3.364  24.940  0.00  0.00    +0.181 A 
BRANCH  36  37
ATOM     37  C   UNL     1       5.123  -4.435  24.717  0.00  0.00    +0.025 A 
ATOM     38  C   UNL     1       4.075  -4.188  23.791  0.00  0.00    +0.015 A 
ATOM     39  C   UNL     1       3.171  -5.187  23.392  0.00  0.00    +0.050 A 
ATOM     40  C   UNL     1       3.275  -6.447  23.943  0.00  0.00    +0.158 A 
ATOM     41  C   UNL     1       4.205  -6.687  24.946  0.00  0.00    +0.159 A 
ATOM     42  C   UNL     1       5.125  -5.700  25.319  0.00  0.00    +0.060 A 
BRANCH  41  43
ATOM     43  O   UNL     1       4.194  -7.916  25.550  0.00  0.00    -0.503 OA
ATOM     44  H   UNL     1       5.129  -8.210  25.627  0.00  0.00    +0.292 HD
ENDBRANCH  41  43
BRANCH  40  45
ATOM     45  O   UNL     1       2.471  -7.447  23.485  0.00  0.00    -0.503 OA
ATOM     46  H   UNL     1       1.646  -7.357  24.000  0.00  0.00    +0.292 HD
ENDBRANCH  40  45
ENDBRANCH  36  37
BRANCH  35  47
ATOM     47  O   UNL     1       9.928   0.001  25.866  0.00  0.00    -0.506 OA
ATOM     48  H   UNL     1      10.495  -0.531  26.445  0.00  0.00    +0.292 HD
ENDBRANCH  35  47
BRANCH  32  49
ATOM     49  O   UNL     1      10.508  -1.150  21.350  0.00  0.00    -0.507 OA
ATOM     50  H   UNL     1      10.340  -0.259  20.993  0.00  0.00    +0.292 HD
ENDBRANCH  32  49
ENDBRANCH  25  26
ENDBRANCH   3  25
BRANCH   1  51
ATOM     51  C   UNL     1       4.299   1.638  26.859  0.00  0.00    +0.197 C 
BRANCH  51  52
ATOM     52  O   UNL     1       5.647   1.503  26.412  0.00  0.00    -0.346 OA
BRANCH  52  56
ATOM     53  C   UNL     1       4.903   4.098  22.999  0.00  0.00    +0.041 C 
ATOM     54  C   UNL     1       5.215   2.606  22.960  0.00  0.00    +0.149 C 
ATOM     55  O   UNL     1       4.983   1.974  24.224  0.00  0.00    -0.343 OA
ATOM     56  C   UNL     1       5.923   2.287  25.250  0.00  0.00    +0.282 C 
ATOM     57  C   UNL     1       7.375   1.956  24.844  0.00  0.00    +0.201 C 
ATOM     58  C   UNL     1       7.718   2.535  23.469  0.00  0.00    +0.179 C 
ATOM     59  C   UNL     1       6.614   2.229  22.450  0.00  0.00    +0.174 C 
BRANCH  59  60
ATOM     60  O   UNL     1       6.614   0.811  22.194  0.00  0.00    -0.387 OA
ATOM     61  H   UNL     1       5.687   0.512  22.160  0.00  0.00    +0.210 HD
ENDBRANCH  59  60
BRANCH  58  62
ATOM     62  O   UNL     1       8.000   3.941  23.561  0.00  0.00    -0.386 OA
ATOM     63  H   UNL     1       7.669   4.296  24.402  0.00  0.00    +0.210 HD
ENDBRANCH  58  62
BRANCH  57  64
ATOM     64  O   UNL     1       8.294   2.444  25.836  0.00  0.00    -0.384 OA
ATOM     65  H   UNL     1       8.627   1.680  26.341  0.00  0.00    +0.210 HD
ENDBRANCH  57  64
ENDBRANCH  52  56
ENDBRANCH  51  52
ENDBRANCH   1  51
TORSDOF 20
ENDMDL
MODEL 7
REMARK VINA RESULT:      -7.2      1.576      8.413
REMARK  Name = 
REMARK  22 active torsions:
REMARK  status: ('A' for Active; 'I' for Inactive)
REMARK    1  A    between atoms: C_1  and  C_2
REMARK    2  A    between atoms: C_4  and  O_68
REMARK    3  A    between atoms: C_6  and  O_67
REMARK    4  A    between atoms: C_8  and  O_66
REMARK    5  A    between atoms: C_10  and  O_13
REMARK    6  A    between atoms: O_13  and  C_14
REMARK    7  A    between atoms: C_14  and  C_15
REMARK    8  A    between atoms: C_17  and  O_65
REMARK    9  A    between atoms: C_19  and  O_64
REMARK   10  A    between atoms: C_21  and  O_48
REMARK   11  A    between atoms: C_23  and  O_26
REMARK   12  A    between atoms: O_26  and  C_27
REMARK   13  A    between atoms: C_28  and  C_40
REMARK   14  A    between atoms: C_32  and  O_39
REMARK   15  A    between atoms: C_34  and  O_38
REMARK   16  A    between atoms: C_42  and  O_47
REMARK   17  A    between atoms: C_43  and  O_46
REMARK   18  A    between atoms: O_48  and  C_49
REMARK   19  A    between atoms: C_51  and  O_63
REMARK   20  A    between atoms: C_53  and  O_62
REMARK   21  A    between atoms: C_55  and  O_61
REMARK   22  A    between atoms: C_57  and  C_60
REMARK                            x       y       z     vdW  Elec       q    Type
REMARK                         _______ _______ _______ _____ _____    ______ ____
ROOT
ATOM      1  C   UNL     1       5.396  -3.290  23.127  0.00  0.00    +0.179 C 
ATOM      2  O   UNL     1       6.089  -3.656  24.321  0.00  0.00    -0.331 OA
ATOM      3  C   UNL     1       7.059  -2.695  24.704  0.00  0.00    +0.340 C 
ATOM      4  C   UNL     1       8.192  -2.624  23.653  0.00  0.00    +0.221 C 
ATOM      5  C   UNL     1       7.531  -2.355  22.269  0.00  0.00    +0.180 C 
ATOM      6  C   UNL     1       6.411  -3.381  21.985  0.00  0.00    +0.177 C 
ENDROOT
BRANCH   6   7
ATOM      7  O   UNL     1       7.019  -4.677  21.894  0.00  0.00    -0.386 OA
ATOM      8  H   UNL     1       7.436  -4.738  21.004  0.00  0.00    +0.210 HD
ENDBRANCH   6   7
BRANCH   5   9
ATOM      9  O   UNL     1       8.526  -2.377  21.233  0.00  0.00    -0.386 OA
ATOM     10  H   UNL     1       8.927  -1.490  21.196  0.00  0.00    +0.210 HD
ENDBRANCH   5   9
BRANCH   4  11
ATOM     11  O   UNL     1       9.117  -1.541  23.918  0.00  0.00    -0.337 OA
BRANCH  11  12
ATOM     12  C   UNL     1       8.529  -0.386  24.507  0.00  0.00    +0.282 C 
ATOM     13  O   UNL     1       7.661   0.286  23.582  0.00  0.00    -0.343 OA
ATOM     14  C   UNL     1       8.324   0.800  22.424  0.00  0.00    +0.149 C 
ATOM     15  C   UNL     1       7.261   1.531  21.605  0.00  0.00    +0.041 C 
ATOM     16  C   UNL     1       9.487   1.749  22.779  0.00  0.00    +0.174 C 
ATOM     17  C   UNL     1      10.400   1.092  23.827  0.00  0.00    +0.179 C 
ATOM     18  C   UNL     1       9.567   0.624  25.029  0.00  0.00    +0.201 C 
BRANCH  18  19
ATOM     19  O   UNL     1       8.919   1.715  25.712  0.00  0.00    -0.384 OA
ATOM     20  H   UNL     1       9.307   1.751  26.610  0.00  0.00    +0.210 HD
ENDBRANCH  18  19
BRANCH  17  21
ATOM     21  O   UNL     1      11.432   1.990  24.242  0.00  0.00    -0.386 OA
ATOM     22  H   UNL     1      11.131   2.421  25.062  0.00  0.00    +0.210 HD
ENDBRANCH  17  21
BRANCH  16  23
ATOM     23  O   UNL     1      10.207   2.093  21.589  0.00  0.00    -0.387 OA
ATOM     24  H   UNL     1      10.127   1.353  20.963  0.00  0.00    +0.210 HD
ENDBRANCH  16  23
ENDBRANCH  11  12
ENDBRANCH   4  11
BRANCH   3  25
ATOM     25  O   UNL     1       7.459  -3.029  26.046  0.00  0.00    -0.453 OA
BRANCH  25  26
ATOM     26  C   UNL     1       6.404  -3.348  26.923  0.00  0.00    +0.214 A 
ATOM     27  C   UNL     1       6.226  -4.776  27.419  0.00  0.00    +0.238 A 
ATOM     28  O   UNL     1       7.023  -5.683  27.220  0.00  0.00    -0.283 OA
ATOM     29  C   UNL     1       5.044  -5.118  28.195  0.00  0.00    +0.109 A 
ATOM     30  C   UNL     1       4.216  -4.077  28.562  0.00  0.00    +0.147 A 
ATOM     31  C   UNL     1       3.086  -4.345  29.340  0.00  0.00    +0.092 A 
ATOM     32  C   UNL     1       2.815  -5.656  29.730  0.00  0.00    +0.124 A 
ATOM     33  C   UNL     1       3.645  -6.705  29.365  0.00  0.00    +0.091 A 
ATOM     34  O   UNL     1       4.455  -2.773  28.230  0.00  0.00    -0.451 OA
ATOM     35  C   UNL     1       4.771  -6.432  28.594  0.00  0.00    +0.135 A 
ATOM     36  C   UNL     1       5.531  -2.421  27.406  0.00  0.00    +0.181 A 
BRANCH  36  37
ATOM     37  C   UNL     1       5.594  -0.913  27.232  0.00  0.00    +0.025 A 
ATOM     38  C   UNL     1       4.581  -0.264  26.478  0.00  0.00    +0.015 A 
ATOM     39  C   UNL     1       4.463   1.135  26.422  0.00  0.00    +0.050 A 
ATOM     40  C   UNL     1       5.385   1.914  27.091  0.00  0.00    +0.158 A 
ATOM     41  C   UNL     1       6.462   1.315  27.728  0.00  0.00    +0.159 A 
ATOM     42  C   UNL     1       6.560  -0.079  27.810  0.00  0.00    +0.060 A 
BRANCH  41  43
ATOM     43  O   UNL     1       7.417   2.129  28.277  0.00  0.00    -0.503 OA
ATOM     44  H   UNL     1       7.832   1.633  29.016  0.00  0.00    +0.292 HD
ENDBRANCH  41  43
BRANCH  40  45
ATOM     45  O   UNL     1       5.217   3.266  27.128  0.00  0.00    -0.503 OA
ATOM     46  H   UNL     1       5.919   3.586  27.727  0.00  0.00    +0.292 HD
ENDBRANCH  40  45
ENDBRANCH  36  37
BRANCH  35  47
ATOM     47  O   UNL     1       5.575  -7.476  28.244  0.00  0.00    -0.506 OA
ATOM     48  H   UNL     1       6.428  -7.422  28.701  0.00  0.00    +0.292 HD
ENDBRANCH  35  47
BRANCH  32  49
ATOM     49  O   UNL     1       1.730  -5.975  30.485  0.00  0.00    -0.507 OA
ATOM     50  H   UNL     1       0.979  -5.408  30.230  0.00  0.00    +0.292 HD
ENDBRANCH  32  49
ENDBRANCH  25  26
ENDBRANCH   3  25
BRANCH   1  51
ATOM     51  C   UNL     1       4.202  -4.230  23.013  0.00  0.00    +0.197 C 
BRANCH  51  52
ATOM     52  O   UNL     1       4.681  -5.572  22.965  0.00  0.00    -0.346 OA
BRANCH  52  56
ATOM     53  C   UNL     1       1.316  -8.296  22.515  0.00  0.00    +0.041 C 
ATOM     54  C   UNL     1       1.302  -6.932  23.196  0.00  0.00    +0.149 C 
ATOM     55  O   UNL     1       2.417  -6.123  22.807  0.00  0.00    -0.343 OA
ATOM     56  C   UNL     1       3.682  -6.526  23.330  0.00  0.00    +0.282 C 
ATOM     57  C   UNL     1       3.691  -6.590  24.872  0.00  0.00    +0.201 C 
ATOM     58  C   UNL     1       2.498  -7.385  25.407  0.00  0.00    +0.179 C 
ATOM     59  C   UNL     1       1.194  -6.949  24.728  0.00  0.00    +0.174 C 
BRANCH  59  60
ATOM     60  O   UNL     1       0.886  -5.609  25.156  0.00  0.00    -0.387 OA
ATOM     61  H   UNL     1       1.460  -4.997  24.662  0.00  0.00    +0.210 HD
ENDBRANCH  59  60
BRANCH  58  62
ATOM     62  O   UNL     1       2.728  -8.798  25.287  0.00  0.00    -0.386 OA
ATOM     63  H   UNL     1       2.009  -9.294  25.712  0.00  0.00    +0.210 HD
ENDBRANCH  58  62
BRANCH  57  64
ATOM     64  O   UNL     1       4.924  -7.162  25.341  0.00  0.00    -0.384 OA
ATOM     65  H   UNL     1       5.469  -6.442  25.709  0.00  0.00    +0.210 HD
ENDBRANCH  57  64
ENDBRANCH  52  56
ENDBRANCH  51  52
ENDBRANCH   1  51
TORSDOF 20
ENDMDL
MODEL 8
REMARK VINA RESULT:      -7.2      2.139      8.604
REMARK  Name = 
REMARK  22 active torsions:
REMARK  status: ('A' for Active; 'I' for Inactive)
REMARK    1  A    between atoms: C_1  and  C_2
REMARK    2  A    between atoms: C_4  and  O_68
REMARK    3  A    between atoms: C_6  and  O_67
REMARK    4  A    between atoms: C_8  and  O_66
REMARK    5  A    between atoms: C_10  and  O_13
REMARK    6  A    between atoms: O_13  and  C_14
REMARK    7  A    between atoms: C_14  and  C_15
REMARK    8  A    between atoms: C_17  and  O_65
REMARK    9  A    between atoms: C_19  and  O_64
REMARK   10  A    between atoms: C_21  and  O_48
REMARK   11  A    between atoms: C_23  and  O_26
REMARK   12  A    between atoms: O_26  and  C_27
REMARK   13  A    between atoms: C_28  and  C_40
REMARK   14  A    between atoms: C_32  and  O_39
REMARK   15  A    between atoms: C_34  and  O_38
REMARK   16  A    between atoms: C_42  and  O_47
REMARK   17  A    between atoms: C_43  and  O_46
REMARK   18  A    between atoms: O_48  and  C_49
REMARK   19  A    between atoms: C_51  and  O_63
REMARK   20  A    between atoms: C_53  and  O_62
REMARK   21  A    between atoms: C_55  and  O_61
REMARK   22  A    between atoms: C_57  and  C_60
REMARK                            x       y       z     vdW  Elec       q    Type
REMARK                         _______ _______ _______ _____ _____    ______ ____
ROOT
ATOM      1  C   UNL     1       7.724  -0.669  22.582  0.00  0.00    +0.179 C 
ATOM      2  O   UNL     1       8.091  -0.782  23.959  0.00  0.00    -0.331 OA
ATOM      3  C   UNL     1       8.128   0.474  24.616  0.00  0.00    +0.340 C 
ATOM      4  C   UNL     1       9.252   1.359  24.028  0.00  0.00    +0.221 C 
ATOM      5  C   UNL     1       9.024   1.445  22.490  0.00  0.00    +0.180 C 
ATOM      6  C   UNL     1       8.884   0.035  21.875  0.00  0.00    +0.177 C 
ENDROOT
BRANCH   6   7
ATOM      7  O   UNL     1      10.133  -0.647  22.057  0.00  0.00    -0.386 OA
ATOM      8  H   UNL     1       9.929  -1.606  22.139  0.00  0.00    +0.210 HD
ENDBRANCH   6   7
BRANCH   5   9
ATOM      9  O   UNL     1      10.097   2.175  21.872  0.00  0.00    -0.386 OA
ATOM     10  H   UNL     1       9.909   3.123  21.990  0.00  0.00    +0.210 HD
ENDBRANCH   5   9
BRANCH   4  11
ATOM     11  O   UNL     1       9.219   2.707  24.556  0.00  0.00    -0.337 OA
BRANCH  11  12
ATOM     12  C   UNL     1       7.915   3.207  24.833  0.00  0.00    +0.282 C 
ATOM     13  O   UNL     1       7.345   3.845  23.680  0.00  0.00    -0.343 OA
ATOM     14  C   UNL     1       8.060   5.001  23.236  0.00  0.00    +0.149 C 
ATOM     15  C   UNL     1       7.272   5.572  22.058  0.00  0.00    +0.041 C 
ATOM     16  C   UNL     1       8.225   6.059  24.347  0.00  0.00    +0.174 C 
ATOM     17  C   UNL     1       8.764   5.397  25.625  0.00  0.00    +0.179 C 
ATOM     18  C   UNL     1       7.882   4.200  26.009  0.00  0.00    +0.201 C 
BRANCH  18  19
ATOM     19  O   UNL     1       6.528   4.585  26.315  0.00  0.00    -0.384 OA
ATOM     20  H   UNL     1       6.094   4.777  25.459  0.00  0.00    +0.210 HD
ENDBRANCH  18  19
BRANCH  17  21
ATOM     21  O   UNL     1       8.835   6.340  26.698  0.00  0.00    -0.386 OA
ATOM     22  H   UNL     1       9.291   5.904  27.439  0.00  0.00    +0.210 HD
ENDBRANCH  17  21
BRANCH  16  23
ATOM     23  O   UNL     1       9.087   7.107  23.889  0.00  0.00    -0.387 OA
ATOM     24  H   UNL     1       8.752   7.421  23.031  0.00  0.00    +0.210 HD
ENDBRANCH  16  23
ENDBRANCH  11  12
ENDBRANCH   4  11
BRANCH   3  25
ATOM     25  O   UNL     1       8.212   0.195  26.026  0.00  0.00    -0.453 OA
BRANCH  25  26
ATOM     26  C   UNL     1       7.538  -0.968  26.448  0.00  0.00    +0.214 A 
ATOM     27  C   UNL     1       8.267  -2.304  26.490  0.00  0.00    +0.238 A 
ATOM     28  O   UNL     1       9.468  -2.442  26.307  0.00  0.00    -0.283 OA
ATOM     29  C   UNL     1       7.516  -3.516  26.775  0.00  0.00    +0.109 A 
ATOM     30  C   UNL     1       6.194  -3.360  27.138  0.00  0.00    +0.147 A 
ATOM     31  C   UNL     1       5.436  -4.489  27.460  0.00  0.00    +0.092 A 
ATOM     32  C   UNL     1       6.026  -5.752  27.407  0.00  0.00    +0.124 A 
ATOM     33  C   UNL     1       7.355  -5.913  27.044  0.00  0.00    +0.091 A 
ATOM     34  O   UNL     1       5.578  -2.143  27.234  0.00  0.00    -0.451 OA
ATOM     35  C   UNL     1       8.106  -4.785  26.730  0.00  0.00    +0.135 A 
ATOM     36  C   UNL     1       6.245  -0.964  26.876  0.00  0.00    +0.181 A 
BRANCH  36  37
ATOM     37  C   UNL     1       5.354   0.242  27.117  0.00  0.00    +0.025 A 
ATOM     38  C   UNL     1       4.009   0.207  26.666  0.00  0.00    +0.015 A 
ATOM     39  C   UNL     1       3.073   1.198  27.007  0.00  0.00    +0.050 A 
ATOM     40  C   UNL     1       3.478   2.268  27.778  0.00  0.00    +0.158 A 
ATOM     41  C   UNL     1       4.816   2.400  28.126  0.00  0.00    +0.159 A 
ATOM     42  C   UNL     1       5.739   1.396  27.813  0.00  0.00    +0.060 A 
BRANCH  41  43
ATOM     43  O   UNL     1       5.196   3.537  28.788  0.00  0.00    -0.503 OA
ATOM     44  H   UNL     1       5.872   3.274  29.453  0.00  0.00    +0.292 HD
ENDBRANCH  41  43
BRANCH  40  45
ATOM     45  O   UNL     1       2.555   3.177  28.200  0.00  0.00    -0.503 OA
ATOM     46  H   UNL     1       3.001   4.042  28.114  0.00  0.00    +0.292 HD
ENDBRANCH  40  45
ENDBRANCH  36  37
BRANCH  35  47
ATOM     47  O   UNL     1       9.410  -4.963  26.374  0.00  0.00    -0.506 OA
ATOM     48  H   UNL     1       9.486  -5.143  25.424  0.00  0.00    +0.292 HD
ENDBRANCH  35  47
BRANCH  32  49
ATOM     49  O   UNL     1       5.336  -6.884  27.707  0.00  0.00    -0.507 OA
ATOM     50  H   UNL     1       4.809  -6.740  28.514  0.00  0.00    +0.292 HD
ENDBRANCH  32  49
ENDBRANCH  25  26
ENDBRANCH   3  25
BRANCH   1  51
ATOM     51  C   UNL     1       7.425  -2.082  22.096  0.00  0.00    +0.197 C 
BRANCH  51  52
ATOM     52  O   UNL     1       6.026  -2.323  22.227  0.00  0.00    -0.346 OA
BRANCH  52  56
ATOM     53  C   UNL     1       4.579  -6.031  23.986  0.00  0.00    +0.041 C 
ATOM     54  C   UNL     1       6.033  -5.626  23.778  0.00  0.00    +0.149 C 
ATOM     55  O   UNL     1       6.178  -4.215  23.586  0.00  0.00    -0.343 OA
ATOM     56  C   UNL     1       5.714  -3.712  22.334  0.00  0.00    +0.282 C 
ATOM     57  C   UNL     1       6.395  -4.400  21.132  0.00  0.00    +0.201 C 
ATOM     58  C   UNL     1       6.355  -5.925  21.261  0.00  0.00    +0.179 C 
ATOM     59  C   UNL     1       6.783  -6.372  22.664  0.00  0.00    +0.174 C 
BRANCH  59  60
ATOM     60  O   UNL     1       8.186  -6.089  22.820  0.00  0.00    -0.387 OA
ATOM     61  H   UNL     1       8.403  -6.158  23.768  0.00  0.00    +0.210 HD
ENDBRANCH  59  60
BRANCH  58  62
ATOM     62  O   UNL     1       5.062  -6.436  20.898  0.00  0.00    -0.386 OA
ATOM     63  H   UNL     1       4.444  -5.703  20.735  0.00  0.00    +0.210 HD
ENDBRANCH  58  62
BRANCH  57  64
ATOM     64  O   UNL     1       5.775  -3.986  19.903  0.00  0.00    -0.384 OA
ATOM     65  H   UNL     1       5.778  -3.011  19.878  0.00  0.00    +0.210 HD
ENDBRANCH  57  64
ENDBRANCH  52  56
ENDBRANCH  51  52
ENDBRANCH   1  51
TORSDOF 20
ENDMDL
MODEL 9
REMARK VINA RESULT:      -7.2      2.459      8.079
REMARK  Name = 
REMARK  22 active torsions:
REMARK  status: ('A' for Active; 'I' for Inactive)
REMARK    1  A    between atoms: C_1  and  C_2
REMARK    2  A    between atoms: C_4  and  O_68
REMARK    3  A    between atoms: C_6  and  O_67
REMARK    4  A    between atoms: C_8  and  O_66
REMARK    5  A    between atoms: C_10  and  O_13
REMARK    6  A    between atoms: O_13  and  C_14
REMARK    7  A    between atoms: C_14  and  C_15
REMARK    8  A    between atoms: C_17  and  O_65
REMARK    9  A    between atoms: C_19  and  O_64
REMARK   10  A    between atoms: C_21  and  O_48
REMARK   11  A    between atoms: C_23  and  O_26
REMARK   12  A    between atoms: O_26  and  C_27
REMARK   13  A    between atoms: C_28  and  C_40
REMARK   14  A    between atoms: C_32  and  O_39
REMARK   15  A    between atoms: C_34  and  O_38
REMARK   16  A    between atoms: C_42  and  O_47
REMARK   17  A    between atoms: C_43  and  O_46
REMARK   18  A    between atoms: O_48  and  C_49
REMARK   19  A    between atoms: C_51  and  O_63
REMARK   20  A    between atoms: C_53  and  O_62
REMARK   21  A    between atoms: C_55  and  O_61
REMARK   22  A    between atoms: C_57  and  C_60
REMARK                            x       y       z     vdW  Elec       q    Type
REMARK                         _______ _______ _______ _____ _____    ______ ____
ROOT
ATOM      1  C   UNL     1       5.664  -0.823  26.790  0.00  0.00    +0.179 C 
ATOM      2  O   UNL     1       5.776  -0.339  25.450  0.00  0.00    -0.331 OA
ATOM      3  C   UNL     1       5.736   1.076  25.378  0.00  0.00    +0.340 C 
ATOM      4  C   UNL     1       4.350   1.600  25.822  0.00  0.00    +0.221 C 
ATOM      5  C   UNL     1       4.061   1.019  27.238  0.00  0.00    +0.180 C 
ATOM      6  C   UNL     1       4.238  -0.515  27.250  0.00  0.00    +0.177 C 
ENDROOT
BRANCH   6   7
ATOM      7  O   UNL     1       3.247  -1.075  26.377  0.00  0.00    -0.386 OA
ATOM      8  H   UNL     1       2.753  -0.323  25.980  0.00  0.00    +0.210 HD
ENDBRANCH   6   7
BRANCH   5   9
ATOM      9  O   UNL     1       2.740   1.392  27.664  0.00  0.00    -0.386 OA
ATOM     10  H   UNL     1       2.789   2.304  28.001  0.00  0.00    +0.210 HD
ENDBRANCH   5   9
BRANCH   4  11
ATOM     11  O   UNL     1       4.318   3.045  25.922  0.00  0.00    -0.337 OA
BRANCH  11  12
ATOM     12  C   UNL     1       3.098   3.645  25.503  0.00  0.00    +0.282 C 
ATOM     13  O   UNL     1       2.766   3.268  24.158  0.00  0.00    -0.343 OA
ATOM     14  C   UNL     1       3.710   3.706  23.177  0.00  0.00    +0.149 C 
ATOM     15  C   UNL     1       3.155   3.275  21.820  0.00  0.00    +0.041 C 
ATOM     16  C   UNL     1       3.938   5.231  23.214  0.00  0.00    +0.174 C 
ATOM     17  C   UNL     1       4.223   5.685  24.654  0.00  0.00    +0.179 C 
ATOM     18  C   UNL     1       3.115   5.182  25.592  0.00  0.00    +0.201 C 
BRANCH  18  19
ATOM     19  O   UNL     1       1.822   5.727  25.263  0.00  0.00    -0.384 OA
ATOM     20  H   UNL     1       1.962   6.343  24.516  0.00  0.00    +0.210 HD
ENDBRANCH  18  19
BRANCH  17  21
ATOM     21  O   UNL     1       4.344   7.108  24.728  0.00  0.00    -0.386 OA
ATOM     22  H   UNL     1       5.044   7.373  24.106  0.00  0.00    +0.210 HD
ENDBRANCH  17  21
BRANCH  16  23
ATOM     23  O   UNL     1       5.009   5.578  22.327  0.00  0.00    -0.387 OA
ATOM     24  H   UNL     1       5.622   6.160  22.808  0.00  0.00    +0.210 HD
ENDBRANCH  16  23
ENDBRANCH  11  12
ENDBRANCH   4  11
BRANCH   3  25
ATOM     25  O   UNL     1       6.151   1.430  24.046  0.00  0.00    -0.453 OA
BRANCH  25  26
ATOM     26  C   UNL     1       7.476   1.897  23.935  0.00  0.00    +0.214 A 
ATOM     27  C   UNL     1       7.788   3.373  24.143  0.00  0.00    +0.238 A 
ATOM     28  O   UNL     1       6.980   4.201  24.541  0.00  0.00    -0.283 OA
ATOM     29  C   UNL     1       9.129   3.862  23.870  0.00  0.00    +0.109 A 
ATOM     30  C   UNL     1      10.090   2.916  23.573  0.00  0.00    +0.147 A 
ATOM     31  C   UNL     1      11.405   3.328  23.340  0.00  0.00    +0.092 A 
ATOM     32  C   UNL     1      11.724   4.684  23.409  0.00  0.00    +0.124 A 
ATOM     33  C   UNL     1      10.761   5.638  23.708  0.00  0.00    +0.091 A 
ATOM     34  O   UNL     1       9.835   1.574  23.524  0.00  0.00    -0.451 OA
ATOM     35  C   UNL     1       9.455   5.221  23.945  0.00  0.00    +0.135 A 
ATOM     36  C   UNL     1       8.535   1.078  23.689  0.00  0.00    +0.181 A 
BRANCH  36  37
ATOM     37  C   UNL     1       8.537  -0.440  23.632  0.00  0.00    +0.025 A 
ATOM     38  C   UNL     1       9.287  -1.164  24.596  0.00  0.00    +0.015 A 
ATOM     39  C   UNL     1       9.197  -2.560  24.728  0.00  0.00    +0.050 A 
ATOM     40  C   UNL     1       8.381  -3.265  23.867  0.00  0.00    +0.158 A 
ATOM     41  C   UNL     1       7.735  -2.603  22.831  0.00  0.00    +0.159 A 
ATOM     42  C   UNL     1       7.801  -1.209  22.722  0.00  0.00    +0.060 A 
BRANCH  41  43
ATOM     43  O   UNL     1       7.032  -3.356  21.929  0.00  0.00    -0.503 OA
ATOM     44  H   UNL     1       6.534  -4.032  22.441  0.00  0.00    +0.292 HD
ENDBRANCH  41  43
BRANCH  40  45
ATOM     45  O   UNL     1       8.207  -4.603  24.054  0.00  0.00    -0.503 OA
ATOM     46  H   UNL     1       8.460  -4.758  24.985  0.00  0.00    +0.292 HD
ENDBRANCH  40  45
ENDBRANCH  36  37
BRANCH  35  47
ATOM     47  O   UNL     1       8.523   6.173  24.236  0.00  0.00    -0.506 OA
ATOM     48  H   UNL     1       8.317   6.174  25.183  0.00  0.00    +0.292 HD
ENDBRANCH  35  47
BRANCH  32  49
ATOM     49  O   UNL     1      12.984   5.142  23.189  0.00  0.00    -0.507 OA
ATOM     50  H   UNL     1      12.981   5.747  22.425  0.00  0.00    +0.292 HD
ENDBRANCH  32  49
ENDBRANCH  25  26
ENDBRANCH   3  25
BRANCH   1  51
ATOM     51  C   UNL     1       6.030  -2.302  26.749  0.00  0.00    +0.197 C 
BRANCH  51  52
ATOM     52  O   UNL     1       5.509  -2.868  25.547  0.00  0.00    -0.346 OA
BRANCH  52  56
ATOM     53  C   UNL     1       4.846  -6.847  27.179  0.00  0.00    +0.041 C 
ATOM     54  C   UNL     1       5.326  -6.506  25.773  0.00  0.00    +0.149 C 
ATOM     55  O   UNL     1       5.845  -5.174  25.689  0.00  0.00    -0.343 OA
ATOM     56  C   UNL     1       4.875  -4.130  25.763  0.00  0.00    +0.282 C 
ATOM     57  C   UNL     1       3.787  -4.256  24.677  0.00  0.00    +0.201 C 
ATOM     58  C   UNL     1       3.199  -5.668  24.633  0.00  0.00    +0.179 C 
ATOM     59  C   UNL     1       4.307  -6.728  24.646  0.00  0.00    +0.174 C 
BRANCH  59  60
ATOM     60  O   UNL     1       5.019  -6.654  23.396  0.00  0.00    -0.387 OA
ATOM     61  H   UNL     1       5.045  -7.550  23.012  0.00  0.00    +0.210 HD
ENDBRANCH  59  60
BRANCH  58  62
ATOM     62  O   UNL     1       2.248  -5.861  25.693  0.00  0.00    -0.386 OA
ATOM     63  H   UNL     1       2.341  -6.751  26.071  0.00  0.00    +0.210 HD
ENDBRANCH  58  62
BRANCH  57  64
ATOM     64  O   UNL     1       2.747  -3.288  24.898  0.00  0.00    -0.384 OA
ATOM     65  H   UNL     1       3.132  -2.400  24.784  0.00  0.00    +0.210 HD
ENDBRANCH  57  64
ENDBRANCH  52  56
ENDBRANCH  51  52
ENDBRANCH   1  51
TORSDOF 20
ENDMDL
