MODEL 1
REMARK VINA RESULT:      -7.6      0.000      0.000
REMARK  Name = 
REMARK  17 active torsions:
REMARK  status: ('A' for Active; 'I' for Inactive)
REMARK    1  A    between atoms: C_1  and  C_2
REMARK    2  A    between atoms: C_3  and  O_48
REMARK    3  A    between atoms: C_5  and  O_47
REMARK    4  A    between atoms: C_7  and  O_46
REMARK    5  A    between atoms: C_8  and  O_11
REMARK    6  A    between atoms: O_11  and  C_12
REMARK    7  A    between atoms: C_12  and  C_13
REMARK    8  A    between atoms: C_14  and  O_45
REMARK    9  A    between atoms: C_16  and  O_44
REMARK   10  A    between atoms: C_17  and  O_43
REMARK   11  A    between atoms: C_18  and  O_21
REMARK   12  A    between atoms: O_21  and  C_22
REMARK   13  A    between atoms: C_23  and  C_35
REMARK   14  A    between atoms: C_27  and  O_34
REMARK   15  A    between atoms: C_29  and  O_33
REMARK   16  A    between atoms: C_37  and  O_42
REMARK   17  A    between atoms: C_38  and  O_41
REMARK                            x       y       z     vdW  Elec       q    Type
REMARK                         _______ _______ _______ _____ _____    ______ ____
ROOT
ATOM      1  C   UNL     1       5.542  -1.614  26.182  0.00  0.00    +0.179 C 
ATOM      2  O   UNL     1       6.126  -0.632  25.285  0.00  0.00    -0.331 OA
ATOM      3  C   UNL     1       6.379   0.711  25.731  0.00  0.00    +0.340 C 
ATOM      4  C   UNL     1       5.227   1.271  26.611  0.00  0.00    +0.214 C 
ATOM      5  C   UNL     1       4.877   0.266  27.718  0.00  0.00    +0.180 C 
ATOM      6  C   UNL     1       4.451  -1.070  27.111  0.00  0.00    +0.177 C 
ENDROOT
BRANCH   6   7
ATOM      7  O   UNL     1       3.231  -0.889  26.352  0.00  0.00    -0.386 OA
ATOM      8  H   UNL     1       3.112  -1.690  25.797  0.00  0.00    +0.210 HD
ENDBRANCH   6   7
BRANCH   5   9
ATOM      9  O   UNL     1       3.821   0.790  28.536  0.00  0.00    -0.386 OA
ATOM     10  H   UNL     1       3.025   0.268  28.306  0.00  0.00    +0.210 HD
ENDBRANCH   5   9
BRANCH   4  11
ATOM     11  O   UNL     1       4.043   1.529  25.813  0.00  0.00    -0.383 OA
ATOM     12  H   UNL     1       3.349   1.803  26.445  0.00  0.00    +0.210 HD
ENDBRANCH   4  11
BRANCH   3  13
ATOM     13  O   UNL     1       6.509   1.642  24.596  0.00  0.00    -0.453 OA
BRANCH  13  14
ATOM     14  C   UNL     1       7.743   2.203  24.238  0.00  0.00    +0.214 A 
ATOM     15  C   UNL     1       7.958   3.702  24.202  0.00  0.00    +0.238 A 
ATOM     16  O   UNL     1       7.016   4.490  24.270  0.00  0.00    -0.283 OA
ATOM     17  C   UNL     1       9.331   4.213  23.992  0.00  0.00    +0.109 A 
ATOM     18  C   UNL     1      10.303   3.287  23.598  0.00  0.00    +0.147 A 
ATOM     19  C   UNL     1      11.612   3.683  23.295  0.00  0.00    +0.092 A 
ATOM     20  C   UNL     1      11.956   5.013  23.415  0.00  0.00    +0.124 A 
ATOM     21  C   UNL     1      11.021   5.949  23.839  0.00  0.00    +0.091 A 
ATOM     22  O   UNL     1      10.035   1.975  23.455  0.00  0.00    -0.451 OA
ATOM     23  C   UNL     1       9.712   5.544  24.129  0.00  0.00    +0.135 A 
ATOM     24  C   UNL     1       8.825   1.447  23.872  0.00  0.00    +0.181 A 
BRANCH  24  25
ATOM     25  C   UNL     1       8.941  -0.037  23.758  0.00  0.00    +0.025 A 
ATOM     26  C   UNL     1       9.608  -0.786  24.736  0.00  0.00    +0.015 A 
ATOM     27  C   UNL     1       9.606  -2.187  24.678  0.00  0.00    +0.050 A 
ATOM     28  C   UNL     1       8.841  -2.845  23.720  0.00  0.00    +0.158 A 
ATOM     29  C   UNL     1       8.091  -2.127  22.801  0.00  0.00    +0.159 A 
ATOM     30  C   UNL     1       8.176  -0.736  22.782  0.00  0.00    +0.060 A 
BRANCH  29  31
ATOM     31  O   UNL     1       7.210  -2.806  22.007  0.00  0.00    -0.503 OA
ATOM     32  H   UNL     1       6.495  -2.223  21.720  0.00  0.00    +0.292 HD
ENDBRANCH  29  31
BRANCH  28  33
ATOM     33  O   UNL     1       8.789  -4.212  23.702  0.00  0.00    -0.503 OA
ATOM     34  H   UNL     1       8.065  -4.474  24.288  0.00  0.00    +0.292 HD
ENDBRANCH  28  33
ENDBRANCH  24  25
BRANCH  23  35
ATOM     35  O   UNL     1       8.817   6.479  24.563  0.00  0.00    -0.506 OA
ATOM     36  H   UNL     1       9.278   7.302  24.790  0.00  0.00    +0.292 HD
ENDBRANCH  23  35
BRANCH  20  37
ATOM     37  O   UNL     1      13.220   5.442  23.138  0.00  0.00    -0.507 OA
ATOM     38  H   UNL     1      13.208   6.398  22.958  0.00  0.00    +0.292 HD
ENDBRANCH  20  37
ENDBRANCH  13  14
ENDBRANCH   3  13
BRANCH   1  39
ATOM     39  C   UNL     1       6.515  -2.681  26.825  0.00  0.00    +0.197 C 
BRANCH  39  40
ATOM     40  O   UNL     1       6.716  -3.959  26.175  0.00  0.00    -0.346 OA
BRANCH  40  44
ATOM     41  C   UNL     1       3.265  -6.742  27.022  0.00  0.00    +0.041 C 
ATOM     42  C   UNL     1       4.414  -6.906  26.026  0.00  0.00    +0.149 C 
ATOM     43  O   UNL     1       5.525  -6.033  26.337  0.00  0.00    -0.343 OA
ATOM     44  C   UNL     1       5.428  -4.653  25.947  0.00  0.00    +0.282 C 
ATOM     45  C   UNL     1       5.054  -4.560  24.441  0.00  0.00    +0.201 C 
ATOM     46  C   UNL     1       3.735  -5.324  24.180  0.00  0.00    +0.179 C 
ATOM     47  C   UNL     1       3.890  -6.794  24.581  0.00  0.00    +0.174 C 
BRANCH  47  48
ATOM     48  O   UNL     1       4.760  -7.471  23.665  0.00  0.00    -0.387 OA
ATOM     49  H   UNL     1       4.209  -8.146  23.208  0.00  0.00    +0.210 HD
ENDBRANCH  47  48
BRANCH  46  50
ATOM     50  O   UNL     1       3.312  -5.213  22.814  0.00  0.00    -0.386 OA
ATOM     51  H   UNL     1       2.344  -5.329  22.793  0.00  0.00    +0.210 HD
ENDBRANCH  46  50
BRANCH  45  52
ATOM     52  O   UNL     1       6.103  -5.149  23.637  0.00  0.00    -0.384 OA
ATOM     53  H   UNL     1       6.861  -4.527  23.720  0.00  0.00    +0.210 HD
ENDBRANCH  45  52
ENDBRANCH  40  44
ENDBRANCH  39  40
ENDBRANCH   1  39
TORSDOF 16
ENDMDL
MODEL 2
REMARK VINA RESULT:      -7.5      2.081      5.356
REMARK  Name = 
REMARK  17 active torsions:
REMARK  status: ('A' for Active; 'I' for Inactive)
REMARK    1  A    between atoms: C_1  and  C_2
REMARK    2  A    between atoms: C_3  and  O_48
REMARK    3  A    between atoms: C_5  and  O_47
REMARK    4  A    between atoms: C_7  and  O_46
REMARK    5  A    between atoms: C_8  and  O_11
REMARK    6  A    between atoms: O_11  and  C_12
REMARK    7  A    between atoms: C_12  and  C_13
REMARK    8  A    between atoms: C_14  and  O_45
REMARK    9  A    between atoms: C_16  and  O_44
REMARK   10  A    between atoms: C_17  and  O_43
REMARK   11  A    between atoms: C_18  and  O_21
REMARK   12  A    between atoms: O_21  and  C_22
REMARK   13  A    between atoms: C_23  and  C_35
REMARK   14  A    between atoms: C_27  and  O_34
REMARK   15  A    between atoms: C_29  and  O_33
REMARK   16  A    between atoms: C_37  and  O_42
REMARK   17  A    between atoms: C_38  and  O_41
REMARK                            x       y       z     vdW  Elec       q    Type
REMARK                         _______ _______ _______ _____ _____    ______ ____
ROOT
ATOM      1  C   UNL     1       7.841  -4.479  25.318  0.00  0.00    +0.179 C 
ATOM      2  O   UNL     1       7.230  -3.175  25.131  0.00  0.00    -0.331 OA
ATOM      3  C   UNL     1       5.843  -3.059  24.772  0.00  0.00    +0.340 C 
ATOM      4  C   UNL     1       5.413  -4.111  23.713  0.00  0.00    +0.214 C 
ATOM      5  C   UNL     1       5.862  -5.511  24.154  0.00  0.00    +0.180 C 
ATOM      6  C   UNL     1       7.379  -5.555  24.329  0.00  0.00    +0.177 C 
ENDROOT
BRANCH   6   7
ATOM      7  O   UNL     1       8.020  -5.326  23.050  0.00  0.00    -0.386 OA
ATOM      8  H   UNL     1       8.304  -4.386  23.031  0.00  0.00    +0.210 HD
ENDBRANCH   6   7
BRANCH   5   9
ATOM      9  O   UNL     1       5.454  -6.483  23.180  0.00  0.00    -0.386 OA
ATOM     10  H   UNL     1       5.504  -7.349  23.634  0.00  0.00    +0.210 HD
ENDBRANCH   5   9
BRANCH   4  11
ATOM     11  O   UNL     1       5.995  -3.811  22.419  0.00  0.00    -0.383 OA
ATOM     12  H   UNL     1       6.020  -4.660  21.934  0.00  0.00    +0.210 HD
ENDBRANCH   4  11
BRANCH   3  13
ATOM     13  O   UNL     1       5.546  -1.742  24.177  0.00  0.00    -0.453 OA
BRANCH  13  14
ATOM     14  C   UNL     1       6.501  -0.715  24.143  0.00  0.00    +0.214 A 
ATOM     15  C   UNL     1       7.605  -0.686  23.108  0.00  0.00    +0.238 A 
ATOM     16  O   UNL     1       7.846  -1.660  22.394  0.00  0.00    -0.283 OA
ATOM     17  C   UNL     1       8.461   0.517  23.023  0.00  0.00    +0.109 A 
ATOM     18  C   UNL     1       8.357   1.449  24.062  0.00  0.00    +0.147 A 
ATOM     19  C   UNL     1       9.181   2.580  24.117  0.00  0.00    +0.092 A 
ATOM     20  C   UNL     1      10.098   2.793  23.110  0.00  0.00    +0.124 A 
ATOM     21  C   UNL     1      10.200   1.903  22.047  0.00  0.00    +0.091 A 
ATOM     22  O   UNL     1       7.487   1.301  25.080  0.00  0.00    -0.451 OA
ATOM     23  C   UNL     1       9.378   0.770  22.007  0.00  0.00    +0.135 A 
ATOM     24  C   UNL     1       6.522   0.310  25.051  0.00  0.00    +0.181 A 
BRANCH  24  25
ATOM     25  C   UNL     1       5.617   0.557  26.213  0.00  0.00    +0.025 A 
ATOM     26  C   UNL     1       5.681  -0.244  27.360  0.00  0.00    +0.015 A 
ATOM     27  C   UNL     1       4.911   0.074  28.489  0.00  0.00    +0.050 A 
ATOM     28  C   UNL     1       4.172   1.252  28.521  0.00  0.00    +0.158 A 
ATOM     29  C   UNL     1       4.171   2.114  27.435  0.00  0.00    +0.159 A 
ATOM     30  C   UNL     1       4.844   1.752  26.270  0.00  0.00    +0.060 A 
BRANCH  29  31
ATOM     31  O   UNL     1       3.593   3.343  27.579  0.00  0.00    -0.503 OA
ATOM     32  H   UNL     1       3.147   3.606  26.763  0.00  0.00    +0.292 HD
ENDBRANCH  29  31
BRANCH  28  33
ATOM     33  O   UNL     1       3.471   1.594  29.645  0.00  0.00    -0.503 OA
ATOM     34  H   UNL     1       3.840   2.428  29.965  0.00  0.00    +0.292 HD
ENDBRANCH  28  33
ENDBRANCH  24  25
BRANCH  23  35
ATOM     35  O   UNL     1       9.482  -0.078  20.943  0.00  0.00    -0.506 OA
ATOM     36  H   UNL     1      10.408  -0.147  20.661  0.00  0.00    +0.292 HD
ENDBRANCH  23  35
BRANCH  20  37
ATOM     37  O   UNL     1      10.916   3.884  23.120  0.00  0.00    -0.507 OA
ATOM     38  H   UNL     1      11.539   3.818  23.864  0.00  0.00    +0.292 HD
ENDBRANCH  20  37
ENDBRANCH  13  14
ENDBRANCH   3  13
BRANCH   1  39
ATOM     39  C   UNL     1       8.064  -4.970  26.804  0.00  0.00    +0.197 C 
BRANCH  39  40
ATOM     40  O   UNL     1       7.301  -6.088  27.317  0.00  0.00    -0.346 OA
BRANCH  40  44
ATOM     41  C   UNL     1       4.230  -3.538  29.425  0.00  0.00    +0.041 C 
ATOM     42  C   UNL     1       4.770  -4.916  29.812  0.00  0.00    +0.149 C 
ATOM     43  O   UNL     1       6.018  -5.213  29.143  0.00  0.00    -0.343 OA
ATOM     44  C   UNL     1       5.961  -5.656  27.777  0.00  0.00    +0.282 C 
ATOM     45  C   UNL     1       4.968  -6.846  27.654  0.00  0.00    +0.201 C 
ATOM     46  C   UNL     1       3.576  -6.423  28.178  0.00  0.00    +0.179 C 
ATOM     47  C   UNL     1       3.675  -5.986  29.642  0.00  0.00    +0.174 C 
BRANCH  47  48
ATOM     48  O   UNL     1       3.929  -7.119  30.483  0.00  0.00    -0.387 OA
ATOM     49  H   UNL     1       4.809  -7.469  30.217  0.00  0.00    +0.210 HD
ENDBRANCH  47  48
BRANCH  46  50
ATOM     50  O   UNL     1       2.605  -7.468  28.024  0.00  0.00    -0.386 OA
ATOM     51  H   UNL     1       3.083  -8.286  27.797  0.00  0.00    +0.210 HD
ENDBRANCH  46  50
BRANCH  45  52
ATOM     52  O   UNL     1       5.443  -7.966  28.437  0.00  0.00    -0.384 OA
ATOM     53  H   UNL     1       4.871  -8.720  28.170  0.00  0.00    +0.210 HD
ENDBRANCH  45  52
ENDBRANCH  40  44
ENDBRANCH  39  40
ENDBRANCH   1  39
TORSDOF 16
ENDMDL
MODEL 3
REMARK VINA RESULT:      -7.4      2.361      5.092
REMARK  Name = 
REMARK  17 active torsions:
REMARK  status: ('A' for Active; 'I' for Inactive)
REMARK    1  A    between atoms: C_1  and  C_2
REMARK    2  A    between atoms: C_3  and  O_48
REMARK    3  A    between atoms: C_5  and  O_47
REMARK    4  A    between atoms: C_7  and  O_46
REMARK    5  A    between atoms: C_8  and  O_11
REMARK    6  A    between atoms: O_11  and  C_12
REMARK    7  A    between atoms: C_12  and  C_13
REMARK    8  A    between atoms: C_14  and  O_45
REMARK    9  A    between atoms: C_16  and  O_44
REMARK   10  A    between atoms: C_17  and  O_43
REMARK   11  A    between atoms: C_18  and  O_21
REMARK   12  A    between atoms: O_21  and  C_22
REMARK   13  A    between atoms: C_23  and  C_35
REMARK   14  A    between atoms: C_27  and  O_34
REMARK   15  A    between atoms: C_29  and  O_33
REMARK   16  A    between atoms: C_37  and  O_42
REMARK   17  A    between atoms: C_38  and  O_41
REMARK                            x       y       z     vdW  Elec       q    Type
REMARK                         _______ _______ _______ _____ _____    ______ ____
ROOT
ATOM      1  C   UNL     1       8.583  -4.851  26.618  0.00  0.00    +0.179 C 
ATOM      2  O   UNL     1       8.706  -3.418  26.820  0.00  0.00    -0.331 OA
ATOM      3  C   UNL     1       8.187  -2.493  25.850  0.00  0.00    +0.340 C 
ATOM      4  C   UNL     1       8.463  -2.946  24.390  0.00  0.00    +0.214 C 
ATOM      5  C   UNL     1       8.025  -4.406  24.204  0.00  0.00    +0.180 C 
ATOM      6  C   UNL     1       8.780  -5.317  25.171  0.00  0.00    +0.177 C 
ENDROOT
BRANCH   6   7
ATOM      7  O   UNL     1      10.193  -5.292  24.855  0.00  0.00    -0.386 OA
ATOM      8  H   UNL     1      10.629  -5.970  25.417  0.00  0.00    +0.210 HD
ENDBRANCH   6   7
BRANCH   5   9
ATOM      9  O   UNL     1       8.269  -4.820  22.852  0.00  0.00    -0.386 OA
ATOM     10  H   UNL     1       8.752  -4.079  22.431  0.00  0.00    +0.210 HD
ENDBRANCH   5   9
BRANCH   4  11
ATOM     11  O   UNL     1       9.872  -2.828  24.067  0.00  0.00    -0.383 OA
ATOM     12  H   UNL     1       9.964  -3.150  23.149  0.00  0.00    +0.210 HD
ENDBRANCH   4  11
BRANCH   3  13
ATOM     13  O   UNL     1       8.811  -1.163  25.984  0.00  0.00    -0.453 OA
BRANCH  13  14
ATOM     14  C   UNL     1       8.234  -0.016  25.419  0.00  0.00    +0.214 A 
ATOM     15  C   UNL     1       8.789   0.619  24.161  0.00  0.00    +0.238 A 
ATOM     16  O   UNL     1       9.884   0.295  23.704  0.00  0.00    -0.283 OA
ATOM     17  C   UNL     1       8.022   1.714  23.527  0.00  0.00    +0.109 A 
ATOM     18  C   UNL     1       6.962   2.259  24.260  0.00  0.00    +0.147 A 
ATOM     19  C   UNL     1       6.227   3.352  23.784  0.00  0.00    +0.092 A 
ATOM     20  C   UNL     1       6.539   3.886  22.551  0.00  0.00    +0.124 A 
ATOM     21  C   UNL     1       7.564   3.343  21.785  0.00  0.00    +0.091 A 
ATOM     22  O   UNL     1       6.607   1.791  25.472  0.00  0.00    -0.451 OA
ATOM     23  C   UNL     1       8.299   2.256  22.276  0.00  0.00    +0.135 A 
ATOM     24  C   UNL     1       7.157   0.623  25.972  0.00  0.00    +0.181 A 
BRANCH  24  25
ATOM     25  C   UNL     1       6.404   0.293  27.219  0.00  0.00    +0.025 A 
ATOM     26  C   UNL     1       6.464   1.128  28.341  0.00  0.00    +0.015 A 
ATOM     27  C   UNL     1       5.659   0.869  29.460  0.00  0.00    +0.050 A 
ATOM     28  C   UNL     1       4.709  -0.145  29.416  0.00  0.00    +0.158 A 
ATOM     29  C   UNL     1       4.559  -0.923  28.278  0.00  0.00    +0.159 A 
ATOM     30  C   UNL     1       5.429  -0.745  27.205  0.00  0.00    +0.060 A 
BRANCH  29  31
ATOM     31  O   UNL     1       3.492  -1.774  28.207  0.00  0.00    -0.503 OA
ATOM     32  H   UNL     1       2.738  -1.338  27.788  0.00  0.00    +0.292 HD
ENDBRANCH  29  31
BRANCH  28  33
ATOM     33  O   UNL     1       3.880  -0.358  30.484  0.00  0.00    -0.503 OA
ATOM     34  H   UNL     1       3.605   0.512  30.806  0.00  0.00    +0.292 HD
ENDBRANCH  28  33
ENDBRANCH  24  25
BRANCH  23  35
ATOM     35  O   UNL     1       9.287   1.728  21.496  0.00  0.00    -0.506 OA
ATOM     36  H   UNL     1       8.901   1.185  20.791  0.00  0.00    +0.292 HD
ENDBRANCH  23  35
BRANCH  20  37
ATOM     37  O   UNL     1       5.846   4.945  22.046  0.00  0.00    -0.507 OA
ATOM     38  H   UNL     1       5.140   4.622  21.458  0.00  0.00    +0.292 HD
ENDBRANCH  20  37
ENDBRANCH  13  14
ENDBRANCH   3  13
BRANCH   1  39
ATOM     39  C   UNL     1       7.455  -5.605  27.429  0.00  0.00    +0.197 C 
BRANCH  39  40
ATOM     40  O   UNL     1       6.232  -4.914  27.779  0.00  0.00    -0.346 OA
BRANCH  40  44
ATOM     41  C   UNL     1       2.768  -3.535  25.235  0.00  0.00    +0.041 C 
ATOM     42  C   UNL     1       2.852  -4.732  26.183  0.00  0.00    +0.149 C 
ATOM     43  O   UNL     1       3.949  -4.603  27.117  0.00  0.00    -0.343 OA
ATOM     44  C   UNL     1       5.271  -4.922  26.652  0.00  0.00    +0.282 C 
ATOM     45  C   UNL     1       5.268  -6.328  25.990  0.00  0.00    +0.201 C 
ATOM     46  C   UNL     1       4.232  -6.365  24.843  0.00  0.00    +0.179 C 
ATOM     47  C   UNL     1       2.834  -6.049  25.385  0.00  0.00    +0.174 C 
BRANCH  47  48
ATOM     48  O   UNL     1       2.357  -7.133  26.192  0.00  0.00    -0.387 OA
ATOM     49  H   UNL     1       3.146  -7.511  26.642  0.00  0.00    +0.210 HD
ENDBRANCH  47  48
BRANCH  46  50
ATOM     50  O   UNL     1       4.236  -7.624  24.156  0.00  0.00    -0.386 OA
ATOM     51  H   UNL     1       5.160  -7.834  23.925  0.00  0.00    +0.210 HD
ENDBRANCH  46  50
BRANCH  45  52
ATOM     52  O   UNL     1       4.916  -7.332  26.971  0.00  0.00    -0.384 OA
ATOM     53  H   UNL     1       5.264  -6.982  27.823  0.00  0.00    +0.210 HD
ENDBRANCH  45  52
ENDBRANCH  40  44
ENDBRANCH  39  40
ENDBRANCH   1  39
TORSDOF 16
ENDMDL
MODEL 4
REMARK VINA RESULT:      -7.3      2.000      8.221
REMARK  Name = 
REMARK  17 active torsions:
REMARK  status: ('A' for Active; 'I' for Inactive)
REMARK    1  A    between atoms: C_1  and  C_2
REMARK    2  A    between atoms: C_3  and  O_48
REMARK    3  A    between atoms: C_5  and  O_47
REMARK    4  A    between atoms: C_7  and  O_46
REMARK    5  A    between atoms: C_8  and  O_11
REMARK    6  A    between atoms: O_11  and  C_12
REMARK    7  A    between atoms: C_12  and  C_13
REMARK    8  A    between atoms: C_14  and  O_45
REMARK    9  A    between atoms: C_16  and  O_44
REMARK   10  A    between atoms: C_17  and  O_43
REMARK   11  A    between atoms: C_18  and  O_21
REMARK   12  A    between atoms: O_21  and  C_22
REMARK   13  A    between atoms: C_23  and  C_35
REMARK   14  A    between atoms: C_27  and  O_34
REMARK   15  A    between atoms: C_29  and  O_33
REMARK   16  A    between atoms: C_37  and  O_42
REMARK   17  A    between atoms: C_38  and  O_41
REMARK                            x       y       z     vdW  Elec       q    Type
REMARK                         _______ _______ _______ _____ _____    ______ ____
ROOT
ATOM      1  C   UNL     1       6.336   1.948  28.115  0.00  0.00    +0.179 C 
ATOM      2  O   UNL     1       7.192   0.859  27.678  0.00  0.00    -0.331 OA
ATOM      3  C   UNL     1       6.819   0.034  26.561  0.00  0.00    +0.340 C 
ATOM      4  C   UNL     1       5.307  -0.319  26.563  0.00  0.00    +0.214 C 
ATOM      5  C   UNL     1       4.471   0.956  26.745  0.00  0.00    +0.180 C 
ATOM      6  C   UNL     1       4.834   1.649  28.058  0.00  0.00    +0.177 C 
ENDROOT
BRANCH   6   7
ATOM      7  O   UNL     1       4.481   0.791  29.171  0.00  0.00    -0.386 OA
ATOM      8  H   UNL     1       4.875  -0.091  28.995  0.00  0.00    +0.210 HD
ENDBRANCH   6   7
BRANCH   5   9
ATOM      9  O   UNL     1       3.074   0.629  26.735  0.00  0.00    -0.386 OA
ATOM     10  H   UNL     1       2.677   1.144  27.467  0.00  0.00    +0.210 HD
ENDBRANCH   5   9
BRANCH   4  11
ATOM     11  O   UNL     1       4.993  -1.249  27.631  0.00  0.00    -0.383 OA
ATOM     12  H   UNL     1       5.842  -1.663  27.884  0.00  0.00    +0.210 HD
ENDBRANCH   4  11
BRANCH   3  13
ATOM     13  O   UNL     1       7.535  -1.255  26.579  0.00  0.00    -0.453 OA
BRANCH  13  14
ATOM     14  C   UNL     1       7.401  -2.188  25.540  0.00  0.00    +0.214 A 
ATOM     15  C   UNL     1       6.790  -3.555  25.770  0.00  0.00    +0.238 A 
ATOM     16  O   UNL     1       6.586  -3.987  26.904  0.00  0.00    -0.283 OA
ATOM     17  C   UNL     1       6.518  -4.412  24.596  0.00  0.00    +0.109 A 
ATOM     18  C   UNL     1       7.064  -4.011  23.372  0.00  0.00    +0.147 A 
ATOM     19  C   UNL     1       6.933  -4.794  22.218  0.00  0.00    +0.092 A 
ATOM     20  C   UNL     1       6.226  -5.976  22.286  0.00  0.00    +0.124 A 
ATOM     21  C   UNL     1       5.643  -6.383  23.480  0.00  0.00    +0.091 A 
ATOM     22  O   UNL     1       7.770  -2.871  23.235  0.00  0.00    -0.451 OA
ATOM     23  C   UNL     1       5.788  -5.597  24.630  0.00  0.00    +0.135 A 
ATOM     24  C   UNL     1       7.833  -1.947  24.263  0.00  0.00    +0.181 A 
BRANCH  24  25
ATOM     25  C   UNL     1       8.511  -0.736  23.712  0.00  0.00    +0.025 A 
ATOM     26  C   UNL     1       9.814  -0.399  24.099  0.00  0.00    +0.015 A 
ATOM     27  C   UNL     1      10.481   0.670  23.483  0.00  0.00    +0.050 A 
ATOM     28  C   UNL     1       9.900   1.326  22.403  0.00  0.00    +0.158 A 
ATOM     29  C   UNL     1       8.652   0.946  21.935  0.00  0.00    +0.159 A 
ATOM     30  C   UNL     1       7.936  -0.041  22.610  0.00  0.00    +0.060 A 
BRANCH  29  31
ATOM     31  O   UNL     1       8.205   1.483  20.760  0.00  0.00    -0.503 OA
ATOM     32  H   UNL     1       8.377   0.880  20.025  0.00  0.00    +0.292 HD
ENDBRANCH  29  31
BRANCH  28  33
ATOM     33  O   UNL     1      10.577   2.328  21.762  0.00  0.00    -0.503 OA
ATOM     34  H   UNL     1      10.779   2.007  20.872  0.00  0.00    +0.292 HD
ENDBRANCH  28  33
ENDBRANCH  24  25
BRANCH  23  35
ATOM     35  O   UNL     1       5.189  -6.008  25.785  0.00  0.00    -0.506 OA
ATOM     36  H   UNL     1       4.894  -5.239  26.299  0.00  0.00    +0.292 HD
ENDBRANCH  23  35
BRANCH  20  37
ATOM     37  O   UNL     1       6.068  -6.767  21.187  0.00  0.00    -0.507 OA
ATOM     38  H   UNL     1       5.129  -6.787  20.932  0.00  0.00    +0.292 HD
ENDBRANCH  20  37
ENDBRANCH  13  14
ENDBRANCH   3  13
BRANCH   1  39
ATOM     39  C   UNL     1       6.755   3.414  27.698  0.00  0.00    +0.197 C 
BRANCH  39  40
ATOM     40  O   UNL     1       7.838   3.616  26.759  0.00  0.00    -0.346 OA
BRANCH  40  44
ATOM     41  C   UNL     1       5.103   5.774  23.889  0.00  0.00    +0.041 C 
ATOM     42  C   UNL     1       6.113   4.661  23.607  0.00  0.00    +0.149 C 
ATOM     43  O   UNL     1       6.481   3.949  24.811  0.00  0.00    -0.343 OA
ATOM     44  C   UNL     1       7.447   4.558  25.685  0.00  0.00    +0.282 C 
ATOM     45  C   UNL     1       8.708   4.961  24.871  0.00  0.00    +0.201 C 
ATOM     46  C   UNL     1       8.306   5.905  23.714  0.00  0.00    +0.179 C 
ATOM     47  C   UNL     1       7.300   5.209  22.792  0.00  0.00    +0.174 C 
BRANCH  47  48
ATOM     48  O   UNL     1       7.943   4.163  22.053  0.00  0.00    -0.387 OA
ATOM     49  H   UNL     1       8.011   4.482  21.124  0.00  0.00    +0.210 HD
ENDBRANCH  47  48
BRANCH  46  50
ATOM     50  O   UNL     1       9.446   6.358  22.971  0.00  0.00    -0.386 OA
ATOM     51  H   UNL     1      10.073   5.615  22.906  0.00  0.00    +0.210 HD
ENDBRANCH  46  50
BRANCH  45  52
ATOM     52  O   UNL     1       9.332   3.779  24.315  0.00  0.00    -0.384 OA
ATOM     53  H   UNL     1       8.595   3.278  23.899  0.00  0.00    +0.210 HD
ENDBRANCH  45  52
ENDBRANCH  40  44
ENDBRANCH  39  40
ENDBRANCH   1  39
TORSDOF 16
ENDMDL
MODEL 5
REMARK VINA RESULT:      -7.3      2.467      6.371
REMARK  Name = 
REMARK  17 active torsions:
REMARK  status: ('A' for Active; 'I' for Inactive)
REMARK    1  A    between atoms: C_1  and  C_2
REMARK    2  A    between atoms: C_3  and  O_48
REMARK    3  A    between atoms: C_5  and  O_47
REMARK    4  A    between atoms: C_7  and  O_46
REMARK    5  A    between atoms: C_8  and  O_11
REMARK    6  A    between atoms: O_11  and  C_12
REMARK    7  A    between atoms: C_12  and  C_13
REMARK    8  A    between atoms: C_14  and  O_45
REMARK    9  A    between atoms: C_16  and  O_44
REMARK   10  A    between atoms: C_17  and  O_43
REMARK   11  A    between atoms: C_18  and  O_21
REMARK   12  A    between atoms: O_21  and  C_22
REMARK   13  A    between atoms: C_23  and  C_35
REMARK   14  A    between atoms: C_27  and  O_34
REMARK   15  A    between atoms: C_29  and  O_33
REMARK   16  A    between atoms: C_37  and  O_42
REMARK   17  A    between atoms: C_38  and  O_41
REMARK                            x       y       z     vdW  Elec       q    Type
REMARK                         _______ _______ _______ _____ _____    ______ ____
ROOT
ATOM      1  C   UNL     1       4.829   0.349  26.725  0.00  0.00    +0.179 C 
ATOM      2  O   UNL     1       5.788  -0.693  26.402  0.00  0.00    -0.331 OA
ATOM      3  C   UNL     1       6.986  -0.854  27.181  0.00  0.00    +0.340 C 
ATOM      4  C   UNL     1       7.638   0.505  27.556  0.00  0.00    +0.214 C 
ATOM      5  C   UNL     1       6.584   1.443  28.161  0.00  0.00    +0.180 C 
ATOM      6  C   UNL     1       5.447   1.680  27.167  0.00  0.00    +0.177 C 
ENDROOT
BRANCH   6   7
ATOM      7  O   UNL     1       5.961   2.373  26.002  0.00  0.00    -0.386 OA
ATOM      8  H   UNL     1       5.245   2.961  25.675  0.00  0.00    +0.210 HD
ENDBRANCH   6   7
BRANCH   5   9
ATOM      9  O   UNL     1       7.190   2.693  28.517  0.00  0.00    -0.386 OA
ATOM     10  H   UNL     1       7.736   2.952  27.747  0.00  0.00    +0.210 HD
ENDBRANCH   5   9
BRANCH   4  11
ATOM     11  O   UNL     1       8.224   1.138  26.389  0.00  0.00    -0.383 OA
ATOM     12  H   UNL     1       9.104   0.727  26.275  0.00  0.00    +0.210 HD
ENDBRANCH   4  11
BRANCH   3  13
ATOM     13  O   UNL     1       8.015  -1.605  26.438  0.00  0.00    -0.453 OA
BRANCH  13  14
ATOM     14  C   UNL     1       7.695  -2.396  25.326  0.00  0.00    +0.214 A 
ATOM     15  C   UNL     1       7.052  -3.759  25.475  0.00  0.00    +0.238 A 
ATOM     16  O   UNL     1       6.982  -4.323  26.566  0.00  0.00    -0.283 OA
ATOM     17  C   UNL     1       6.580  -4.453  24.256  0.00  0.00    +0.109 A 
ATOM     18  C   UNL     1       6.975  -3.920  23.024  0.00  0.00    +0.147 A 
ATOM     19  C   UNL     1       6.650  -4.548  21.815  0.00  0.00    +0.092 A 
ATOM     20  C   UNL     1       5.899  -5.705  21.840  0.00  0.00    +0.124 A 
ATOM     21  C   UNL     1       5.463  -6.238  23.047  0.00  0.00    +0.091 A 
ATOM     22  O   UNL     1       7.713  -2.798  22.927  0.00  0.00    -0.451 OA
ATOM     23  C   UNL     1       5.802  -5.607  24.251  0.00  0.00    +0.135 A 
ATOM     24  C   UNL     1       7.962  -2.011  24.039  0.00  0.00    +0.181 A 
BRANCH  24  25
ATOM     25  C   UNL     1       8.620  -0.765  23.546  0.00  0.00    +0.025 A 
ATOM     26  C   UNL     1       9.984  -0.535  23.762  0.00  0.00    +0.015 A 
ATOM     27  C   UNL     1      10.613   0.581  23.190  0.00  0.00    +0.050 A 
ATOM     28  C   UNL     1       9.916   1.399  22.307  0.00  0.00    +0.158 A 
ATOM     29  C   UNL     1       8.591   1.134  21.997  0.00  0.00    +0.159 A 
ATOM     30  C   UNL     1       7.928   0.094  22.646  0.00  0.00    +0.060 A 
BRANCH  29  31
ATOM     31  O   UNL     1       8.005   1.842  20.985  0.00  0.00    -0.503 OA
ATOM     32  H   UNL     1       7.090   1.557  20.859  0.00  0.00    +0.292 HD
ENDBRANCH  29  31
BRANCH  28  33
ATOM     33  O   UNL     1      10.547   2.450  21.701  0.00  0.00    -0.503 OA
ATOM     34  H   UNL     1      10.010   3.237  21.870  0.00  0.00    +0.292 HD
ENDBRANCH  28  33
ENDBRANCH  24  25
BRANCH  23  35
ATOM     35  O   UNL     1       5.345  -6.139  25.421  0.00  0.00    -0.506 OA
ATOM     36  H   UNL     1       4.433  -5.850  25.584  0.00  0.00    +0.292 HD
ENDBRANCH  23  35
BRANCH  20  37
ATOM     37  O   UNL     1       5.554  -6.346  20.688  0.00  0.00    -0.507 OA
ATOM     38  H   UNL     1       5.958  -7.231  20.673  0.00  0.00    +0.292 HD
ENDBRANCH  20  37
ENDBRANCH  13  14
ENDBRANCH   3  13
BRANCH   1  39
ATOM     39  C   UNL     1       3.518  -0.083  27.495  0.00  0.00    +0.197 C 
BRANCH  39  40
ATOM     40  O   UNL     1       2.509  -0.870  26.819  0.00  0.00    -0.346 OA
BRANCH  40  44
ATOM     41  C   UNL     1       1.936  -3.698  30.290  0.00  0.00    +0.041 C 
ATOM     42  C   UNL     1       3.154  -3.519  29.382  0.00  0.00    +0.149 C 
ATOM     43  O   UNL     1       3.120  -2.257  28.676  0.00  0.00    -0.343 OA
ATOM     44  C   UNL     1       2.280  -2.158  27.514  0.00  0.00    +0.282 C 
ATOM     45  C   UNL     1       2.592  -3.329  26.541  0.00  0.00    +0.201 C 
ATOM     46  C   UNL     1       2.405  -4.680  27.270  0.00  0.00    +0.179 C 
ATOM     47  C   UNL     1       3.337  -4.757  28.483  0.00  0.00    +0.174 C 
BRANCH  47  48
ATOM     48  O   UNL     1       4.699  -4.886  28.057  0.00  0.00    -0.387 OA
ATOM     49  H   UNL     1       4.981  -3.992  27.759  0.00  0.00    +0.210 HD
ENDBRANCH  47  48
BRANCH  46  50
ATOM     50  O   UNL     1       2.619  -5.796  26.394  0.00  0.00    -0.386 OA
ATOM     51  H   UNL     1       2.788  -6.580  26.948  0.00  0.00    +0.210 HD
ENDBRANCH  46  50
BRANCH  45  52
ATOM     52  O   UNL     1       3.960  -3.232  26.079  0.00  0.00    -0.384 OA
ATOM     53  H   UNL     1       4.234  -4.161  25.909  0.00  0.00    +0.210 HD
ENDBRANCH  45  52
ENDBRANCH  40  44
ENDBRANCH  39  40
ENDBRANCH   1  39
TORSDOF 16
ENDMDL
MODEL 6
REMARK VINA RESULT:      -7.3      2.360      8.365
REMARK  Name = 
REMARK  17 active torsions:
REMARK  status: ('A' for Active; 'I' for Inactive)
REMARK    1  A    between atoms: C_1  and  C_2
REMARK    2  A    between atoms: C_3  and  O_48
REMARK    3  A    between atoms: C_5  and  O_47
REMARK    4  A    between atoms: C_7  and  O_46
REMARK    5  A    between atoms: C_8  and  O_11
REMARK    6  A    between atoms: O_11  and  C_12
REMARK    7  A    between atoms: C_12  and  C_13
REMARK    8  A    between atoms: C_14  and  O_45
REMARK    9  A    between atoms: C_16  and  O_44
REMARK   10  A    between atoms: C_17  and  O_43
REMARK   11  A    between atoms: C_18  and  O_21
REMARK   12  A    between atoms: O_21  and  C_22
REMARK   13  A    between atoms: C_23  and  C_35
REMARK   14  A    between atoms: C_27  and  O_34
REMARK   15  A    between atoms: C_29  and  O_33
REMARK   16  A    between atoms: C_37  and  O_42
REMARK   17  A    between atoms: C_38  and  O_41
REMARK                            x       y       z     vdW  Elec       q    Type
REMARK                         _______ _______ _______ _____ _____    ______ ____
ROOT
ATOM      1  C   UNL     1       5.763   2.217  26.497  0.00  0.00    +0.179 C 
ATOM      2  O   UNL     1       6.404   0.977  26.096  0.00  0.00    -0.331 OA
ATOM      3  C   UNL     1       6.452  -0.147  26.991  0.00  0.00    +0.340 C 
ATOM      4  C   UNL     1       6.758   0.272  28.456  0.00  0.00    +0.214 C 
ATOM      5  C   UNL     1       5.819   1.410  28.881  0.00  0.00    +0.180 C 
ATOM      6  C   UNL     1       5.991   2.617  27.959  0.00  0.00    +0.177 C 
ENDROOT
BRANCH   6   7
ATOM      7  O   UNL     1       7.332   3.146  28.101  0.00  0.00    -0.386 OA
ATOM      8  H   UNL     1       7.296   3.851  28.784  0.00  0.00    +0.210 HD
ENDBRANCH   6   7
BRANCH   5   9
ATOM      9  O   UNL     1       6.095   1.789  30.238  0.00  0.00    -0.386 OA
ATOM     10  H   UNL     1       6.434   0.981  30.674  0.00  0.00    +0.210 HD
ENDBRANCH   5   9
BRANCH   4  11
ATOM     11  O   UNL     1       8.133   0.715  28.592  0.00  0.00    -0.383 OA
ATOM     12  H   UNL     1       8.548   0.569  27.719  0.00  0.00    +0.210 HD
ENDBRANCH   4  11
BRANCH   3  13
ATOM     13  O   UNL     1       7.516  -1.095  26.612  0.00  0.00    -0.453 OA
BRANCH  13  14
ATOM     14  C   UNL     1       7.347  -2.017  25.570  0.00  0.00    +0.214 A 
ATOM     15  C   UNL     1       6.720  -3.376  25.801  0.00  0.00    +0.238 A 
ATOM     16  O   UNL     1       6.531  -3.814  26.935  0.00  0.00    -0.283 OA
ATOM     17  C   UNL     1       6.411  -4.220  24.626  0.00  0.00    +0.109 A 
ATOM     18  C   UNL     1       6.939  -3.817  23.394  0.00  0.00    +0.147 A 
ATOM     19  C   UNL     1       6.773  -4.589  22.237  0.00  0.00    +0.092 A 
ATOM     20  C   UNL     1       6.049  -5.760  22.310  0.00  0.00    +0.124 A 
ATOM     21  C   UNL     1       5.483  -6.168  23.512  0.00  0.00    +0.091 A 
ATOM     22  O   UNL     1       7.660  -2.688  23.253  0.00  0.00    -0.451 OA
ATOM     23  C   UNL     1       5.663  -5.393  24.665  0.00  0.00    +0.135 A 
ATOM     24  C   UNL     1       7.758  -1.772  24.286  0.00  0.00    +0.181 A 
BRANCH  24  25
ATOM     25  C   UNL     1       8.444  -0.568  23.731  0.00  0.00    +0.025 A 
ATOM     26  C   UNL     1       9.812  -0.355  23.942  0.00  0.00    +0.015 A 
ATOM     27  C   UNL     1      10.467   0.715  23.315  0.00  0.00    +0.050 A 
ATOM     28  C   UNL     1       9.791   1.498  22.385  0.00  0.00    +0.158 A 
ATOM     29  C   UNL     1       8.463   1.245  22.082  0.00  0.00    +0.159 A 
ATOM     30  C   UNL     1       7.775   0.256  22.782  0.00  0.00    +0.060 A 
BRANCH  29  31
ATOM     31  O   UNL     1       7.896   1.910  21.031  0.00  0.00    -0.503 OA
ATOM     32  H   UNL     1       6.969   2.111  21.217  0.00  0.00    +0.292 HD
ENDBRANCH  29  31
BRANCH  28  33
ATOM     33  O   UNL     1      10.447   2.502  21.727  0.00  0.00    -0.503 OA
ATOM     34  H   UNL     1      11.352   2.520  22.069  0.00  0.00    +0.292 HD
ENDBRANCH  28  33
ENDBRANCH  24  25
BRANCH  23  35
ATOM     35  O   UNL     1       5.080  -5.803  25.828  0.00  0.00    -0.506 OA
ATOM     36  H   UNL     1       5.069  -6.772  25.872  0.00  0.00    +0.292 HD
ENDBRANCH  23  35
BRANCH  20  37
ATOM     37  O   UNL     1       5.857  -6.540  21.208  0.00  0.00    -0.507 OA
ATOM     38  H   UNL     1       5.877  -5.985  20.409  0.00  0.00    +0.292 HD
ENDBRANCH  20  37
ENDBRANCH  13  14
ENDBRANCH   3  13
BRANCH   1  39
ATOM     39  C   UNL     1       4.316   2.504  25.930  0.00  0.00    +0.197 C 
BRANCH  39  40
ATOM     40  O   UNL     1       4.158   3.234  24.690  0.00  0.00    -0.346 OA
BRANCH  40  44
ATOM     41  C   UNL     1       6.385   7.102  25.361  0.00  0.00    +0.041 C 
ATOM     42  C   UNL     1       5.541   6.671  24.160  0.00  0.00    +0.149 C 
ATOM     43  O   UNL     1       4.663   5.569  24.488  0.00  0.00    -0.343 OA
ATOM     44  C   UNL     1       5.226   4.247  24.524  0.00  0.00    +0.282 C 
ATOM     45  C   UNL     1       5.996   3.970  23.203  0.00  0.00    +0.201 C 
ATOM     46  C   UNL     1       7.082   5.050  22.993  0.00  0.00    +0.179 C 
ATOM     47  C   UNL     1       6.439   6.438  22.931  0.00  0.00    +0.174 C 
BRANCH  47  48
ATOM     48  O   UNL     1       5.695   6.588  21.715  0.00  0.00    -0.387 OA
ATOM     49  H   UNL     1       5.673   5.700  21.293  0.00  0.00    +0.210 HD
ENDBRANCH  47  48
BRANCH  46  50
ATOM     50  O   UNL     1       7.866   4.801  21.817  0.00  0.00    -0.386 OA
ATOM     51  H   UNL     1       8.107   3.856  21.815  0.00  0.00    +0.210 HD
ENDBRANCH  46  50
BRANCH  45  52
ATOM     52  O   UNL     1       5.080   4.003  22.084  0.00  0.00    -0.384 OA
ATOM     53  H   UNL     1       5.566   3.567  21.348  0.00  0.00    +0.210 HD
ENDBRANCH  45  52
ENDBRANCH  40  44
ENDBRANCH  39  40
ENDBRANCH   1  39
TORSDOF 16
ENDMDL
MODEL 7
REMARK VINA RESULT:      -7.2      2.022      8.962
REMARK  Name = 
REMARK  17 active torsions:
REMARK  status: ('A' for Active; 'I' for Inactive)
REMARK    1  A    between atoms: C_1  and  C_2
REMARK    2  A    between atoms: C_3  and  O_48
REMARK    3  A    between atoms: C_5  and  O_47
REMARK    4  A    between atoms: C_7  and  O_46
REMARK    5  A    between atoms: C_8  and  O_11
REMARK    6  A    between atoms: O_11  and  C_12
REMARK    7  A    between atoms: C_12  and  C_13
REMARK    8  A    between atoms: C_14  and  O_45
REMARK    9  A    between atoms: C_16  and  O_44
REMARK   10  A    between atoms: C_17  and  O_43
REMARK   11  A    between atoms: C_18  and  O_21
REMARK   12  A    between atoms: O_21  and  C_22
REMARK   13  A    between atoms: C_23  and  C_35
REMARK   14  A    between atoms: C_27  and  O_34
REMARK   15  A    between atoms: C_29  and  O_33
REMARK   16  A    between atoms: C_37  and  O_42
REMARK   17  A    between atoms: C_38  and  O_41
REMARK                            x       y       z     vdW  Elec       q    Type
REMARK                         _______ _______ _______ _____ _____    ______ ____
ROOT
ATOM      1  C   UNL     1       9.269   0.270  22.480  0.00  0.00    +0.179 C 
ATOM      2  O   UNL     1       7.859  -0.020  22.671  0.00  0.00    -0.331 OA
ATOM      3  C   UNL     1       7.435  -1.001  23.632  0.00  0.00    +0.340 C 
ATOM      4  C   UNL     1       8.340  -2.264  23.632  0.00  0.00    +0.214 C 
ATOM      5  C   UNL     1       9.816  -1.850  23.724  0.00  0.00    +0.180 C 
ATOM      6  C   UNL     1      10.193  -0.952  22.546  0.00  0.00    +0.177 C 
ENDROOT
BRANCH   6   7
ATOM      7  O   UNL     1      10.076  -1.700  21.311  0.00  0.00    -0.386 OA
ATOM      8  H   UNL     1      10.956  -2.094  21.125  0.00  0.00    +0.210 HD
ENDBRANCH   6   7
BRANCH   5   9
ATOM      9  O   UNL     1      10.650  -3.017  23.735  0.00  0.00    -0.386 OA
ATOM     10  H   UNL     1      10.039  -3.779  23.798  0.00  0.00    +0.210 HD
ENDBRANCH   5   9
BRANCH   4  11
ATOM     11  O   UNL     1       8.140  -3.044  22.426  0.00  0.00    -0.383 OA
ATOM     12  H   UNL     1       8.110  -2.399  21.692  0.00  0.00    +0.210 HD
ENDBRANCH   4  11
BRANCH   3  13
ATOM     13  O   UNL     1       6.070  -1.483  23.347  0.00  0.00    -0.453 OA
BRANCH  13  14
ATOM     14  C   UNL     1       5.448  -2.454  24.144  0.00  0.00    +0.214 A 
ATOM     15  C   UNL     1       5.070  -3.814  23.596  0.00  0.00    +0.238 A 
ATOM     16  O   UNL     1       5.091  -4.051  22.389  0.00  0.00    -0.283 OA
ATOM     17  C   UNL     1       4.584  -4.845  24.539  0.00  0.00    +0.109 A 
ATOM     18  C   UNL     1       4.272  -4.426  25.838  0.00  0.00    +0.147 A 
ATOM     19  C   UNL     1       3.729  -5.306  26.782  0.00  0.00    +0.092 A 
ATOM     20  C   UNL     1       3.521  -6.624  26.430  0.00  0.00    +0.124 A 
ATOM     21  C   UNL     1       3.854  -7.077  25.159  0.00  0.00    +0.091 A 
ATOM     22  O   UNL     1       4.444  -3.154  26.247  0.00  0.00    -0.451 OA
ATOM     23  C   UNL     1       4.388  -6.185  24.220  0.00  0.00    +0.135 A 
ATOM     24  C   UNL     1       5.114  -2.237  25.455  0.00  0.00    +0.181 A 
BRANCH  24  25
ATOM     25  C   UNL     1       5.301  -1.009  26.283  0.00  0.00    +0.025 A 
ATOM     26  C   UNL     1       4.201  -0.291  26.768  0.00  0.00    +0.015 A 
ATOM     27  C   UNL     1       4.390   0.789  27.643  0.00  0.00    +0.050 A 
ATOM     28  C   UNL     1       5.660   1.078  28.130  0.00  0.00    +0.158 A 
ATOM     29  C   UNL     1       6.754   0.318  27.744  0.00  0.00    +0.159 A 
ATOM     30  C   UNL     1       6.592  -0.685  26.791  0.00  0.00    +0.060 A 
BRANCH  29  31
ATOM     31  O   UNL     1       7.942   0.512  28.391  0.00  0.00    -0.503 OA
ATOM     32  H   UNL     1       8.513   1.101  27.880  0.00  0.00    +0.292 HD
ENDBRANCH  29  31
BRANCH  28  33
ATOM     33  O   UNL     1       5.836   2.091  29.032  0.00  0.00    -0.503 OA
ATOM     34  H   UNL     1       5.431   1.804  29.862  0.00  0.00    +0.292 HD
ENDBRANCH  28  33
ENDBRANCH  24  25
BRANCH  23  35
ATOM     35  O   UNL     1       4.727  -6.658  22.985  0.00  0.00    -0.506 OA
ATOM     36  H   UNL     1       4.242  -6.175  22.298  0.00  0.00    +0.292 HD
ENDBRANCH  23  35
BRANCH  20  37
ATOM     37  O   UNL     1       3.000  -7.517  27.318  0.00  0.00    -0.507 OA
ATOM     38  H   UNL     1       3.703  -8.115  27.629  0.00  0.00    +0.292 HD
ENDBRANCH  20  37
ENDBRANCH  13  14
ENDBRANCH   3  13
BRANCH   1  39
ATOM     39  C   UNL     1       9.836   1.589  23.140  0.00  0.00    +0.197 C 
BRANCH  39  40
ATOM     40  O   UNL     1       9.458   2.882  22.610  0.00  0.00    -0.346 OA
BRANCH  40  44
ATOM     41  C   UNL     1       6.894   4.012  26.149  0.00  0.00    +0.041 C 
ATOM     42  C   UNL     1       6.703   2.877  25.142  0.00  0.00    +0.149 C 
ATOM     43  O   UNL     1       7.924   2.579  24.427  0.00  0.00    -0.343 OA
ATOM     44  C   UNL     1       8.294   3.439  23.336  0.00  0.00    +0.282 C 
ATOM     45  C   UNL     1       7.097   3.582  22.355  0.00  0.00    +0.201 C 
ATOM     46  C   UNL     1       5.859   4.116  23.112  0.00  0.00    +0.179 C 
ATOM     47  C   UNL     1       5.481   3.158  24.246  0.00  0.00    +0.174 C 
BRANCH  47  48
ATOM     48  O   UNL     1       4.946   1.940  23.711  0.00  0.00    -0.387 OA
ATOM     49  H   UNL     1       4.818   1.335  24.476  0.00  0.00    +0.210 HD
ENDBRANCH  47  48
BRANCH  46  50
ATOM     50  O   UNL     1       4.744   4.328  22.235  0.00  0.00    -0.386 OA
ATOM     51  H   UNL     1       4.738   5.270  21.984  0.00  0.00    +0.210 HD
ENDBRANCH  46  50
BRANCH  45  52
ATOM     52  O   UNL     1       6.775   2.293  21.781  0.00  0.00    -0.384 OA
ATOM     53  H   UNL     1       7.437   1.675  22.165  0.00  0.00    +0.210 HD
ENDBRANCH  45  52
ENDBRANCH  40  44
ENDBRANCH  39  40
ENDBRANCH   1  39
TORSDOF 16
ENDMDL
MODEL 8
REMARK VINA RESULT:      -7.2      2.141      7.049
REMARK  Name = 
REMARK  17 active torsions:
REMARK  status: ('A' for Active; 'I' for Inactive)
REMARK    1  A    between atoms: C_1  and  C_2
REMARK    2  A    between atoms: C_3  and  O_48
REMARK    3  A    between atoms: C_5  and  O_47
REMARK    4  A    between atoms: C_7  and  O_46
REMARK    5  A    between atoms: C_8  and  O_11
REMARK    6  A    between atoms: O_11  and  C_12
REMARK    7  A    between atoms: C_12  and  C_13
REMARK    8  A    between atoms: C_14  and  O_45
REMARK    9  A    between atoms: C_16  and  O_44
REMARK   10  A    between atoms: C_17  and  O_43
REMARK   11  A    between atoms: C_18  and  O_21
REMARK   12  A    between atoms: O_21  and  C_22
REMARK   13  A    between atoms: C_23  and  C_35
REMARK   14  A    between atoms: C_27  and  O_34
REMARK   15  A    between atoms: C_29  and  O_33
REMARK   16  A    between atoms: C_37  and  O_42
REMARK   17  A    between atoms: C_38  and  O_41
REMARK                            x       y       z     vdW  Elec       q    Type
REMARK                         _______ _______ _______ _____ _____    ______ ____
ROOT
ATOM      1  C   UNL     1       8.890  -2.610  23.758  0.00  0.00    +0.179 C 
ATOM      2  O   UNL     1       8.144  -2.070  24.881  0.00  0.00    -0.331 OA
ATOM      3  C   UNL     1       8.388  -2.537  26.218  0.00  0.00    +0.340 C 
ATOM      4  C   UNL     1       8.590  -4.076  26.282  0.00  0.00    +0.214 C 
ATOM      5  C   UNL     1       9.624  -4.513  25.235  0.00  0.00    +0.180 C 
ATOM      6  C   UNL     1       9.164  -4.117  23.832  0.00  0.00    +0.177 C 
ENDROOT
BRANCH   6   7
ATOM      7  O   UNL     1       7.950  -4.835  23.501  0.00  0.00    -0.386 OA
ATOM      8  H   UNL     1       7.195  -4.256  23.745  0.00  0.00    +0.210 HD
ENDBRANCH   6   7
BRANCH   5   9
ATOM      9  O   UNL     1       9.818  -5.933  25.303  0.00  0.00    -0.386 OA
ATOM     10  H   UNL     1      10.322  -6.170  24.498  0.00  0.00    +0.210 HD
ENDBRANCH   5   9
BRANCH   4  11
ATOM     11  O   UNL     1       7.342  -4.773  26.035  0.00  0.00    -0.383 OA
ATOM     12  H   UNL     1       6.844  -4.735  26.876  0.00  0.00    +0.210 HD
ENDBRANCH   4  11
BRANCH   3  13
ATOM     13  O   UNL     1       7.252  -2.241  27.110  0.00  0.00    -0.453 OA
BRANCH  13  14
ATOM     14  C   UNL     1       6.415  -1.135  26.899  0.00  0.00    +0.214 A 
ATOM     15  C   UNL     1       6.713   0.219  27.509  0.00  0.00    +0.238 A 
ATOM     16  O   UNL     1       7.569   0.358  28.382  0.00  0.00    -0.283 OA
ATOM     17  C   UNL     1       5.888   1.375  27.096  0.00  0.00    +0.109 A 
ATOM     18  C   UNL     1       4.732   1.103  26.357  0.00  0.00    +0.147 A 
ATOM     19  C   UNL     1       3.841   2.119  25.988  0.00  0.00    +0.092 A 
ATOM     20  C   UNL     1       4.126   3.422  26.339  0.00  0.00    +0.124 A 
ATOM     21  C   UNL     1       5.285   3.727  27.043  0.00  0.00    +0.091 A 
ATOM     22  O   UNL     1       4.390  -0.146  25.985  0.00  0.00    -0.451 OA
ATOM     23  C   UNL     1       6.164   2.701  27.415  0.00  0.00    +0.135 A 
ATOM     24  C   UNL     1       5.265  -1.204  26.158  0.00  0.00    +0.181 A 
BRANCH  24  25
ATOM     25  C   UNL     1       4.662  -2.379  25.463  0.00  0.00    +0.025 A 
ATOM     26  C   UNL     1       3.413  -2.882  25.848  0.00  0.00    +0.015 A 
ATOM     27  C   UNL     1       2.805  -3.909  25.110  0.00  0.00    +0.050 A 
ATOM     28  C   UNL     1       3.381  -4.351  23.924  0.00  0.00    +0.158 A 
ATOM     29  C   UNL     1       4.568  -3.799  23.467  0.00  0.00    +0.159 A 
ATOM     30  C   UNL     1       5.234  -2.858  24.250  0.00  0.00    +0.060 A 
BRANCH  29  31
ATOM     31  O   UNL     1       4.996  -4.122  22.210  0.00  0.00    -0.503 OA
ATOM     32  H   UNL     1       5.831  -3.678  22.013  0.00  0.00    +0.292 HD
ENDBRANCH  29  31
BRANCH  28  33
ATOM     33  O   UNL     1       2.757  -5.308  23.172  0.00  0.00    -0.503 OA
ATOM     34  H   UNL     1       3.270  -5.406  22.358  0.00  0.00    +0.292 HD
ENDBRANCH  28  33
ENDBRANCH  24  25
BRANCH  23  35
ATOM     35  O   UNL     1       7.306   3.028  28.087  0.00  0.00    -0.506 OA
ATOM     36  H   UNL     1       7.086   3.406  28.953  0.00  0.00    +0.292 HD
ENDBRANCH  23  35
BRANCH  20  37
ATOM     37  O   UNL     1       3.291   4.443  25.996  0.00  0.00    -0.507 OA
ATOM     38  H   UNL     1       2.367   4.165  26.122  0.00  0.00    +0.292 HD
ENDBRANCH  20  37
ENDBRANCH  13  14
ENDBRANCH   3  13
BRANCH   1  39
ATOM     39  C   UNL     1      10.068  -1.731  23.177  0.00  0.00    +0.197 C 
BRANCH  39  40
ATOM     40  O   UNL     1       9.905  -1.053  21.908  0.00  0.00    -0.346 OA
BRANCH  40  44
ATOM     41  C   UNL     1      11.096   3.051  23.360  0.00  0.00    +0.041 C 
ATOM     42  C   UNL     1       9.965   2.145  23.849  0.00  0.00    +0.149 C 
ATOM     43  O   UNL     1      10.160   0.771  23.442  0.00  0.00    -0.343 OA
ATOM     44  C   UNL     1       9.818   0.414  22.092  0.00  0.00    +0.282 C 
ATOM     45  C   UNL     1       8.371   0.886  21.777  0.00  0.00    +0.201 C 
ATOM     46  C   UNL     1       8.253   2.409  22.014  0.00  0.00    +0.179 C 
ATOM     47  C   UNL     1       8.597   2.744  23.468  0.00  0.00    +0.174 C 
BRANCH  47  48
ATOM     48  O   UNL     1       7.567   2.271  24.345  0.00  0.00    -0.387 OA
ATOM     49  H   UNL     1       7.312   1.379  24.017  0.00  0.00    +0.210 HD
ENDBRANCH  47  48
BRANCH  46  50
ATOM     50  O   UNL     1       6.951   2.906  21.673  0.00  0.00    -0.386 OA
ATOM     51  H   UNL     1       6.292   2.302  22.062  0.00  0.00    +0.210 HD
ENDBRANCH  46  50
BRANCH  45  52
ATOM     52  O   UNL     1       7.432   0.203  22.642  0.00  0.00    -0.384 OA
ATOM     53  H   UNL     1       7.640   0.530  23.546  0.00  0.00    +0.210 HD
ENDBRANCH  45  52
ENDBRANCH  40  44
ENDBRANCH  39  40
ENDBRANCH   1  39
TORSDOF 16
ENDMDL
MODEL 9
REMARK VINA RESULT:      -7.2      1.428      2.126
REMARK  Name = 
REMARK  17 active torsions:
REMARK  status: ('A' for Active; 'I' for Inactive)
REMARK    1  A    between atoms: C_1  and  C_2
REMARK    2  A    between atoms: C_3  and  O_48
REMARK    3  A    between atoms: C_5  and  O_47
REMARK    4  A    between atoms: C_7  and  O_46
REMARK    5  A    between atoms: C_8  and  O_11
REMARK    6  A    between atoms: O_11  and  C_12
REMARK    7  A    between atoms: C_12  and  C_13
REMARK    8  A    between atoms: C_14  and  O_45
REMARK    9  A    between atoms: C_16  and  O_44
REMARK   10  A    between atoms: C_17  and  O_43
REMARK   11  A    between atoms: C_18  and  O_21
REMARK   12  A    between atoms: O_21  and  C_22
REMARK   13  A    between atoms: C_23  and  C_35
REMARK   14  A    between atoms: C_27  and  O_34
REMARK   15  A    between atoms: C_29  and  O_33
REMARK   16  A    between atoms: C_37  and  O_42
REMARK   17  A    between atoms: C_38  and  O_41
REMARK                            x       y       z     vdW  Elec       q    Type
REMARK                         _______ _______ _______ _____ _____    ______ ____
ROOT
ATOM      1  C   UNL     1       4.610   0.004  26.569  0.00  0.00    +0.179 C 
ATOM      2  O   UNL     1       5.510   0.342  25.480  0.00  0.00    -0.331 OA
ATOM      3  C   UNL     1       6.215   1.594  25.473  0.00  0.00    +0.340 C 
ATOM      4  C   UNL     1       5.327   2.779  25.942  0.00  0.00    +0.214 C 
ATOM      5  C   UNL     1       4.636   2.423  27.266  0.00  0.00    +0.180 C 
ATOM      6  C   UNL     1       3.772   1.173  27.098  0.00  0.00    +0.177 C 
ENDROOT
BRANCH   6   7
ATOM      7  O   UNL     1       2.700   1.448  26.163  0.00  0.00    -0.386 OA
ATOM      8  H   UNL     1       1.989   1.905  26.662  0.00  0.00    +0.210 HD
ENDBRANCH   6   7
BRANCH   5   9
ATOM      9  O   UNL     1       3.824   3.522  27.704  0.00  0.00    -0.386 OA
ATOM     10  H   UNL     1       3.737   4.113  26.928  0.00  0.00    +0.210 HD
ENDBRANCH   5   9
BRANCH   4  11
ATOM     11  O   UNL     1       4.317   3.094  24.949  0.00  0.00    -0.383 OA
ATOM     12  H   UNL     1       4.797   3.489  24.195  0.00  0.00    +0.210 HD
ENDBRANCH   4  11
BRANCH   3  13
ATOM     13  O   UNL     1       6.675   1.947  24.116  0.00  0.00    -0.453 OA
BRANCH  13  14
ATOM     14  C   UNL     1       7.974   2.417  23.876  0.00  0.00    +0.214 A 
ATOM     15  C   UNL     1       8.288   3.898  23.814  0.00  0.00    +0.238 A 
ATOM     16  O   UNL     1       7.397   4.744  23.754  0.00  0.00    -0.283 OA
ATOM     17  C   UNL     1       9.705   4.316  23.738  0.00  0.00    +0.109 A 
ATOM     18  C   UNL     1      10.652   3.318  23.481  0.00  0.00    +0.147 A 
ATOM     19  C   UNL     1      12.008   3.621  23.309  0.00  0.00    +0.092 A 
ATOM     20  C   UNL     1      12.423   4.931  23.422  0.00  0.00    +0.124 A 
ATOM     21  C   UNL     1      11.511   5.939  23.711  0.00  0.00    +0.091 A 
ATOM     22  O   UNL     1      10.316   2.019  23.353  0.00  0.00    -0.451 OA
ATOM     23  C   UNL     1      10.155   5.626  23.871  0.00  0.00    +0.135 A 
ATOM     24  C   UNL     1       9.037   1.583  23.654  0.00  0.00    +0.181 A 
BRANCH  24  25
ATOM     25  C   UNL     1       9.069   0.091  23.602  0.00  0.00    +0.025 A 
ATOM     26  C   UNL     1       9.678  -0.653  24.620  0.00  0.00    +0.015 A 
ATOM     27  C   UNL     1       9.595  -2.054  24.619  0.00  0.00    +0.050 A 
ATOM     28  C   UNL     1       8.807  -2.705  23.676  0.00  0.00    +0.158 A 
ATOM     29  C   UNL     1       8.112  -1.984  22.717  0.00  0.00    +0.159 A 
ATOM     30  C   UNL     1       8.277  -0.602  22.643  0.00  0.00    +0.060 A 
BRANCH  29  31
ATOM     31  O   UNL     1       7.204  -2.643  21.937  0.00  0.00    -0.503 OA
ATOM     32  H   UNL     1       7.202  -2.281  21.041  0.00  0.00    +0.292 HD
ENDBRANCH  29  31
BRANCH  28  33
ATOM     33  O   UNL     1       8.675  -4.067  23.712  0.00  0.00    -0.503 OA
ATOM     34  H   UNL     1       8.787  -4.336  24.635  0.00  0.00    +0.292 HD
ENDBRANCH  28  33
ENDBRANCH  24  25
BRANCH  23  35
ATOM     35  O   UNL     1       9.281   6.629  24.175  0.00  0.00    -0.506 OA
ATOM     36  H   UNL     1       9.743   7.483  24.180  0.00  0.00    +0.292 HD
ENDBRANCH  23  35
BRANCH  20  37
ATOM     37  O   UNL     1      13.734   5.272  23.268  0.00  0.00    -0.507 OA
ATOM     38  H   UNL     1      14.055   5.707  24.077  0.00  0.00    +0.292 HD
ENDBRANCH  20  37
ENDBRANCH  13  14
ENDBRANCH   3  13
BRANCH   1  39
ATOM     39  C   UNL     1       5.139  -1.006  27.664  0.00  0.00    +0.197 C 
BRANCH  39  40
ATOM     40  O   UNL     1       4.568  -2.333  27.758  0.00  0.00    -0.346 OA
BRANCH  40  44
ATOM     41  C   UNL     1       5.054  -4.731  23.966  0.00  0.00    +0.041 C 
ATOM     42  C   UNL     1       4.687  -5.212  25.371  0.00  0.00    +0.149 C 
ATOM     43  O   UNL     1       4.222  -4.127  26.207  0.00  0.00    -0.343 OA
ATOM     44  C   UNL     1       5.206  -3.260  26.796  0.00  0.00    +0.282 C 
ATOM     45  C   UNL     1       6.276  -4.111  27.535  0.00  0.00    +0.201 C 
ATOM     46  C   UNL     1       6.915  -5.120  26.552  0.00  0.00    +0.179 C 
ATOM     47  C   UNL     1       5.839  -6.041  25.970  0.00  0.00    +0.174 C 
BRANCH  47  48
ATOM     48  O   UNL     1       5.355  -6.940  26.976  0.00  0.00    -0.387 OA
ATOM     49  H   UNL     1       5.676  -7.835  26.724  0.00  0.00    +0.210 HD
ENDBRANCH  47  48
BRANCH  46  50
ATOM     50  O   UNL     1       7.957  -5.886  27.172  0.00  0.00    -0.386 OA
ATOM     51  H   UNL     1       7.576  -6.741  27.444  0.00  0.00    +0.210 HD
ENDBRANCH  46  50
BRANCH  45  52
ATOM     52  O   UNL     1       5.659  -4.842  28.621  0.00  0.00    -0.384 OA
ATOM     53  H   UNL     1       4.720  -4.954  28.346  0.00  0.00    +0.210 HD
ENDBRANCH  45  52
ENDBRANCH  40  44
ENDBRANCH  39  40
ENDBRANCH   1  39
TORSDOF 16
ENDMDL
