MODEL 1
REMARK VINA RESULT:      -7.3      0.000      0.000
REMARK  Name = 
REMARK  15 active torsions:
REMARK  status: ('A' for Active; 'I' for Inactive)
REMARK    1  A    between atoms: C_2  and  O_45
REMARK    2  A    between atoms: C_4  and  O_44
REMARK    3  A    between atoms: C_5  and  O_32
REMARK    4  A    between atoms: C_7  and  O_10
REMARK    5  A    between atoms: O_10  and  C_11
REMARK    6  A    between atoms: C_12  and  C_24
REMARK    7  A    between atoms: C_16  and  O_23
REMARK    8  A    between atoms: C_18  and  O_22
REMARK    9  A    between atoms: C_26  and  O_31
REMARK   10  A    between atoms: C_27  and  O_30
REMARK   11  A    between atoms: O_32  and  C_33
REMARK   12  A    between atoms: C_33  and  C_35
REMARK   13  A    between atoms: C_37  and  O_43
REMARK   14  A    between atoms: C_38  and  O_42
REMARK   15  A    between atoms: C_39  and  O_41
REMARK                            x       y       z     vdW  Elec       q    Type
REMARK                         _______ _______ _______ _____ _____    ______ ____
ROOT
ATOM      1  O   UNL     1       5.692  -0.203  24.646  0.00  0.00    -0.452 OA
ENDROOT
BRANCH   1   2
ATOM      2  C   UNL     1       6.916   0.389  24.366  0.00  0.00    +0.214 A 
ATOM      3  C   UNL     1       7.013   1.808  23.873  0.00  0.00    +0.238 A 
ATOM      4  O   UNL     1       6.033   2.434  23.489  0.00  0.00    -0.283 OA
ATOM      5  C   UNL     1       8.355   2.413  23.807  0.00  0.00    +0.109 A 
ATOM      6  C   UNL     1       9.450   1.574  23.987  0.00  0.00    +0.147 A 
ATOM      7  C   UNL     1      10.752   2.071  23.858  0.00  0.00    +0.092 A 
ATOM      8  C   UNL     1      10.944   3.417  23.557  0.00  0.00    +0.124 A 
ATOM      9  C   UNL     1       9.862   4.274  23.402  0.00  0.00    +0.091 A 
ATOM     10  O   UNL     1       9.330   0.243  24.285  0.00  0.00    -0.451 OA
ATOM     11  C   UNL     1       8.567   3.773  23.533  0.00  0.00    +0.135 A 
ATOM     12  C   UNL     1       8.070  -0.298  24.534  0.00  0.00    +0.181 A 
BRANCH  12  13
ATOM     13  C   UNL     1       8.152  -1.738  24.950  0.00  0.00    +0.025 A 
ATOM     14  C   UNL     1       8.118  -2.067  26.323  0.00  0.00    +0.015 A 
ATOM     15  C   UNL     1       8.190  -3.392  26.772  0.00  0.00    +0.050 A 
ATOM     16  C   UNL     1       8.300  -4.411  25.844  0.00  0.00    +0.158 A 
ATOM     17  C   UNL     1       8.333  -4.124  24.486  0.00  0.00    +0.159 A 
ATOM     18  C   UNL     1       8.247  -2.807  24.035  0.00  0.00    +0.060 A 
BRANCH  16  19
ATOM     19  O   UNL     1       8.421  -5.702  26.272  0.00  0.00    -0.503 OA
ATOM     20  H   UNL     1       9.386  -5.863  26.319  0.00  0.00    +0.292 HD
ENDBRANCH  16  19
BRANCH  17  21
ATOM     21  O   UNL     1       8.491  -5.178  23.628  0.00  0.00    -0.503 OA
ATOM     22  H   UNL     1       8.994  -5.876  24.084  0.00  0.00    +0.292 HD
ENDBRANCH  17  21
ENDBRANCH  12  13
BRANCH   8  23
ATOM     23  O   UNL     1      12.189   3.950  23.406  0.00  0.00    -0.507 OA
ATOM     24  H   UNL     1      12.831   3.416  23.904  0.00  0.00    +0.292 HD
ENDBRANCH   8  23
BRANCH  11  25
ATOM     25  O   UNL     1       7.519   4.640  23.405  0.00  0.00    -0.506 OA
ATOM     26  H   UNL     1       6.801   4.397  24.012  0.00  0.00    +0.292 HD
ENDBRANCH  11  25
ENDBRANCH   1   2
BRANCH   1  29
ATOM     27  C   UNL     1       4.843   1.934  27.450  0.00  0.00    +0.198 C 
ATOM     28  O   UNL     1       5.658   1.285  26.465  0.00  0.00    -0.336 OA
ATOM     29  C   UNL     1       4.895   0.328  25.710  0.00  0.00    +0.352 C 
ATOM     30  C   UNL     1       4.553  -0.843  26.661  0.00  0.00    +0.276 C 
ATOM     31  C   UNL     1       3.742  -0.303  27.859  0.00  0.00    +0.192 C 
ATOM     32  C   UNL     1       4.453   0.899  28.505  0.00  0.00    +0.172 C 
BRANCH  31  33
ATOM     33  O   UNL     1       3.572  -1.337  28.839  0.00  0.00    -0.385 OA
ATOM     34  H   UNL     1       2.748  -1.803  28.589  0.00  0.00    +0.210 HD
ENDBRANCH  31  33
BRANCH  32  35
ATOM     35  O   UNL     1       5.642   0.404  29.159  0.00  0.00    -0.387 OA
ATOM     36  H   UNL     1       5.949   1.112  29.761  0.00  0.00    +0.210 HD
ENDBRANCH  32  35
BRANCH  30  37
ATOM     37  O   UNL     1       3.950  -1.986  25.997  0.00  0.00    -0.449 OA
BRANCH  37  38
ATOM     38  C   UNL     1       4.445  -3.215  26.267  0.00  0.00    +0.340 C 
ATOM     39  O   UNL     1       4.744  -3.633  27.374  0.00  0.00    -0.245 OA
BRANCH  38  40
ATOM     40  C   UNL     1       4.559  -4.036  25.034  0.00  0.00    +0.066 A 
ATOM     41  C   UNL     1       4.839  -3.367  23.833  0.00  0.00    +0.064 A 
ATOM     42  C   UNL     1       5.075  -4.104  22.682  0.00  0.00    +0.163 A 
ATOM     43  C   UNL     1       5.025  -5.490  22.712  0.00  0.00    +0.201 A 
ATOM     44  C   UNL     1       4.709  -6.157  23.891  0.00  0.00    +0.163 A 
ATOM     45  C   UNL     1       4.467  -5.439  25.059  0.00  0.00    +0.064 A 
BRANCH  42  46
ATOM     46  O   UNL     1       5.387  -3.458  21.522  0.00  0.00    -0.503 OA
ATOM     47  H   UNL     1       5.844  -4.130  20.977  0.00  0.00    +0.292 HD
ENDBRANCH  42  46
BRANCH  43  48
ATOM     48  O   UNL     1       5.308  -6.192  21.571  0.00  0.00    -0.501 OA
ATOM     49  H   UNL     1       5.482  -5.497  20.900  0.00  0.00    +0.292 HD
ENDBRANCH  43  48
BRANCH  44  50
ATOM     50  O   UNL     1       4.671  -7.522  23.837  0.00  0.00    -0.503 OA
ATOM     51  H   UNL     1       4.173  -7.867  24.600  0.00  0.00    +0.292 HD
ENDBRANCH  44  50
ENDBRANCH  38  40
ENDBRANCH  37  38
ENDBRANCH  30  37
ENDBRANCH   1  29
TORSDOF 15
ENDMDL
MODEL 2
REMARK VINA RESULT:      -7.3      2.115      8.304
REMARK  Name = 
REMARK  15 active torsions:
REMARK  status: ('A' for Active; 'I' for Inactive)
REMARK    1  A    between atoms: C_2  and  O_45
REMARK    2  A    between atoms: C_4  and  O_44
REMARK    3  A    between atoms: C_5  and  O_32
REMARK    4  A    between atoms: C_7  and  O_10
REMARK    5  A    between atoms: O_10  and  C_11
REMARK    6  A    between atoms: C_12  and  C_24
REMARK    7  A    between atoms: C_16  and  O_23
REMARK    8  A    between atoms: C_18  and  O_22
REMARK    9  A    between atoms: C_26  and  O_31
REMARK   10  A    between atoms: C_27  and  O_30
REMARK   11  A    between atoms: O_32  and  C_33
REMARK   12  A    between atoms: C_33  and  C_35
REMARK   13  A    between atoms: C_37  and  O_43
REMARK   14  A    between atoms: C_38  and  O_42
REMARK   15  A    between atoms: C_39  and  O_41
REMARK                            x       y       z     vdW  Elec       q    Type
REMARK                         _______ _______ _______ _____ _____    ______ ____
ROOT
ATOM      1  O   UNL     1       6.403  -0.791  23.251  0.00  0.00    -0.452 OA
ENDROOT
BRANCH   1   2
ATOM      2  C   UNL     1       5.893  -1.955  23.811  0.00  0.00    +0.214 A 
ATOM      3  C   UNL     1       5.537  -3.149  22.965  0.00  0.00    +0.238 A 
ATOM      4  O   UNL     1       5.470  -3.086  21.743  0.00  0.00    -0.283 OA
ATOM      5  C   UNL     1       5.206  -4.402  23.665  0.00  0.00    +0.109 A 
ATOM      6  C   UNL     1       5.027  -4.343  25.044  0.00  0.00    +0.147 A 
ATOM      7  C   UNL     1       4.635  -5.481  25.757  0.00  0.00    +0.092 A 
ATOM      8  C   UNL     1       4.434  -6.679  25.077  0.00  0.00    +0.124 A 
ATOM      9  C   UNL     1       4.635  -6.762  23.705  0.00  0.00    +0.091 A 
ATOM     10  O   UNL     1       5.210  -3.197  25.772  0.00  0.00    -0.451 OA
ATOM     11  C   UNL     1       5.027  -5.625  23.000  0.00  0.00    +0.135 A 
ATOM     12  C   UNL     1       5.703  -2.053  25.148  0.00  0.00    +0.181 A 
BRANCH  12  13
ATOM     13  C   UNL     1       5.939  -0.940  26.126  0.00  0.00    +0.025 A 
ATOM     14  C   UNL     1       4.963   0.071  26.276  0.00  0.00    +0.015 A 
ATOM     15  C   UNL     1       5.126   1.134  27.173  0.00  0.00    +0.050 A 
ATOM     16  C   UNL     1       6.278   1.199  27.936  0.00  0.00    +0.158 A 
ATOM     17  C   UNL     1       7.256   0.222  27.817  0.00  0.00    +0.159 A 
ATOM     18  C   UNL     1       7.090  -0.846  26.934  0.00  0.00    +0.060 A 
BRANCH  16  19
ATOM     19  O   UNL     1       6.469   2.258  28.777  0.00  0.00    -0.503 OA
ATOM     20  H   UNL     1       6.459   1.871  29.677  0.00  0.00    +0.292 HD
ENDBRANCH  16  19
BRANCH  17  21
ATOM     21  O   UNL     1       8.389   0.376  28.567  0.00  0.00    -0.503 OA
ATOM     22  H   UNL     1       8.228  -0.000  29.452  0.00  0.00    +0.292 HD
ENDBRANCH  17  21
ENDBRANCH  12  13
BRANCH   8  23
ATOM     23  O   UNL     1       4.037  -7.814  25.719  0.00  0.00    -0.507 OA
ATOM     24  H   UNL     1       4.028  -7.655  26.678  0.00  0.00    +0.292 HD
ENDBRANCH   8  23
BRANCH  11  25
ATOM     25  O   UNL     1       5.248  -5.736  21.656  0.00  0.00    -0.506 OA
ATOM     26  H   UNL     1       5.441  -6.658  21.419  0.00  0.00    +0.292 HD
ENDBRANCH  11  25
ENDBRANCH   1   2
BRANCH   1  29
ATOM     27  C   UNL     1       9.869  -1.714  22.722  0.00  0.00    +0.198 C 
ATOM     28  O   UNL     1       8.628  -1.529  23.415  0.00  0.00    -0.336 OA
ATOM     29  C   UNL     1       7.671  -0.840  22.591  0.00  0.00    +0.352 C 
ATOM     30  C   UNL     1       8.167   0.617  22.431  0.00  0.00    +0.276 C 
ATOM     31  C   UNL     1       9.564   0.609  21.775  0.00  0.00    +0.192 C 
ATOM     32  C   UNL     1      10.514  -0.343  22.524  0.00  0.00    +0.172 C 
BRANCH  31  33
ATOM     33  O   UNL     1      10.115   1.934  21.784  0.00  0.00    -0.385 OA
ATOM     34  H   UNL     1      11.043   1.829  22.076  0.00  0.00    +0.210 HD
ENDBRANCH  31  33
BRANCH  32  35
ATOM     35  O   UNL     1      10.801   0.247  23.810  0.00  0.00    -0.387 OA
ATOM     36  H   UNL     1      10.048   0.030  24.395  0.00  0.00    +0.210 HD
ENDBRANCH  32  35
BRANCH  30  37
ATOM     37  O   UNL     1       7.208   1.498  21.786  0.00  0.00    -0.449 OA
BRANCH  37  38
ATOM     38  C   UNL     1       6.428   2.276  22.569  0.00  0.00    +0.340 C 
ATOM     39  O   UNL     1       5.208   2.252  22.605  0.00  0.00    -0.245 OA
BRANCH  38  40
ATOM     40  C   UNL     1       7.245   3.170  23.430  0.00  0.00    +0.066 A 
ATOM     41  C   UNL     1       7.974   4.189  22.799  0.00  0.00    +0.064 A 
ATOM     42  C   UNL     1       8.651   5.121  23.572  0.00  0.00    +0.163 A 
ATOM     43  C   UNL     1       8.620   5.042  24.956  0.00  0.00    +0.201 A 
ATOM     44  C   UNL     1       7.931   4.011  25.587  0.00  0.00    +0.163 A 
ATOM     45  C   UNL     1       7.244   3.063  24.833  0.00  0.00    +0.064 A 
BRANCH  42  46
ATOM     46  O   UNL     1       9.328   6.136  22.962  0.00  0.00    -0.503 OA
ATOM     47  H   UNL     1       9.954   5.690  22.357  0.00  0.00    +0.292 HD
ENDBRANCH  42  46
BRANCH  43  48
ATOM     48  O   UNL     1       9.259   6.003  25.693  0.00  0.00    -0.501 OA
ATOM     49  H   UNL     1       8.608   6.244  26.386  0.00  0.00    +0.292 HD
ENDBRANCH  43  48
BRANCH  44  50
ATOM     50  O   UNL     1       7.954   3.998  26.953  0.00  0.00    -0.503 OA
ATOM     51  H   UNL     1       8.577   3.316  27.264  0.00  0.00    +0.292 HD
ENDBRANCH  44  50
ENDBRANCH  38  40
ENDBRANCH  37  38
ENDBRANCH  30  37
ENDBRANCH   1  29
TORSDOF 15
ENDMDL
MODEL 3
REMARK VINA RESULT:      -7.1      2.175      5.910
REMARK  Name = 
REMARK  15 active torsions:
REMARK  status: ('A' for Active; 'I' for Inactive)
REMARK    1  A    between atoms: C_2  and  O_45
REMARK    2  A    between atoms: C_4  and  O_44
REMARK    3  A    between atoms: C_5  and  O_32
REMARK    4  A    between atoms: C_7  and  O_10
REMARK    5  A    between atoms: O_10  and  C_11
REMARK    6  A    between atoms: C_12  and  C_24
REMARK    7  A    between atoms: C_16  and  O_23
REMARK    8  A    between atoms: C_18  and  O_22
REMARK    9  A    between atoms: C_26  and  O_31
REMARK   10  A    between atoms: C_27  and  O_30
REMARK   11  A    between atoms: O_32  and  C_33
REMARK   12  A    between atoms: C_33  and  C_35
REMARK   13  A    between atoms: C_37  and  O_43
REMARK   14  A    between atoms: C_38  and  O_42
REMARK   15  A    between atoms: C_39  and  O_41
REMARK                            x       y       z     vdW  Elec       q    Type
REMARK                         _______ _______ _______ _____ _____    ______ ____
ROOT
ATOM      1  O   UNL     1       5.226  -3.020  24.345  0.00  0.00    -0.452 OA
ENDROOT
BRANCH   1   2
ATOM      2  C   UNL     1       5.711  -1.929  25.054  0.00  0.00    +0.214 A 
ATOM      3  C   UNL     1       6.158  -0.670  24.359  0.00  0.00    +0.238 A 
ATOM      4  O   UNL     1       6.324  -0.618  23.146  0.00  0.00    -0.283 OA
ATOM      5  C   UNL     1       6.456   0.501  25.201  0.00  0.00    +0.109 A 
ATOM      6  C   UNL     1       6.521   0.306  26.577  0.00  0.00    +0.147 A 
ATOM      7  C   UNL     1       6.876   1.360  27.427  0.00  0.00    +0.092 A 
ATOM      8  C   UNL     1       7.156   2.611  26.884  0.00  0.00    +0.124 A 
ATOM      9  C   UNL     1       7.069   2.830  25.515  0.00  0.00    +0.091 A 
ATOM     10  O   UNL     1       6.257  -0.899  27.174  0.00  0.00    -0.451 OA
ATOM     11  C   UNL     1       6.713   1.776  24.674  0.00  0.00    +0.135 A 
ATOM     12  C   UNL     1       5.794  -1.964  26.404  0.00  0.00    +0.181 A 
BRANCH  12  13
ATOM     13  C   UNL     1       5.457  -3.158  27.249  0.00  0.00    +0.025 A 
ATOM     14  C   UNL     1       4.170  -3.263  27.822  0.00  0.00    +0.015 A 
ATOM     15  C   UNL     1       3.798  -4.353  28.619  0.00  0.00    +0.050 A 
ATOM     16  C   UNL     1       4.717  -5.360  28.852  0.00  0.00    +0.158 A 
ATOM     17  C   UNL     1       5.990  -5.291  28.301  0.00  0.00    +0.159 A 
ATOM     18  C   UNL     1       6.359  -4.213  27.497  0.00  0.00    +0.060 A 
BRANCH  16  19
ATOM     19  O   UNL     1       4.382  -6.403  29.667  0.00  0.00    -0.503 OA
ATOM     20  H   UNL     1       4.255  -7.165  29.064  0.00  0.00    +0.292 HD
ENDBRANCH  16  19
BRANCH  17  21
ATOM     21  O   UNL     1       6.862  -6.298  28.614  0.00  0.00    -0.503 OA
ATOM     22  H   UNL     1       7.768  -5.993  28.423  0.00  0.00    +0.292 HD
ENDBRANCH  17  21
ENDBRANCH  12  13
BRANCH   8  23
ATOM     23  O   UNL     1       7.521   3.668  27.663  0.00  0.00    -0.507 OA
ATOM     24  H   UNL     1       8.279   4.121  27.257  0.00  0.00    +0.292 HD
ENDBRANCH   8  23
BRANCH  11  25
ATOM     25  O   UNL     1       6.604   2.021  23.334  0.00  0.00    -0.506 OA
ATOM     26  H   UNL     1       5.917   1.459  22.940  0.00  0.00    +0.292 HD
ENDBRANCH  11  25
ENDBRANCH   1   2
BRANCH   1  29
ATOM     27  C   UNL     1       5.744  -4.400  21.033  0.00  0.00    +0.198 C 
ATOM     28  O   UNL     1       5.056  -4.050  22.241  0.00  0.00    -0.336 OA
ATOM     29  C   UNL     1       5.958  -3.486  23.208  0.00  0.00    +0.352 C 
ATOM     30  C   UNL     1       6.888  -4.624  23.690  0.00  0.00    +0.276 C 
ATOM     31  C   UNL     1       7.655  -5.199  22.480  0.00  0.00    +0.192 C 
ATOM     32  C   UNL     1       6.687  -5.564  21.340  0.00  0.00    +0.172 C 
BRANCH  31  33
ATOM     33  O   UNL     1       8.383  -6.371  22.876  0.00  0.00    -0.385 OA
ATOM     34  H   UNL     1       7.765  -7.119  22.750  0.00  0.00    +0.210 HD
ENDBRANCH  31  33
BRANCH  32  35
ATOM     35  O   UNL     1       5.919  -6.709  21.767  0.00  0.00    -0.387 OA
ATOM     36  H   UNL     1       5.887  -6.680  22.745  0.00  0.00    +0.210 HD
ENDBRANCH  32  35
BRANCH  30  37
ATOM     37  O   UNL     1       7.732  -4.260  24.815  0.00  0.00    -0.449 OA
BRANCH  37  38
ATOM     38  C   UNL     1       9.043  -4.028  24.582  0.00  0.00    +0.340 C 
ATOM     39  O   UNL     1       9.940  -4.849  24.691  0.00  0.00    -0.245 OA
BRANCH  38  40
ATOM     40  C   UNL     1       9.275  -2.631  24.136  0.00  0.00    +0.066 A 
ATOM     41  C   UNL     1       9.482  -1.660  25.127  0.00  0.00    +0.064 A 
ATOM     42  C   UNL     1       9.824  -0.368  24.755  0.00  0.00    +0.163 A 
ATOM     43  C   UNL     1       9.951  -0.033  23.414  0.00  0.00    +0.201 A 
ATOM     44  C   UNL     1       9.709  -0.982  22.426  0.00  0.00    +0.163 A 
ATOM     45  C   UNL     1       9.363  -2.285  22.775  0.00  0.00    +0.064 A 
BRANCH  42  46
ATOM     46  O   UNL     1      10.065   0.568  25.717  0.00  0.00    -0.503 OA
ATOM     47  H   UNL     1      10.865   1.040  25.411  0.00  0.00    +0.292 HD
ENDBRANCH  42  46
BRANCH  43  48
ATOM     48  O   UNL     1      10.335   1.237  23.078  0.00  0.00    -0.501 OA
ATOM     49  H   UNL     1      10.779   1.574  23.886  0.00  0.00    +0.292 HD
ENDBRANCH  43  48
BRANCH  44  50
ATOM     50  O   UNL     1       9.846  -0.572  21.130  0.00  0.00    -0.503 OA
ATOM     51  H   UNL     1       9.156   0.083  20.918  0.00  0.00    +0.292 HD
ENDBRANCH  44  50
ENDBRANCH  38  40
ENDBRANCH  37  38
ENDBRANCH  30  37
ENDBRANCH   1  29
TORSDOF 15
ENDMDL
MODEL 4
REMARK VINA RESULT:      -6.8      1.844      7.659
REMARK  Name = 
REMARK  15 active torsions:
REMARK  status: ('A' for Active; 'I' for Inactive)
REMARK    1  A    between atoms: C_2  and  O_45
REMARK    2  A    between atoms: C_4  and  O_44
REMARK    3  A    between atoms: C_5  and  O_32
REMARK    4  A    between atoms: C_7  and  O_10
REMARK    5  A    between atoms: O_10  and  C_11
REMARK    6  A    between atoms: C_12  and  C_24
REMARK    7  A    between atoms: C_16  and  O_23
REMARK    8  A    between atoms: C_18  and  O_22
REMARK    9  A    between atoms: C_26  and  O_31
REMARK   10  A    between atoms: C_27  and  O_30
REMARK   11  A    between atoms: O_32  and  C_33
REMARK   12  A    between atoms: C_33  and  C_35
REMARK   13  A    between atoms: C_37  and  O_43
REMARK   14  A    between atoms: C_38  and  O_42
REMARK   15  A    between atoms: C_39  and  O_41
REMARK                            x       y       z     vdW  Elec       q    Type
REMARK                         _______ _______ _______ _____ _____    ______ ____
ROOT
ATOM      1  O   UNL     1       7.390  -0.182  25.772  0.00  0.00    -0.452 OA
ENDROOT
BRANCH   1   2
ATOM      2  C   UNL     1       7.138  -1.137  24.797  0.00  0.00    +0.214 A 
ATOM      3  C   UNL     1       7.252  -2.611  25.086  0.00  0.00    +0.238 A 
ATOM      4  O   UNL     1       7.775  -3.036  26.109  0.00  0.00    -0.283 OA
ATOM      5  C   UNL     1       6.764  -3.543  24.056  0.00  0.00    +0.109 A 
ATOM      6  C   UNL     1       6.441  -3.017  22.809  0.00  0.00    +0.147 A 
ATOM      7  C   UNL     1       6.047  -3.860  21.764  0.00  0.00    +0.092 A 
ATOM      8  C   UNL     1       5.970  -5.233  21.985  0.00  0.00    +0.124 A 
ATOM      9  C   UNL     1       6.262  -5.772  23.231  0.00  0.00    +0.091 A 
ATOM     10  O   UNL     1       6.496  -1.678  22.528  0.00  0.00    -0.451 OA
ATOM     11  C   UNL     1       6.653  -4.927  24.269  0.00  0.00    +0.135 A 
ATOM     12  C   UNL     1       6.776  -0.769  23.546  0.00  0.00    +0.181 A 
BRANCH  12  13
ATOM     13  C   UNL     1       6.682   0.651  23.069  0.00  0.00    +0.025 A 
ATOM     14  C   UNL     1       7.604   1.124  22.109  0.00  0.00    +0.015 A 
ATOM     15  C   UNL     1       7.567   2.438  21.626  0.00  0.00    +0.050 A 
ATOM     16  C   UNL     1       6.597   3.302  22.103  0.00  0.00    +0.158 A 
ATOM     17  C   UNL     1       5.673   2.870  23.044  0.00  0.00    +0.159 A 
ATOM     18  C   UNL     1       5.699   1.558  23.517  0.00  0.00    +0.060 A 
BRANCH  16  19
ATOM     19  O   UNL     1       6.582   4.598  21.675  0.00  0.00    -0.503 OA
ATOM     20  H   UNL     1       5.798   4.664  21.093  0.00  0.00    +0.292 HD
ENDBRANCH  16  19
BRANCH  17  21
ATOM     21  O   UNL     1       4.773   3.792  23.505  0.00  0.00    -0.503 OA
ATOM     22  H   UNL     1       4.465   4.327  22.752  0.00  0.00    +0.292 HD
ENDBRANCH  17  21
ENDBRANCH  12  13
BRANCH   8  23
ATOM     23  O   UNL     1       5.605  -6.100  20.999  0.00  0.00    -0.507 OA
ATOM     24  H   UNL     1       4.722  -6.456  21.192  0.00  0.00    +0.292 HD
ENDBRANCH   8  23
BRANCH  11  25
ATOM     25  O   UNL     1       6.906  -5.475  25.494  0.00  0.00    -0.506 OA
ATOM     26  H   UNL     1       6.990  -4.780  26.167  0.00  0.00    +0.292 HD
ENDBRANCH  11  25
ENDBRANCH   1   2
BRANCH   1  29
ATOM     27  C   UNL     1       4.391  -0.794  27.717  0.00  0.00    +0.198 C 
ATOM     28  O   UNL     1       5.279  -0.809  26.591  0.00  0.00    -0.336 OA
ATOM     29  C   UNL     1       6.463  -0.036  26.853  0.00  0.00    +0.352 C 
ATOM     30  C   UNL     1       6.041   1.451  26.904  0.00  0.00    +0.276 C 
ATOM     31  C   UNL     1       4.992   1.642  28.020  0.00  0.00    +0.192 C 
ATOM     32  C   UNL     1       3.845   0.626  27.875  0.00  0.00    +0.172 C 
BRANCH  31  33
ATOM     33  O   UNL     1       4.456   2.972  27.964  0.00  0.00    -0.385 OA
ATOM     34  H   UNL     1       4.973   3.491  28.614  0.00  0.00    +0.210 HD
ENDBRANCH  31  33
BRANCH  32  35
ATOM     35  O   UNL     1       3.087   0.985  26.700  0.00  0.00    -0.387 OA
ATOM     36  H   UNL     1       3.047   0.188  26.134  0.00  0.00    +0.210 HD
ENDBRANCH  32  35
BRANCH  30  37
ATOM     37  O   UNL     1       7.157   2.379  26.966  0.00  0.00    -0.449 OA
BRANCH  37  38
ATOM     38  C   UNL     1       7.089   3.509  26.228  0.00  0.00    +0.340 C 
ATOM     39  O   UNL     1       6.189   4.334  26.272  0.00  0.00    -0.245 OA
BRANCH  38  40
ATOM     40  C   UNL     1       8.281   3.659  25.354  0.00  0.00    +0.066 A 
ATOM     41  C   UNL     1       9.020   2.503  25.063  0.00  0.00    +0.064 A 
ATOM     42  C   UNL     1      10.066   2.573  24.155  0.00  0.00    +0.163 A 
ATOM     43  C   UNL     1      10.387   3.778  23.545  0.00  0.00    +0.201 A 
ATOM     44  C   UNL     1       9.683   4.935  23.859  0.00  0.00    +0.163 A 
ATOM     45  C   UNL     1       8.629   4.890  24.769  0.00  0.00    +0.064 A 
BRANCH  42  46
ATOM     46  O   UNL     1      10.761   1.443  23.840  0.00  0.00    -0.503 OA
ATOM     47  H   UNL     1      11.626   1.551  24.284  0.00  0.00    +0.292 HD
ENDBRANCH  42  46
BRANCH  43  48
ATOM     48  O   UNL     1      11.394   3.807  22.618  0.00  0.00    -0.501 OA
ATOM     49  H   UNL     1      12.046   4.437  22.993  0.00  0.00    +0.292 HD
ENDBRANCH  43  48
BRANCH  44  50
ATOM     50  O   UNL     1      10.065   6.083  23.223  0.00  0.00    -0.503 OA
ATOM     51  H   UNL     1       9.280   6.624  23.023  0.00  0.00    +0.292 HD
ENDBRANCH  44  50
ENDBRANCH  38  40
ENDBRANCH  37  38
ENDBRANCH  30  37
ENDBRANCH   1  29
TORSDOF 15
ENDMDL
MODEL 5
REMARK VINA RESULT:      -6.8      2.152      6.661
REMARK  Name = 
REMARK  15 active torsions:
REMARK  status: ('A' for Active; 'I' for Inactive)
REMARK    1  A    between atoms: C_2  and  O_45
REMARK    2  A    between atoms: C_4  and  O_44
REMARK    3  A    between atoms: C_5  and  O_32
REMARK    4  A    between atoms: C_7  and  O_10
REMARK    5  A    between atoms: O_10  and  C_11
REMARK    6  A    between atoms: C_12  and  C_24
REMARK    7  A    between atoms: C_16  and  O_23
REMARK    8  A    between atoms: C_18  and  O_22
REMARK    9  A    between atoms: C_26  and  O_31
REMARK   10  A    between atoms: C_27  and  O_30
REMARK   11  A    between atoms: O_32  and  C_33
REMARK   12  A    between atoms: C_33  and  C_35
REMARK   13  A    between atoms: C_37  and  O_43
REMARK   14  A    between atoms: C_38  and  O_42
REMARK   15  A    between atoms: C_39  and  O_41
REMARK                            x       y       z     vdW  Elec       q    Type
REMARK                         _______ _______ _______ _____ _____    ______ ____
ROOT
ATOM      1  O   UNL     1       7.071  -3.632  25.354  0.00  0.00    -0.452 OA
ENDROOT
BRANCH   1   2
ATOM      2  C   UNL     1       6.707  -2.606  26.215  0.00  0.00    +0.214 A 
ATOM      3  C   UNL     1       7.402  -1.270  26.192  0.00  0.00    +0.238 A 
ATOM      4  O   UNL     1       8.449  -1.090  25.581  0.00  0.00    -0.283 OA
ATOM      5  C   UNL     1       6.810  -0.184  26.990  0.00  0.00    +0.109 A 
ATOM      6  C   UNL     1       5.791  -0.516  27.877  0.00  0.00    +0.147 A 
ATOM      7  C   UNL     1       5.240   0.456  28.721  0.00  0.00    +0.092 A 
ATOM      8  C   UNL     1       5.714   1.763  28.659  0.00  0.00    +0.124 A 
ATOM      9  C   UNL     1       6.712   2.118  27.760  0.00  0.00    +0.091 A 
ATOM     10  O   UNL     1       5.280  -1.782  27.987  0.00  0.00    -0.451 OA
ATOM     11  C   UNL     1       7.256   1.146  26.921  0.00  0.00    +0.135 A 
ATOM     12  C   UNL     1       5.703  -2.776  27.106  0.00  0.00    +0.181 A 
BRANCH  12  13
ATOM     13  C   UNL     1       4.952  -4.060  27.310  0.00  0.00    +0.025 A 
ATOM     14  C   UNL     1       3.583  -4.126  26.967  0.00  0.00    +0.015 A 
ATOM     15  C   UNL     1       2.831  -5.295  27.135  0.00  0.00    +0.050 A 
ATOM     16  C   UNL     1       3.445  -6.421  27.652  0.00  0.00    +0.158 A 
ATOM     17  C   UNL     1       4.789  -6.393  27.997  0.00  0.00    +0.159 A 
ATOM     18  C   UNL     1       5.545  -5.234  27.819  0.00  0.00    +0.060 A 
BRANCH  16  19
ATOM     19  O   UNL     1       2.709  -7.551  27.866  0.00  0.00    -0.503 OA
ATOM     20  H   UNL     1       3.190  -8.038  28.567  0.00  0.00    +0.292 HD
ENDBRANCH  16  19
BRANCH  17  21
ATOM     21  O   UNL     1       5.318  -7.528  28.547  0.00  0.00    -0.503 OA
ATOM     22  H   UNL     1       4.770  -7.787  29.310  0.00  0.00    +0.292 HD
ENDBRANCH  17  21
ENDBRANCH  12  13
BRANCH   8  23
ATOM     23  O   UNL     1       5.224   2.745  29.467  0.00  0.00    -0.507 OA
ATOM     24  H   UNL     1       5.469   2.557  30.389  0.00  0.00    +0.292 HD
ENDBRANCH   8  23
BRANCH  11  25
ATOM     25  O   UNL     1       8.214   1.523  26.024  0.00  0.00    -0.506 OA
ATOM     26  H   UNL     1       8.839   2.143  26.435  0.00  0.00    +0.292 HD
ENDBRANCH  11  25
ENDBRANCH   1   2
BRANCH   1  29
ATOM     27  C   UNL     1       5.036  -6.150  23.722  0.00  0.00    +0.198 C 
ATOM     28  O   UNL     1       6.099  -5.597  24.508  0.00  0.00    -0.336 OA
ATOM     29  C   UNL     1       6.091  -4.160  24.454  0.00  0.00    +0.352 C 
ATOM     30  C   UNL     1       6.509  -3.751  23.022  0.00  0.00    +0.276 C 
ATOM     31  C   UNL     1       5.510  -4.352  22.011  0.00  0.00    +0.192 C 
ATOM     32  C   UNL     1       5.331  -5.862  22.249  0.00  0.00    +0.172 C 
BRANCH  31  33
ATOM     33  O   UNL     1       5.981  -4.136  20.672  0.00  0.00    -0.385 OA
ATOM     34  H   UNL     1       5.243  -4.405  20.088  0.00  0.00    +0.210 HD
ENDBRANCH  31  33
BRANCH  32  35
ATOM     35  O   UNL     1       6.560  -6.515  21.866  0.00  0.00    -0.387 OA
ATOM     36  H   UNL     1       7.273  -5.851  21.956  0.00  0.00    +0.210 HD
ENDBRANCH  32  35
BRANCH  30  37
ATOM     37  O   UNL     1       6.740  -2.325  22.860  0.00  0.00    -0.449 OA
BRANCH  37  38
ATOM     38  C   UNL     1       7.972  -1.916  22.486  0.00  0.00    +0.340 C 
ATOM     39  O   UNL     1       8.925  -2.646  22.260  0.00  0.00    -0.245 OA
BRANCH  38  40
ATOM     40  C   UNL     1       8.034  -0.439  22.345  0.00  0.00    +0.066 A 
ATOM     41  C   UNL     1       6.917   0.299  22.761  0.00  0.00    +0.064 A 
ATOM     42  C   UNL     1       6.977   1.685  22.764  0.00  0.00    +0.163 A 
ATOM     43  C   UNL     1       8.128   2.339  22.348  0.00  0.00    +0.201 A 
ATOM     44  C   UNL     1       9.226   1.613  21.898  0.00  0.00    +0.163 A 
ATOM     45  C   UNL     1       9.189   0.221  21.885  0.00  0.00    +0.064 A 
BRANCH  42  46
ATOM     46  O   UNL     1       5.906   2.404  23.205  0.00  0.00    -0.503 OA
ATOM     47  H   UNL     1       5.125   1.893  22.913  0.00  0.00    +0.292 HD
ENDBRANCH  42  46
BRANCH  43  48
ATOM     48  O   UNL     1       8.175   3.706  22.405  0.00  0.00    -0.501 OA
ATOM     49  H   UNL     1       8.631   3.964  21.576  0.00  0.00    +0.292 HD
ENDBRANCH  43  48
BRANCH  44  50
ATOM     50  O   UNL     1      10.319   2.330  21.499  0.00  0.00    -0.503 OA
ATOM     51  H   UNL     1      11.123   1.953  21.900  0.00  0.00    +0.292 HD
ENDBRANCH  44  50
ENDBRANCH  38  40
ENDBRANCH  37  38
ENDBRANCH  30  37
ENDBRANCH   1  29
TORSDOF 15
ENDMDL
MODEL 6
REMARK VINA RESULT:      -6.7      2.248      6.308
REMARK  Name = 
REMARK  15 active torsions:
REMARK  status: ('A' for Active; 'I' for Inactive)
REMARK    1  A    between atoms: C_2  and  O_45
REMARK    2  A    between atoms: C_4  and  O_44
REMARK    3  A    between atoms: C_5  and  O_32
REMARK    4  A    between atoms: C_7  and  O_10
REMARK    5  A    between atoms: O_10  and  C_11
REMARK    6  A    between atoms: C_12  and  C_24
REMARK    7  A    between atoms: C_16  and  O_23
REMARK    8  A    between atoms: C_18  and  O_22
REMARK    9  A    between atoms: C_26  and  O_31
REMARK   10  A    between atoms: C_27  and  O_30
REMARK   11  A    between atoms: O_32  and  C_33
REMARK   12  A    between atoms: C_33  and  C_35
REMARK   13  A    between atoms: C_37  and  O_43
REMARK   14  A    between atoms: C_38  and  O_42
REMARK   15  A    between atoms: C_39  and  O_41
REMARK                            x       y       z     vdW  Elec       q    Type
REMARK                         _______ _______ _______ _____ _____    ______ ____
ROOT
ATOM      1  O   UNL     1       4.909  -3.426  24.620  0.00  0.00    -0.452 OA
ENDROOT
BRANCH   1   2
ATOM      2  C   UNL     1       5.199  -2.387  25.494  0.00  0.00    +0.214 A 
ATOM      3  C   UNL     1       5.638  -1.035  24.997  0.00  0.00    +0.238 A 
ATOM      4  O   UNL     1       5.969  -0.844  23.833  0.00  0.00    -0.283 OA
ATOM      5  C   UNL     1       5.718   0.056  25.982  0.00  0.00    +0.109 A 
ATOM      6  C   UNL     1       5.603  -0.279  27.327  0.00  0.00    +0.147 A 
ATOM      7  C   UNL     1       5.748   0.700  28.317  0.00  0.00    +0.092 A 
ATOM      8  C   UNL     1       6.000   2.017  27.944  0.00  0.00    +0.124 A 
ATOM      9  C   UNL     1       6.092   2.374  26.605  0.00  0.00    +0.091 A 
ATOM     10  O   UNL     1       5.354  -1.554  27.760  0.00  0.00    -0.451 OA
ATOM     11  C   UNL     1       5.944   1.395  25.623  0.00  0.00    +0.135 A 
ATOM     12  C   UNL     1       5.092  -2.560  26.832  0.00  0.00    +0.181 A 
BRANCH  12  13
ATOM     13  C   UNL     1       4.736  -3.857  27.498  0.00  0.00    +0.025 A 
ATOM     14  C   UNL     1       5.766  -4.709  27.955  0.00  0.00    +0.015 A 
ATOM     15  C   UNL     1       5.496  -5.931  28.583  0.00  0.00    +0.050 A 
ATOM     16  C   UNL     1       4.181  -6.317  28.765  0.00  0.00    +0.158 A 
ATOM     17  C   UNL     1       3.143  -5.503  28.332  0.00  0.00    +0.159 A 
ATOM     18  C   UNL     1       3.408  -4.279  27.717  0.00  0.00    +0.060 A 
BRANCH  16  19
ATOM     19  O   UNL     1       3.907  -7.528  29.332  0.00  0.00    -0.503 OA
ATOM     20  H   UNL     1       4.751  -8.024  29.292  0.00  0.00    +0.292 HD
ENDBRANCH  16  19
BRANCH  17  21
ATOM     21  O   UNL     1       1.869  -5.971  28.501  0.00  0.00    -0.503 OA
ATOM     22  H   UNL     1       1.877  -6.939  28.388  0.00  0.00    +0.292 HD
ENDBRANCH  17  21
ENDBRANCH  12  13
BRANCH   8  23
ATOM     23  O   UNL     1       6.165   3.007  28.866  0.00  0.00    -0.507 OA
ATOM     24  H   UNL     1       7.109   3.095  29.080  0.00  0.00    +0.292 HD
ENDBRANCH   8  23
BRANCH  11  25
ATOM     25  O   UNL     1       6.008   1.773  24.312  0.00  0.00    -0.506 OA
ATOM     26  H   UNL     1       6.932   1.881  24.034  0.00  0.00    +0.292 HD
ENDBRANCH  11  25
ENDBRANCH   1   2
BRANCH   1  29
ATOM     27  C   UNL     1       5.726  -3.947  21.126  0.00  0.00    +0.198 C 
ATOM     28  O   UNL     1       4.929  -3.888  22.316  0.00  0.00    -0.336 OA
ATOM     29  C   UNL     1       5.741  -3.616  23.472  0.00  0.00    +0.352 C 
ATOM     30  C   UNL     1       6.609  -4.871  23.731  0.00  0.00    +0.276 C 
ATOM     31  C   UNL     1       7.482  -5.149  22.489  0.00  0.00    +0.192 C 
ATOM     32  C   UNL     1       6.623  -5.182  21.212  0.00  0.00    +0.172 C 
BRANCH  31  33
ATOM     33  O   UNL     1       8.156  -6.407  22.639  0.00  0.00    -0.385 OA
ATOM     34  H   UNL     1       7.456  -7.089  22.577  0.00  0.00    +0.210 HD
ENDBRANCH  31  33
BRANCH  32  35
ATOM     35  O   UNL     1       5.805  -6.371  21.264  0.00  0.00    -0.387 OA
ATOM     36  H   UNL     1       6.267  -7.056  20.740  0.00  0.00    +0.210 HD
ENDBRANCH  32  35
BRANCH  30  37
ATOM     37  O   UNL     1       7.345  -4.830  24.983  0.00  0.00    -0.449 OA
BRANCH  37  38
ATOM     38  C   UNL     1       8.659  -4.516  24.942  0.00  0.00    +0.340 C 
ATOM     39  O   UNL     1       9.578  -5.314  24.840  0.00  0.00    -0.245 OA
BRANCH  38  40
ATOM     40  C   UNL     1       8.867  -3.047  25.004  0.00  0.00    +0.066 A 
ATOM     41  C   UNL     1       8.761  -2.430  26.259  0.00  0.00    +0.064 A 
ATOM     42  C   UNL     1       9.068  -1.083  26.385  0.00  0.00    +0.163 A 
ATOM     43  C   UNL     1       9.466  -0.346  25.279  0.00  0.00    +0.201 A 
ATOM     44  C   UNL     1       9.535  -0.944  24.024  0.00  0.00    +0.163 A 
ATOM     45  C   UNL     1       9.230  -2.294  23.873  0.00  0.00    +0.064 A 
BRANCH  42  46
ATOM     46  O   UNL     1       9.005  -0.490  27.612  0.00  0.00    -0.503 OA
ATOM     47  H   UNL     1       9.448   0.375  27.494  0.00  0.00    +0.292 HD
ENDBRANCH  42  46
BRANCH  43  48
ATOM     48  O   UNL     1       9.807   0.969  25.442  0.00  0.00    -0.501 OA
ATOM     49  H   UNL     1       9.246   1.444  24.792  0.00  0.00    +0.292 HD
ENDBRANCH  43  48
BRANCH  44  50
ATOM     50  O   UNL     1       9.927  -0.149  22.983  0.00  0.00    -0.503 OA
ATOM     51  H   UNL     1      10.839   0.160  23.132  0.00  0.00    +0.292 HD
ENDBRANCH  44  50
ENDBRANCH  38  40
ENDBRANCH  37  38
ENDBRANCH  30  37
ENDBRANCH   1  29
TORSDOF 15
ENDMDL
MODEL 7
REMARK VINA RESULT:      -6.7      1.894      7.463
REMARK  Name = 
REMARK  15 active torsions:
REMARK  status: ('A' for Active; 'I' for Inactive)
REMARK    1  A    between atoms: C_2  and  O_45
REMARK    2  A    between atoms: C_4  and  O_44
REMARK    3  A    between atoms: C_5  and  O_32
REMARK    4  A    between atoms: C_7  and  O_10
REMARK    5  A    between atoms: O_10  and  C_11
REMARK    6  A    between atoms: C_12  and  C_24
REMARK    7  A    between atoms: C_16  and  O_23
REMARK    8  A    between atoms: C_18  and  O_22
REMARK    9  A    between atoms: C_26  and  O_31
REMARK   10  A    between atoms: C_27  and  O_30
REMARK   11  A    between atoms: O_32  and  C_33
REMARK   12  A    between atoms: C_33  and  C_35
REMARK   13  A    between atoms: C_37  and  O_43
REMARK   14  A    between atoms: C_38  and  O_42
REMARK   15  A    between atoms: C_39  and  O_41
REMARK                            x       y       z     vdW  Elec       q    Type
REMARK                         _______ _______ _______ _____ _____    ______ ____
ROOT
ATOM      1  O   UNL     1       7.910  -1.054  26.380  0.00  0.00    -0.452 OA
ENDROOT
BRANCH   1   2
ATOM      2  C   UNL     1       7.682  -1.991  25.382  0.00  0.00    +0.214 A 
ATOM      3  C   UNL     1       7.007  -3.306  25.671  0.00  0.00    +0.238 A 
ATOM      4  O   UNL     1       6.824  -3.708  26.813  0.00  0.00    -0.283 OA
ATOM      5  C   UNL     1       6.621  -4.138  24.518  0.00  0.00    +0.109 A 
ATOM      6  C   UNL     1       7.099  -3.767  23.265  0.00  0.00    +0.147 A 
ATOM      7  C   UNL     1       6.834  -4.559  22.142  0.00  0.00    +0.092 A 
ATOM      8  C   UNL     1       6.078  -5.719  22.286  0.00  0.00    +0.124 A 
ATOM      9  C   UNL     1       5.570  -6.089  23.525  0.00  0.00    +0.091 A 
ATOM     10  O   UNL     1       7.847  -2.638  23.056  0.00  0.00    -0.451 OA
ATOM     11  C   UNL     1       5.836  -5.296  24.640  0.00  0.00    +0.135 A 
ATOM     12  C   UNL     1       8.060  -1.746  24.105  0.00  0.00    +0.181 A 
BRANCH  12  13
ATOM     13  C   UNL     1       8.804  -0.523  23.656  0.00  0.00    +0.025 A 
ATOM     14  C   UNL     1       9.997  -0.154  24.317  0.00  0.00    +0.015 A 
ATOM     15  C   UNL     1      10.734   0.977  23.943  0.00  0.00    +0.050 A 
ATOM     16  C   UNL     1      10.282   1.758  22.895  0.00  0.00    +0.158 A 
ATOM     17  C   UNL     1       9.116   1.423  22.221  0.00  0.00    +0.159 A 
ATOM     18  C   UNL     1       8.386   0.290  22.582  0.00  0.00    +0.060 A 
BRANCH  16  19
ATOM     19  O   UNL     1      10.967   2.889  22.555  0.00  0.00    -0.503 OA
ATOM     20  H   UNL     1      11.912   2.647  22.634  0.00  0.00    +0.292 HD
ENDBRANCH  16  19
BRANCH  17  21
ATOM     21  O   UNL     1       8.704   2.267  21.227  0.00  0.00    -0.503 OA
ATOM     22  H   UNL     1       7.852   2.662  21.489  0.00  0.00    +0.292 HD
ENDBRANCH  17  21
ENDBRANCH  12  13
BRANCH   8  23
ATOM     23  O   UNL     1       5.803  -6.534  21.229  0.00  0.00    -0.507 OA
ATOM     24  H   UNL     1       4.916  -6.330  20.887  0.00  0.00    +0.292 HD
ENDBRANCH   8  23
BRANCH  11  25
ATOM     25  O   UNL     1       5.302  -5.663  25.842  0.00  0.00    -0.506 OA
ATOM     26  H   UNL     1       5.044  -4.879  26.353  0.00  0.00    +0.292 HD
ENDBRANCH  11  25
ENDBRANCH   1   2
BRANCH   1  29
ATOM     27  C   UNL     1       4.809  -0.828  28.246  0.00  0.00    +0.198 C 
ATOM     28  O   UNL     1       5.873  -1.424  27.492  0.00  0.00    -0.336 OA
ATOM     29  C   UNL     1       6.788  -0.426  27.007  0.00  0.00    +0.352 C 
ATOM     30  C   UNL     1       6.047   0.390  25.922  0.00  0.00    +0.276 C 
ATOM     31  C   UNL     1       4.792   1.039  26.543  0.00  0.00    +0.192 C 
ATOM     32  C   UNL     1       3.945  -0.009  27.287  0.00  0.00    +0.172 C 
BRANCH  31  33
ATOM     33  O   UNL     1       3.997   1.647  25.514  0.00  0.00    -0.385 OA
ATOM     34  H   UNL     1       3.872   0.953  24.836  0.00  0.00    +0.210 HD
ENDBRANCH  31  33
BRANCH  32  35
ATOM     35  O   UNL     1       3.361  -0.883  26.297  0.00  0.00    -0.387 OA
ATOM     36  H   UNL     1       4.016  -0.973  25.576  0.00  0.00    +0.210 HD
ENDBRANCH  32  35
BRANCH  30  37
ATOM     37  O   UNL     1       6.900   1.314  25.194  0.00  0.00    -0.449 OA
BRANCH  37  38
ATOM     38  C   UNL     1       7.153   2.521  25.747  0.00  0.00    +0.340 C 
ATOM     39  O   UNL     1       7.335   2.735  26.936  0.00  0.00    -0.245 OA
BRANCH  38  40
ATOM     40  C   UNL     1       7.217   3.588  24.715  0.00  0.00    +0.066 A 
ATOM     41  C   UNL     1       8.456   4.209  24.502  0.00  0.00    +0.064 A 
ATOM     42  C   UNL     1       8.592   5.122  23.466  0.00  0.00    +0.163 A 
ATOM     43  C   UNL     1       7.511   5.427  22.652  0.00  0.00    +0.201 A 
ATOM     44  C   UNL     1       6.269   4.843  22.884  0.00  0.00    +0.163 A 
ATOM     45  C   UNL     1       6.108   3.925  23.918  0.00  0.00    +0.064 A 
BRANCH  42  46
ATOM     46  O   UNL     1       9.806   5.698  23.231  0.00  0.00    -0.503 OA
ATOM     47  H   UNL     1       9.944   5.604  22.266  0.00  0.00    +0.292 HD
ENDBRANCH  42  46
BRANCH  43  48
ATOM     48  O   UNL     1       7.686   6.296  21.609  0.00  0.00    -0.501 OA
ATOM     49  H   UNL     1       7.476   5.761  20.814  0.00  0.00    +0.292 HD
ENDBRANCH  43  48
BRANCH  44  50
ATOM     50  O   UNL     1       5.252   5.203  22.044  0.00  0.00    -0.503 OA
ATOM     51  H   UNL     1       5.621   5.528  21.203  0.00  0.00    +0.292 HD
ENDBRANCH  44  50
ENDBRANCH  38  40
ENDBRANCH  37  38
ENDBRANCH  30  37
ENDBRANCH   1  29
TORSDOF 15
ENDMDL
MODEL 8
REMARK VINA RESULT:      -6.6      2.312      8.115
REMARK  Name = 
REMARK  15 active torsions:
REMARK  status: ('A' for Active; 'I' for Inactive)
REMARK    1  A    between atoms: C_2  and  O_45
REMARK    2  A    between atoms: C_4  and  O_44
REMARK    3  A    between atoms: C_5  and  O_32
REMARK    4  A    between atoms: C_7  and  O_10
REMARK    5  A    between atoms: O_10  and  C_11
REMARK    6  A    between atoms: C_12  and  C_24
REMARK    7  A    between atoms: C_16  and  O_23
REMARK    8  A    between atoms: C_18  and  O_22
REMARK    9  A    between atoms: C_26  and  O_31
REMARK   10  A    between atoms: C_27  and  O_30
REMARK   11  A    between atoms: O_32  and  C_33
REMARK   12  A    between atoms: C_33  and  C_35
REMARK   13  A    between atoms: C_37  and  O_43
REMARK   14  A    between atoms: C_38  and  O_42
REMARK   15  A    between atoms: C_39  and  O_41
REMARK                            x       y       z     vdW  Elec       q    Type
REMARK                         _______ _______ _______ _____ _____    ______ ____
ROOT
ATOM      1  O   UNL     1       6.450  -0.808  23.009  0.00  0.00    -0.452 OA
ENDROOT
BRANCH   1   2
ATOM      2  C   UNL     1       5.973  -1.921  23.688  0.00  0.00    +0.214 A 
ATOM      3  C   UNL     1       5.521  -3.158  22.957  0.00  0.00    +0.238 A 
ATOM      4  O   UNL     1       5.344  -3.172  21.745  0.00  0.00    -0.283 OA
ATOM      5  C   UNL     1       5.233  -4.355  23.765  0.00  0.00    +0.109 A 
ATOM      6  C   UNL     1       5.181  -4.204  25.147  0.00  0.00    +0.147 A 
ATOM      7  C   UNL     1       4.835  -5.285  25.966  0.00  0.00    +0.092 A 
ATOM      8  C   UNL     1       4.551  -6.519  25.387  0.00  0.00    +0.124 A 
ATOM      9  C   UNL     1       4.625  -6.694  24.011  0.00  0.00    +0.091 A 
ATOM     10  O   UNL     1       5.449  -3.019  25.779  0.00  0.00    -0.451 OA
ATOM     11  C   UNL     1       4.972  -5.614  23.200  0.00  0.00    +0.135 A 
ATOM     12  C   UNL     1       5.904  -1.929  25.039  0.00  0.00    +0.181 A 
BRANCH  12  13
ATOM     13  C   UNL     1       6.247  -0.761  25.917  0.00  0.00    +0.025 A 
ATOM     14  C   UNL     1       5.536   0.450  25.771  0.00  0.00    +0.015 A 
ATOM     15  C   UNL     1       5.811   1.573  26.561  0.00  0.00    +0.050 A 
ATOM     16  C   UNL     1       6.809   1.496  27.515  0.00  0.00    +0.158 A 
ATOM     17  C   UNL     1       7.526   0.320  27.688  0.00  0.00    +0.159 A 
ATOM     18  C   UNL     1       7.246  -0.804  26.912  0.00  0.00    +0.060 A 
BRANCH  16  19
ATOM     19  O   UNL     1       7.119   2.600  28.256  0.00  0.00    -0.503 OA
ATOM     20  H   UNL     1       7.459   2.248  29.105  0.00  0.00    +0.292 HD
ENDBRANCH  16  19
BRANCH  17  21
ATOM     21  O   UNL     1       8.531   0.332  28.616  0.00  0.00    -0.503 OA
ATOM     22  H   UNL     1       8.249   0.879  29.371  0.00  0.00    +0.292 HD
ENDBRANCH  17  21
ENDBRANCH  12  13
BRANCH   8  23
ATOM     23  O   UNL     1       4.195  -7.600  26.136  0.00  0.00    -0.507 OA
ATOM     24  H   UNL     1       3.248  -7.780  26.013  0.00  0.00    +0.292 HD
ENDBRANCH   8  23
BRANCH  11  25
ATOM     25  O   UNL     1       5.068  -5.816  21.853  0.00  0.00    -0.506 OA
ATOM     26  H   UNL     1       5.788  -5.283  21.479  0.00  0.00    +0.292 HD
ENDBRANCH  11  25
ENDBRANCH   1   2
BRANCH   1  29
ATOM     27  C   UNL     1       9.938  -1.801  22.987  0.00  0.00    +0.198 C 
ATOM     28  O   UNL     1       8.568  -1.746  23.407  0.00  0.00    -0.336 OA
ATOM     29  C   UNL     1       7.840  -0.748  22.671  0.00  0.00    +0.352 C 
ATOM     30  C   UNL     1       8.367   0.635  23.123  0.00  0.00    +0.276 C 
ATOM     31  C   UNL     1       9.880   0.721  22.831  0.00  0.00    +0.192 C 
ATOM     32  C   UNL     1      10.620  -0.499  23.409  0.00  0.00    +0.172 C 
BRANCH  31  33
ATOM     33  O   UNL     1      10.421   1.919  23.406  0.00  0.00    -0.385 OA
ATOM     34  H   UNL     1       9.878   2.096  24.201  0.00  0.00    +0.210 HD
ENDBRANCH  31  33
BRANCH  32  35
ATOM     35  O   UNL     1      10.595  -0.385  24.848  0.00  0.00    -0.387 OA
ATOM     36  H   UNL     1      11.518  -0.240  25.137  0.00  0.00    +0.210 HD
ENDBRANCH  32  35
BRANCH  30  37
ATOM     37  O   UNL     1       7.595   1.755  22.614  0.00  0.00    -0.449 OA
BRANCH  37  38
ATOM     38  C   UNL     1       7.354   2.794  23.444  0.00  0.00    +0.340 C 
ATOM     39  O   UNL     1       8.052   3.125  24.391  0.00  0.00    -0.245 OA
BRANCH  38  40
ATOM     40  C   UNL     1       6.126   3.531  23.049  0.00  0.00    +0.066 A 
ATOM     41  C   UNL     1       4.947   2.788  22.891  0.00  0.00    +0.064 A 
ATOM     42  C   UNL     1       3.753   3.449  22.644  0.00  0.00    +0.163 A 
ATOM     43  C   UNL     1       3.723   4.832  22.541  0.00  0.00    +0.201 A 
ATOM     44  C   UNL     1       4.896   5.571  22.658  0.00  0.00    +0.163 A 
ATOM     45  C   UNL     1       6.107   4.930  22.905  0.00  0.00    +0.064 A 
BRANCH  42  46
ATOM     46  O   UNL     1       2.598   2.732  22.530  0.00  0.00    -0.503 OA
ATOM     47  H   UNL     1       1.962   3.349  22.114  0.00  0.00    +0.292 HD
ENDBRANCH  42  46
BRANCH  43  48
ATOM     48  O   UNL     1       2.523   5.460  22.343  0.00  0.00    -0.501 OA
ATOM     49  H   UNL     1       2.704   6.398  22.569  0.00  0.00    +0.292 HD
ENDBRANCH  43  48
BRANCH  44  50
ATOM     50  O   UNL     1       4.785   6.928  22.537  0.00  0.00    -0.503 OA
ATOM     51  H   UNL     1       4.675   7.166  21.598  0.00  0.00    +0.292 HD
ENDBRANCH  44  50
ENDBRANCH  38  40
ENDBRANCH  37  38
ENDBRANCH  30  37
ENDBRANCH   1  29
TORSDOF 15
ENDMDL
MODEL 9
REMARK VINA RESULT:      -6.5      1.885      7.025
REMARK  Name = 
REMARK  15 active torsions:
REMARK  status: ('A' for Active; 'I' for Inactive)
REMARK    1  A    between atoms: C_2  and  O_45
REMARK    2  A    between atoms: C_4  and  O_44
REMARK    3  A    between atoms: C_5  and  O_32
REMARK    4  A    between atoms: C_7  and  O_10
REMARK    5  A    between atoms: O_10  and  C_11
REMARK    6  A    between atoms: C_12  and  C_24
REMARK    7  A    between atoms: C_16  and  O_23
REMARK    8  A    between atoms: C_18  and  O_22
REMARK    9  A    between atoms: C_26  and  O_31
REMARK   10  A    between atoms: C_27  and  O_30
REMARK   11  A    between atoms: O_32  and  C_33
REMARK   12  A    between atoms: C_33  and  C_35
REMARK   13  A    between atoms: C_37  and  O_43
REMARK   14  A    between atoms: C_38  and  O_42
REMARK   15  A    between atoms: C_39  and  O_41
REMARK                            x       y       z     vdW  Elec       q    Type
REMARK                         _______ _______ _______ _____ _____    ______ ____
ROOT
ATOM      1  O   UNL     1       5.878   0.424  24.014  0.00  0.00    -0.452 OA
ENDROOT
BRANCH   1   2
ATOM      2  C   UNL     1       5.736  -0.727  24.777  0.00  0.00    +0.214 A 
ATOM      3  C   UNL     1       5.713  -2.094  24.147  0.00  0.00    +0.238 A 
ATOM      4  O   UNL     1       5.600  -2.254  22.938  0.00  0.00    -0.283 OA
ATOM      5  C   UNL     1       5.771  -3.257  25.049  0.00  0.00    +0.109 A 
ATOM      6  C   UNL     1       5.617  -3.025  26.412  0.00  0.00    +0.147 A 
ATOM      7  C   UNL     1       5.584  -4.094  27.315  0.00  0.00    +0.092 A 
ATOM      8  C   UNL     1       5.715  -5.395  26.838  0.00  0.00    +0.124 A 
ATOM      9  C   UNL     1       5.897  -5.643  25.483  0.00  0.00    +0.091 A 
ATOM     10  O   UNL     1       5.484  -1.770  26.945  0.00  0.00    -0.451 OA
ATOM     11  C   UNL     1       5.931  -4.574  24.589  0.00  0.00    +0.135 A 
ATOM     12  C   UNL     1       5.615  -0.653  26.123  0.00  0.00    +0.181 A 
BRANCH  12  13
ATOM     13  C   UNL     1       5.549   0.627  26.904  0.00  0.00    +0.025 A 
ATOM     14  C   UNL     1       4.346   1.368  26.921  0.00  0.00    +0.015 A 
ATOM     15  C   UNL     1       4.223   2.569  27.632  0.00  0.00    +0.050 A 
ATOM     16  C   UNL     1       5.311   3.046  28.339  0.00  0.00    +0.158 A 
ATOM     17  C   UNL     1       6.508   2.342  28.347  0.00  0.00    +0.159 A 
ATOM     18  C   UNL     1       6.629   1.139  27.651  0.00  0.00    +0.060 A 
BRANCH  16  19
ATOM     19  O   UNL     1       5.217   4.240  28.994  0.00  0.00    -0.503 OA
ATOM     20  H   UNL     1       5.465   4.914  28.328  0.00  0.00    +0.292 HD
ENDBRANCH  16  19
BRANCH  17  21
ATOM     21  O   UNL     1       7.556   2.897  29.028  0.00  0.00    -0.503 OA
ATOM     22  H   UNL     1       7.655   2.430  29.877  0.00  0.00    +0.292 HD
ENDBRANCH  17  21
ENDBRANCH  12  13
BRANCH   8  23
ATOM     23  O   UNL     1       5.675  -6.474  27.670  0.00  0.00    -0.507 OA
ATOM     24  H   UNL     1       5.985  -7.262  27.193  0.00  0.00    +0.292 HD
ENDBRANCH   8  23
BRANCH  11  25
ATOM     25  O   UNL     1       6.141  -4.839  23.266  0.00  0.00    -0.506 OA
ATOM     26  H   UNL     1       5.534  -5.532  22.958  0.00  0.00    +0.292 HD
ENDBRANCH  11  25
ENDBRANCH   1   2
BRANCH   1  29
ATOM     27  C   UNL     1       7.911   3.349  24.693  0.00  0.00    +0.198 C 
ATOM     28  O   UNL     1       6.737   2.575  24.415  0.00  0.00    -0.336 OA
ATOM     29  C   UNL     1       7.072   1.201  24.151  0.00  0.00    +0.352 C 
ATOM     30  C   UNL     1       7.811   1.159  22.792  0.00  0.00    +0.276 C 
ATOM     31  C   UNL     1       9.078   2.036  22.877  0.00  0.00    +0.192 C 
ATOM     32  C   UNL     1       8.739   3.439  23.411  0.00  0.00    +0.172 C 
BRANCH  31  33
ATOM     33  O   UNL     1       9.676   2.155  21.578  0.00  0.00    -0.385 OA
ATOM     34  H   UNL     1       8.933   2.312  20.960  0.00  0.00    +0.210 HD
ENDBRANCH  31  33
BRANCH  32  35
ATOM     35  O   UNL     1       7.980   4.125  22.393  0.00  0.00    -0.387 OA
ATOM     36  H   UNL     1       7.588   4.916  22.815  0.00  0.00    +0.210 HD
ENDBRANCH  32  35
BRANCH  30  37
ATOM     37  O   UNL     1       8.044  -0.183  22.289  0.00  0.00    -0.449 OA
BRANCH  37  38
ATOM     38  C   UNL     1       9.275  -0.720  22.447  0.00  0.00    +0.340 C 
ATOM     39  O   UNL     1      10.249  -0.480  21.750  0.00  0.00    -0.245 OA
BRANCH  38  40
ATOM     40  C   UNL     1       9.321  -1.636  23.615  0.00  0.00    +0.066 A 
ATOM     41  C   UNL     1       9.195  -1.067  24.890  0.00  0.00    +0.064 A 
ATOM     42  C   UNL     1       9.110  -1.895  26.001  0.00  0.00    +0.163 A 
ATOM     43  C   UNL     1       9.159  -3.273  25.855  0.00  0.00    +0.201 A 
ATOM     44  C   UNL     1       9.323  -3.842  24.596  0.00  0.00    +0.163 A 
ATOM     45  C   UNL     1       9.413  -3.032  23.467  0.00  0.00    +0.064 A 
BRANCH  42  46
ATOM     46  O   UNL     1       8.947  -1.346  27.238  0.00  0.00    -0.503 OA
ATOM     47  H   UNL     1       8.252  -0.666  27.120  0.00  0.00    +0.292 HD
ENDBRANCH  42  46
BRANCH  43  48
ATOM     48  O   UNL     1       9.025  -4.066  26.963  0.00  0.00    -0.501 OA
ATOM     49  H   UNL     1       9.941  -4.157  27.304  0.00  0.00    +0.292 HD
ENDBRANCH  43  48
BRANCH  44  50
ATOM     50  O   UNL     1       9.371  -5.207  24.537  0.00  0.00    -0.503 OA
ATOM     51  H   UNL     1      10.122  -5.485  23.981  0.00  0.00    +0.292 HD
ENDBRANCH  44  50
ENDBRANCH  38  40
ENDBRANCH  37  38
ENDBRANCH  30  37
ENDBRANCH   1  29
TORSDOF 15
ENDMDL
