MODEL 1
REMARK VINA RESULT:      -7.1      0.000      0.000
REMARK  Name = 
REMARK  4 active torsions:
REMARK  status: ('A' for Active; 'I' for Inactive)
REMARK    1  A    between atoms: C_8  and  C_9
REMARK    2  A    between atoms: C_10  and  O_22
REMARK    3  A    between atoms: C_14  and  O_21
REMARK    4  A    between atoms: C_16  and  O_20
REMARK                            x       y       z     vdW  Elec       q    Type
REMARK                         _______ _______ _______ _____ _____    ______ ____
ROOT
ATOM      1  C   UNL     1       7.696  -3.532  25.573  0.00  0.00    +0.181 A 
ATOM      2  O   UNL     1       6.439  -3.559  24.984  0.00  0.00    -0.451 OA
ATOM      3  C   UNL     1       5.559  -4.549  25.351  0.00  0.00    +0.147 A 
ATOM      4  C   UNL     1       5.843  -5.487  26.343  0.00  0.00    +0.109 A 
ATOM      5  C   UNL     1       4.895  -6.463  26.675  0.00  0.00    +0.135 A 
ATOM      6  C   UNL     1       3.667  -6.503  26.018  0.00  0.00    +0.091 A 
ATOM      7  C   UNL     1       3.396  -5.563  25.028  0.00  0.00    +0.124 A 
ATOM      8  C   UNL     1       7.143  -5.410  27.023  0.00  0.00    +0.238 A 
ATOM      9  O   UNL     1       7.408  -6.177  27.945  0.00  0.00    -0.283 OA
ATOM     10  C   UNL     1       4.330  -4.585  24.690  0.00  0.00    +0.092 A 
ATOM     11  C   UNL     1       8.090  -4.368  26.549  0.00  0.00    +0.208 A 
ENDROOT
BRANCH   1  13
ATOM     12  C   UNL     1       8.749  -1.207  25.767  0.00  0.00    +0.015 C 
ATOM     13  C   UNL     1       8.553  -2.460  25.045  0.00  0.00    +0.025 C 
ATOM     14  C   UNL     1       9.177  -2.653  23.866  0.00  0.00    +0.066 C 
ATOM     15  C   UNL     1      10.063  -1.624  23.278  0.00  0.00    +0.226 C 
ATOM     16  O   UNL     1      10.659  -1.834  22.235  0.00  0.00    -0.284 OA
ATOM     17  C   UNL     1      10.194  -0.297  24.022  0.00  0.00    +0.225 C 
ATOM     18  O   UNL     1      10.845   0.635  23.575  0.00  0.00    -0.284 OA
ATOM     19  C   UNL     1       9.500  -0.195  25.324  0.00  0.00    +0.055 C 
ENDBRANCH   1  13
BRANCH   5  20
ATOM     20  O   UNL     1       5.103  -7.409  27.642  0.00  0.00    -0.506 OA
ATOM     21  H   UNL     1       5.532  -6.976  28.413  0.00  0.00    +0.292 HD
ENDBRANCH   5  20
BRANCH   7  22
ATOM     22  O   UNL     1       2.210  -5.565  24.358  0.00  0.00    -0.507 OA
ATOM     23  H   UNL     1       2.311  -6.076  23.535  0.00  0.00    +0.292 HD
ENDBRANCH   7  22
BRANCH  11  24
ATOM     24  O   UNL     1       9.351  -4.298  27.113  0.00  0.00    -0.501 OA
ATOM     25  H   UNL     1       9.726  -3.437  26.855  0.00  0.00    +0.292 HD
ENDBRANCH  11  24
TORSDOF 4
ENDMDL
MODEL 2
REMARK VINA RESULT:      -7.0      1.987      3.381
REMARK  Name = 
REMARK  4 active torsions:
REMARK  status: ('A' for Active; 'I' for Inactive)
REMARK    1  A    between atoms: C_8  and  C_9
REMARK    2  A    between atoms: C_10  and  O_22
REMARK    3  A    between atoms: C_14  and  O_21
REMARK    4  A    between atoms: C_16  and  O_20
REMARK                            x       y       z     vdW  Elec       q    Type
REMARK                         _______ _______ _______ _____ _____    ______ ____
ROOT
ATOM      1  C   UNL     1       6.596  -3.545  23.350  0.00  0.00    +0.181 A 
ATOM      2  O   UNL     1       6.769  -4.008  24.648  0.00  0.00    -0.451 OA
ATOM      3  C   UNL     1       6.006  -5.066  25.078  0.00  0.00    +0.147 A 
ATOM      4  C   UNL     1       5.114  -5.746  24.249  0.00  0.00    +0.109 A 
ATOM      5  C   UNL     1       4.375  -6.825  24.750  0.00  0.00    +0.135 A 
ATOM      6  C   UNL     1       4.525  -7.223  26.078  0.00  0.00    +0.091 A 
ATOM      7  C   UNL     1       5.416  -6.536  26.896  0.00  0.00    +0.124 A 
ATOM      8  C   UNL     1       4.988  -5.307  22.853  0.00  0.00    +0.238 A 
ATOM      9  O   UNL     1       4.262  -5.916  22.072  0.00  0.00    -0.283 OA
ATOM     10  C   UNL     1       6.159  -5.462  26.408  0.00  0.00    +0.092 A 
ATOM     11  C   UNL     1       5.781  -4.117  22.447  0.00  0.00    +0.208 A 
ENDROOT
BRANCH   1  13
ATOM     12  C   UNL     1       6.896  -1.016  23.095  0.00  0.00    +0.015 C 
ATOM     13  C   UNL     1       7.430  -2.374  23.044  0.00  0.00    +0.025 C 
ATOM     14  C   UNL     1       8.723  -2.568  22.718  0.00  0.00    +0.066 C 
ATOM     15  C   UNL     1       9.626  -1.436  22.408  0.00  0.00    +0.226 C 
ATOM     16  O   UNL     1      10.805  -1.627  22.163  0.00  0.00    -0.284 OA
ATOM     17  C   UNL     1       9.022  -0.034  22.402  0.00  0.00    +0.225 C 
ATOM     18  O   UNL     1       9.673   0.950  22.088  0.00  0.00    -0.284 OA
ATOM     19  C   UNL     1       7.605   0.080  22.808  0.00  0.00    +0.055 C 
ENDBRANCH   1  13
BRANCH   5  20
ATOM     20  O   UNL     1       3.489  -7.540  23.993  0.00  0.00    -0.506 OA
ATOM     21  H   UNL     1       2.633  -7.584  24.474  0.00  0.00    +0.292 HD
ENDBRANCH   5  20
BRANCH   7  22
ATOM     22  O   UNL     1       5.593  -6.889  28.200  0.00  0.00    -0.507 OA
ATOM     23  H   UNL     1       4.733  -7.141  28.580  0.00  0.00    +0.292 HD
ENDBRANCH   7  22
BRANCH  11  24
ATOM     24  O   UNL     1       5.646  -3.625  21.161  0.00  0.00    -0.501 OA
ATOM     25  H   UNL     1       5.279  -2.727  21.243  0.00  0.00    +0.292 HD
ENDBRANCH  11  24
TORSDOF 4
ENDMDL
MODEL 3
REMARK VINA RESULT:      -6.8      2.699      7.025
REMARK  Name = 
REMARK  4 active torsions:
REMARK  status: ('A' for Active; 'I' for Inactive)
REMARK    1  A    between atoms: C_8  and  C_9
REMARK    2  A    between atoms: C_10  and  O_22
REMARK    3  A    between atoms: C_14  and  O_21
REMARK    4  A    between atoms: C_16  and  O_20
REMARK                            x       y       z     vdW  Elec       q    Type
REMARK                         _______ _______ _______ _____ _____    ______ ____
ROOT
ATOM      1  C   UNL     1       7.893  -1.933  24.002  0.00  0.00    +0.181 A 
ATOM      2  O   UNL     1       6.928  -0.945  23.859  0.00  0.00    -0.451 OA
ATOM      3  C   UNL     1       7.276   0.231  23.237  0.00  0.00    +0.147 A 
ATOM      4  C   UNL     1       8.534   0.451  22.678  0.00  0.00    +0.109 A 
ATOM      5  C   UNL     1       8.817   1.669  22.049  0.00  0.00    +0.135 A 
ATOM      6  C   UNL     1       7.846   2.667  21.979  0.00  0.00    +0.091 A 
ATOM      7  C   UNL     1       6.595   2.437  22.543  0.00  0.00    +0.124 A 
ATOM      8  C   UNL     1       9.531  -0.625  22.760  0.00  0.00    +0.238 A 
ATOM      9  O   UNL     1      10.629  -0.497  22.226  0.00  0.00    -0.283 OA
ATOM     10  C   UNL     1       6.300   1.227  23.170  0.00  0.00    +0.092 A 
ATOM     11  C   UNL     1       9.137  -1.853  23.499  0.00  0.00    +0.208 A 
ENDROOT
BRANCH   1  13
ATOM     12  C   UNL     1       7.666  -3.288  26.162  0.00  0.00    +0.015 C 
ATOM     13  C   UNL     1       7.403  -3.109  24.737  0.00  0.00    +0.025 C 
ATOM     14  C   UNL     1       6.686  -4.035  24.071  0.00  0.00    +0.066 C 
ATOM     15  C   UNL     1       6.151  -5.238  24.747  0.00  0.00    +0.226 C 
ATOM     16  O   UNL     1       5.462  -6.041  24.141  0.00  0.00    -0.284 OA
ATOM     17  C   UNL     1       6.500  -5.433  26.221  0.00  0.00    +0.225 C 
ATOM     18  O   UNL     1       6.163  -6.430  26.839  0.00  0.00    -0.284 OA
ATOM     19  C   UNL     1       7.261  -4.345  26.872  0.00  0.00    +0.055 C 
ENDBRANCH   1  13
BRANCH   5  20
ATOM     20  O   UNL     1      10.026   1.951  21.473  0.00  0.00    -0.506 OA
ATOM     21  H   UNL     1      10.634   2.280  22.172  0.00  0.00    +0.292 HD
ENDBRANCH   5  20
BRANCH   7  22
ATOM     22  O   UNL     1       5.616   3.384  22.500  0.00  0.00    -0.507 OA
ATOM     23  H   UNL     1       5.540   3.721  21.589  0.00  0.00    +0.292 HD
ENDBRANCH   7  22
BRANCH  11  24
ATOM     24  O   UNL     1      10.063  -2.868  23.660  0.00  0.00    -0.501 OA
ATOM     25  H   UNL     1       9.669  -3.512  24.274  0.00  0.00    +0.292 HD
ENDBRANCH  11  24
TORSDOF 4
ENDMDL
MODEL 4
REMARK VINA RESULT:      -6.8      3.262      7.652
REMARK  Name = 
REMARK  4 active torsions:
REMARK  status: ('A' for Active; 'I' for Inactive)
REMARK    1  A    between atoms: C_8  and  C_9
REMARK    2  A    between atoms: C_10  and  O_22
REMARK    3  A    between atoms: C_14  and  O_21
REMARK    4  A    between atoms: C_16  and  O_20
REMARK                            x       y       z     vdW  Elec       q    Type
REMARK                         _______ _______ _______ _____ _____    ______ ____
ROOT
ATOM      1  C   UNL     1       8.301  -0.723  23.181  0.00  0.00    +0.181 A 
ATOM      2  O   UNL     1       7.667  -0.041  24.211  0.00  0.00    -0.451 OA
ATOM      3  C   UNL     1       8.016   1.267  24.448  0.00  0.00    +0.147 A 
ATOM      4  C   UNL     1       8.926   1.966  23.656  0.00  0.00    +0.109 A 
ATOM      5  C   UNL     1       9.228   3.302  23.949  0.00  0.00    +0.135 A 
ATOM      6  C   UNL     1       8.622   3.938  25.031  0.00  0.00    +0.091 A 
ATOM      7  C   UNL     1       7.716   3.230  25.816  0.00  0.00    +0.124 A 
ATOM      8  C   UNL     1       9.539   1.268  22.518  0.00  0.00    +0.238 A 
ATOM      9  O   UNL     1      10.298   1.864  21.759  0.00  0.00    -0.283 OA
ATOM     10  C   UNL     1       7.407   1.901  25.533  0.00  0.00    +0.092 A 
ATOM     11  C   UNL     1       9.186  -0.164  22.337  0.00  0.00    +0.208 A 
ENDROOT
BRANCH   1  13
ATOM     12  C   UNL     1       6.738  -2.526  22.257  0.00  0.00    +0.015 C 
ATOM     13  C   UNL     1       7.877  -2.127  23.078  0.00  0.00    +0.025 C 
ATOM     14  C   UNL     1       8.569  -3.064  23.756  0.00  0.00    +0.066 C 
ATOM     15  C   UNL     1       8.207  -4.497  23.692  0.00  0.00    +0.226 C 
ATOM     16  O   UNL     1       8.874  -5.337  24.271  0.00  0.00    -0.284 OA
ATOM     17  C   UNL     1       6.970  -4.877  22.880  0.00  0.00    +0.225 C 
ATOM     18  O   UNL     1       6.555  -6.023  22.830  0.00  0.00    -0.284 OA
ATOM     19  C   UNL     1       6.298  -3.784  22.144  0.00  0.00    +0.055 C 
ENDBRANCH   1  13
BRANCH   5  20
ATOM     20  O   UNL     1      10.105   4.049  23.212  0.00  0.00    -0.506 OA
ATOM     21  H   UNL     1      10.997   3.970  23.618  0.00  0.00    +0.292 HD
ENDBRANCH   5  20
BRANCH   7  22
ATOM     22  O   UNL     1       7.102   3.811  26.884  0.00  0.00    -0.507 OA
ATOM     23  H   UNL     1       6.323   4.306  26.571  0.00  0.00    +0.292 HD
ENDBRANCH   7  22
BRANCH  11  24
ATOM     24  O   UNL     1       9.787  -0.882  21.319  0.00  0.00    -0.501 OA
ATOM     25  H   UNL     1      10.605  -1.261  21.689  0.00  0.00    +0.292 HD
ENDBRANCH  11  24
TORSDOF 4
ENDMDL
MODEL 5
REMARK VINA RESULT:      -6.8      3.032      4.496
REMARK  Name = 
REMARK  4 active torsions:
REMARK  status: ('A' for Active; 'I' for Inactive)
REMARK    1  A    between atoms: C_8  and  C_9
REMARK    2  A    between atoms: C_10  and  O_22
REMARK    3  A    between atoms: C_14  and  O_21
REMARK    4  A    between atoms: C_16  and  O_20
REMARK                            x       y       z     vdW  Elec       q    Type
REMARK                         _______ _______ _______ _____ _____    ______ ____
ROOT
ATOM      1  C   UNL     1       8.097  -0.549  23.401  0.00  0.00    +0.181 A 
ATOM      2  O   UNL     1       6.857  -1.134  23.181  0.00  0.00    -0.451 OA
ATOM      3  C   UNL     1       6.765  -2.505  23.189  0.00  0.00    +0.147 A 
ATOM      4  C   UNL     1       7.846  -3.337  23.478  0.00  0.00    +0.109 A 
ATOM      5  C   UNL     1       7.679  -4.728  23.479  0.00  0.00    +0.135 A 
ATOM      6  C   UNL     1       6.435  -5.287  23.190  0.00  0.00    +0.091 A 
ATOM      7  C   UNL     1       5.364  -4.446  22.900  0.00  0.00    +0.124 A 
ATOM      8  C   UNL     1       9.141  -2.715  23.788  0.00  0.00    +0.238 A 
ATOM      9  O   UNL     1      10.102  -3.408  24.110  0.00  0.00    -0.283 OA
ATOM     10  C   UNL     1       5.518  -3.061  22.899  0.00  0.00    +0.092 A 
ATOM     11  C   UNL     1       9.213  -1.233  23.703  0.00  0.00    +0.208 A 
ENDROOT
BRANCH   1  13
ATOM     12  C   UNL     1       7.852   1.600  22.032  0.00  0.00    +0.015 C 
ATOM     13  C   UNL     1       8.061   0.918  23.305  0.00  0.00    +0.025 C 
ATOM     14  C   UNL     1       8.218   1.644  24.430  0.00  0.00    +0.066 C 
ATOM     15  C   UNL     1       8.183   3.124  24.413  0.00  0.00    +0.226 C 
ATOM     16  O   UNL     1       8.277   3.763  25.447  0.00  0.00    -0.284 OA
ATOM     17  C   UNL     1       8.031   3.810  23.057  0.00  0.00    +0.225 C 
ATOM     18  O   UNL     1       8.064   5.024  22.939  0.00  0.00    -0.284 OA
ATOM     19  C   UNL     1       7.830   2.929  21.886  0.00  0.00    +0.055 C 
ENDBRANCH   1  13
BRANCH   5  20
ATOM     20  O   UNL     1       8.693  -5.602  23.760  0.00  0.00    -0.506 OA
ATOM     21  H   UNL     1       8.492  -6.046  24.614  0.00  0.00    +0.292 HD
ENDBRANCH   5  20
BRANCH   7  22
ATOM     22  O   UNL     1       4.132  -4.948  22.610  0.00  0.00    -0.507 OA
ATOM     23  H   UNL     1       4.229  -5.685  21.980  0.00  0.00    +0.292 HD
ENDBRANCH   7  22
BRANCH  11  24
ATOM     24  O   UNL     1      10.426  -0.605  23.922  0.00  0.00    -0.501 OA
ATOM     25  H   UNL     1      10.301   0.332  23.692  0.00  0.00    +0.292 HD
ENDBRANCH  11  24
TORSDOF 4
ENDMDL
MODEL 6
REMARK VINA RESULT:      -6.7      2.007      6.819
REMARK  Name = 
REMARK  4 active torsions:
REMARK  status: ('A' for Active; 'I' for Inactive)
REMARK    1  A    between atoms: C_8  and  C_9
REMARK    2  A    between atoms: C_10  and  O_22
REMARK    3  A    between atoms: C_14  and  O_21
REMARK    4  A    between atoms: C_16  and  O_20
REMARK                            x       y       z     vdW  Elec       q    Type
REMARK                         _______ _______ _______ _____ _____    ______ ____
ROOT
ATOM      1  C   UNL     1       7.066  -3.780  24.285  0.00  0.00    +0.181 A 
ATOM      2  O   UNL     1       6.419  -2.554  24.210  0.00  0.00    -0.451 OA
ATOM      3  C   UNL     1       7.174  -1.418  24.042  0.00  0.00    +0.147 A 
ATOM      4  C   UNL     1       8.558  -1.445  23.871  0.00  0.00    +0.109 A 
ATOM      5  C   UNL     1       9.264  -0.249  23.694  0.00  0.00    +0.135 A 
ATOM      6  C   UNL     1       8.591   0.971  23.689  0.00  0.00    +0.091 A 
ATOM      7  C   UNL     1       7.211   0.986  23.863  0.00  0.00    +0.124 A 
ATOM      8  C   UNL     1       9.234  -2.749  23.872  0.00  0.00    +0.238 A 
ATOM      9  O   UNL     1      10.442  -2.823  23.662  0.00  0.00    -0.283 OA
ATOM     10  C   UNL     1       6.496  -0.198  24.038  0.00  0.00    +0.092 A 
ATOM     11  C   UNL     1       8.390  -3.946  24.123  0.00  0.00    +0.208 A 
ENDROOT
BRANCH   1  13
ATOM     12  C   UNL     1       5.312  -5.451  23.461  0.00  0.00    +0.015 C 
ATOM     13  C   UNL     1       6.144  -4.900  24.526  0.00  0.00    +0.025 C 
ATOM     14  C   UNL     1       6.080  -5.431  25.763  0.00  0.00    +0.066 C 
ATOM     15  C   UNL     1       5.184  -6.566  26.076  0.00  0.00    +0.226 C 
ATOM     16  O   UNL     1       5.174  -7.067  27.188  0.00  0.00    -0.284 OA
ATOM     17  C   UNL     1       4.275  -7.077  24.960  0.00  0.00    +0.225 C 
ATOM     18  O   UNL     1       3.454  -7.960  25.147  0.00  0.00    -0.284 OA
ATOM     19  C   UNL     1       4.445  -6.454  23.629  0.00  0.00    +0.055 C 
ENDBRANCH   1  13
BRANCH   5  20
ATOM     20  O   UNL     1      10.620  -0.202  23.514  0.00  0.00    -0.506 OA
ATOM     21  H   UNL     1      10.976   0.551  24.036  0.00  0.00    +0.292 HD
ENDBRANCH   5  20
BRANCH   7  22
ATOM     22  O   UNL     1       6.512   2.155  23.867  0.00  0.00    -0.507 OA
ATOM     23  H   UNL     1       6.981   2.803  24.423  0.00  0.00    +0.292 HD
ENDBRANCH   7  22
BRANCH  11  24
ATOM     24  O   UNL     1       8.991  -5.190  24.199  0.00  0.00    -0.501 OA
ATOM     25  H   UNL     1       9.887  -5.090  23.830  0.00  0.00    +0.292 HD
ENDBRANCH  11  24
TORSDOF 4
ENDMDL
MODEL 7
REMARK VINA RESULT:      -6.7      3.094      7.318
REMARK  Name = 
REMARK  4 active torsions:
REMARK  status: ('A' for Active; 'I' for Inactive)
REMARK    1  A    between atoms: C_8  and  C_9
REMARK    2  A    between atoms: C_10  and  O_22
REMARK    3  A    between atoms: C_14  and  O_21
REMARK    4  A    between atoms: C_16  and  O_20
REMARK                            x       y       z     vdW  Elec       q    Type
REMARK                         _______ _______ _______ _____ _____    ______ ____
ROOT
ATOM      1  C   UNL     1       7.885  -1.592  23.183  0.00  0.00    +0.181 A 
ATOM      2  O   UNL     1       7.118  -0.542  22.693  0.00  0.00    -0.451 OA
ATOM      3  C   UNL     1       7.641   0.728  22.727  0.00  0.00    +0.147 A 
ATOM      4  C   UNL     1       8.937   1.004  23.163  0.00  0.00    +0.109 A 
ATOM      5  C   UNL     1       9.410   2.322  23.160  0.00  0.00    +0.135 A 
ATOM      6  C   UNL     1       8.591   3.363  22.724  0.00  0.00    +0.091 A 
ATOM      7  C   UNL     1       7.300   3.075  22.293  0.00  0.00    +0.124 A 
ATOM      8  C   UNL     1       9.776  -0.116  23.607  0.00  0.00    +0.238 A 
ATOM      9  O   UNL     1      10.943   0.074  23.939  0.00  0.00    -0.283 OA
ATOM     10  C   UNL     1       6.818   1.767  22.289  0.00  0.00    +0.092 A 
ATOM     11  C   UNL     1       9.150  -1.464  23.618  0.00  0.00    +0.208 A 
ENDROOT
BRANCH   1  13
ATOM     12  C   UNL     1       6.682  -3.523  24.355  0.00  0.00    +0.015 C 
ATOM     13  C   UNL     1       7.180  -2.882  23.142  0.00  0.00    +0.025 C 
ATOM     14  C   UNL     1       6.987  -3.476  21.948  0.00  0.00    +0.066 C 
ATOM     15  C   UNL     1       6.278  -4.770  21.828  0.00  0.00    +0.226 C 
ATOM     16  O   UNL     1       6.068  -5.269  20.736  0.00  0.00    -0.284 OA
ATOM     17  C   UNL     1       5.828  -5.449  23.120  0.00  0.00    +0.225 C 
ATOM     18  O   UNL     1       5.301  -6.550  23.122  0.00  0.00    -0.284 OA
ATOM     19  C   UNL     1       6.054  -4.702  24.376  0.00  0.00    +0.055 C 
ENDBRANCH   1  13
BRANCH   5  20
ATOM     20  O   UNL     1      10.670   2.665  23.568  0.00  0.00    -0.506 OA
ATOM     21  H   UNL     1      11.249   1.874  23.487  0.00  0.00    +0.292 HD
ENDBRANCH   5  20
BRANCH   7  22
ATOM     22  O   UNL     1       6.464   4.060  21.860  0.00  0.00    -0.507 OA
ATOM     23  H   UNL     1       6.929   4.602  21.197  0.00  0.00    +0.292 HD
ENDBRANCH   7  22
BRANCH  11  24
ATOM     24  O   UNL     1       9.878  -2.541  24.090  0.00  0.00    -0.501 OA
ATOM     25  H   UNL     1      10.759  -2.484  23.678  0.00  0.00    +0.292 HD
ENDBRANCH  11  24
TORSDOF 4
ENDMDL
MODEL 8
REMARK VINA RESULT:      -6.7      2.304      7.432
REMARK  Name = 
REMARK  4 active torsions:
REMARK  status: ('A' for Active; 'I' for Inactive)
REMARK    1  A    between atoms: C_8  and  C_9
REMARK    2  A    between atoms: C_10  and  O_22
REMARK    3  A    between atoms: C_14  and  O_21
REMARK    4  A    between atoms: C_16  and  O_20
REMARK                            x       y       z     vdW  Elec       q    Type
REMARK                         _______ _______ _______ _____ _____    ______ ____
ROOT
ATOM      1  C   UNL     1       7.874  -1.695  24.068  0.00  0.00    +0.181 A 
ATOM      2  O   UNL     1       7.663  -0.569  24.852  0.00  0.00    -0.451 OA
ATOM      3  C   UNL     1       8.140   0.642  24.410  0.00  0.00    +0.147 A 
ATOM      4  C   UNL     1       8.763   0.806  23.173  0.00  0.00    +0.109 A 
ATOM      5  C   UNL     1       9.215   2.072  22.780  0.00  0.00    +0.135 A 
ATOM      6  C   UNL     1       9.046   3.171  23.621  0.00  0.00    +0.091 A 
ATOM      7  C   UNL     1       8.425   2.994  24.854  0.00  0.00    +0.124 A 
ATOM      8  C   UNL     1       8.915  -0.371  22.308  0.00  0.00    +0.238 A 
ATOM      9  O   UNL     1       9.401  -0.259  21.186  0.00  0.00    -0.283 OA
ATOM     10  C   UNL     1       7.969   1.740  25.255  0.00  0.00    +0.092 A 
ATOM     11  C   UNL     1       8.447  -1.672  22.852  0.00  0.00    +0.208 A 
ENDROOT
BRANCH   1  13
ATOM     12  C   UNL     1       6.151  -3.582  24.215  0.00  0.00    +0.015 C 
ATOM     13  C   UNL     1       7.367  -2.928  24.689  0.00  0.00    +0.025 C 
ATOM     14  C   UNL     1       8.055  -3.466  25.715  0.00  0.00    +0.066 C 
ATOM     15  C   UNL     1       7.611  -4.711  26.381  0.00  0.00    +0.226 C 
ATOM     16  O   UNL     1       8.273  -5.210  27.276  0.00  0.00    -0.284 OA
ATOM     17  C   UNL     1       6.300  -5.334  25.910  0.00  0.00    +0.225 C 
ATOM     18  O   UNL     1       5.820  -6.319  26.449  0.00  0.00    -0.284 OA
ATOM     19  C   UNL     1       5.636  -4.691  24.755  0.00  0.00    +0.055 C 
ENDBRANCH   1  13
BRANCH   5  20
ATOM     20  O   UNL     1       9.828   2.307  21.580  0.00  0.00    -0.506 OA
ATOM     21  H   UNL     1      10.799   2.223  21.705  0.00  0.00    +0.292 HD
ENDBRANCH   5  20
BRANCH   7  22
ATOM     22  O   UNL     1       8.241   4.039  25.708  0.00  0.00    -0.507 OA
ATOM     23  H   UNL     1       8.725   3.862  26.535  0.00  0.00    +0.292 HD
ENDBRANCH   7  22
BRANCH  11  24
ATOM     24  O   UNL     1       8.629  -2.820  22.102  0.00  0.00    -0.501 OA
ATOM     25  H   UNL     1       8.139  -3.530  22.554  0.00  0.00    +0.292 HD
ENDBRANCH  11  24
TORSDOF 4
ENDMDL
MODEL 9
REMARK VINA RESULT:      -6.6      2.393      3.024
REMARK  Name = 
REMARK  4 active torsions:
REMARK  status: ('A' for Active; 'I' for Inactive)
REMARK    1  A    between atoms: C_8  and  C_9
REMARK    2  A    between atoms: C_10  and  O_22
REMARK    3  A    between atoms: C_14  and  O_21
REMARK    4  A    between atoms: C_16  and  O_20
REMARK                            x       y       z     vdW  Elec       q    Type
REMARK                         _______ _______ _______ _____ _____    ______ ____
ROOT
ATOM      1  C   UNL     1       8.110  -1.741  24.297  0.00  0.00    +0.181 A 
ATOM      2  O   UNL     1       7.698  -2.384  23.137  0.00  0.00    -0.451 OA
ATOM      3  C   UNL     1       7.036  -3.583  23.247  0.00  0.00    +0.147 A 
ATOM      4  C   UNL     1       6.694  -4.151  24.473  0.00  0.00    +0.109 A 
ATOM      5  C   UNL     1       6.009  -5.372  24.511  0.00  0.00    +0.135 A 
ATOM      6  C   UNL     1       5.667  -6.025  23.327  0.00  0.00    +0.091 A 
ATOM      7  C   UNL     1       6.016  -5.448  22.110  0.00  0.00    +0.124 A 
ATOM      8  C   UNL     1       7.060  -3.433  25.701  0.00  0.00    +0.238 A 
ATOM      9  O   UNL     1       6.723  -3.867  26.799  0.00  0.00    -0.283 OA
ATOM     10  C   UNL     1       6.696  -4.232  22.059  0.00  0.00    +0.092 A 
ATOM     11  C   UNL     1       7.834  -2.174  25.539  0.00  0.00    +0.208 A 
ENDROOT
BRANCH   1  13
ATOM     12  C   UNL     1      10.201  -0.288  24.560  0.00  0.00    +0.015 C 
ATOM     13  C   UNL     1       8.857  -0.503  24.031  0.00  0.00    +0.025 C 
ATOM     14  C   UNL     1       8.281   0.450  23.272  0.00  0.00    +0.066 C 
ATOM     15  C   UNL     1       8.977   1.717  22.953  0.00  0.00    +0.226 C 
ATOM     16  O   UNL     1       8.461   2.546  22.223  0.00  0.00    -0.284 OA
ATOM     17  C   UNL     1      10.352   1.942  23.576  0.00  0.00    +0.225 C 
ATOM     18  O   UNL     1      10.967   2.986  23.427  0.00  0.00    -0.284 OA
ATOM     19  C   UNL     1      10.914   0.825  24.365  0.00  0.00    +0.055 C 
ENDBRANCH   1  13
BRANCH   5  20
ATOM     20  O   UNL     1       5.636  -5.984  25.677  0.00  0.00    -0.506 OA
ATOM     21  H   UNL     1       5.571  -6.951  25.513  0.00  0.00    +0.292 HD
ENDBRANCH   5  20
BRANCH   7  22
ATOM     22  O   UNL     1       5.704  -6.051  20.929  0.00  0.00    -0.507 OA
ATOM     23  H   UNL     1       5.057  -5.500  20.452  0.00  0.00    +0.292 HD
ENDBRANCH   7  22
BRANCH  11  24
ATOM     24  O   UNL     1       8.258  -1.496  26.668  0.00  0.00    -0.501 OA
ATOM     25  H   UNL     1       8.299  -2.150  27.388  0.00  0.00    +0.292 HD
ENDBRANCH  11  24
TORSDOF 4
ENDMDL
