MODEL 1
REMARK VINA RESULT:      -7.6      0.000      0.000
REMARK  Name = 
REMARK  14 active torsions:
REMARK  status: ('A' for Active; 'I' for Inactive)
REMARK    1  A    between atoms: C_1  and  C_2
REMARK    2  A    between atoms: C_2  and  C_3
REMARK    3  A    between atoms: C_3  and  C_4
REMARK    4  A    between atoms: C_4  and  C_5
REMARK    5  A    between atoms: C_5  and  C_6
REMARK    6  A    between atoms: C_6  and  C_7
REMARK    7  A    between atoms: C_7  and  C_8
REMARK    8  A    between atoms: C_8  and  O_10
REMARK    9  A    between atoms: O_10  and  C_11
REMARK   10  A    between atoms: C_13  and  O_31
REMARK   11  A    between atoms: C_18  and  C_23
REMARK   12  A    between atoms: C_19  and  O_22
REMARK   13  A    between atoms: C_25  and  O_30
REMARK   14  A    between atoms: C_26  and  O_29
REMARK                            x       y       z     vdW  Elec       q    Type
REMARK                         _______ _______ _______ _____ _____    ______ ____
ROOT
ATOM      1  C   UNL     1       9.485  -2.038  24.072  0.00  0.00    +0.139 A 
ATOM      2  C   UNL     1      10.119  -0.797  24.119  0.00  0.00    +0.093 A 
ATOM      3  C   UNL     1       9.452   0.337  23.666  0.00  0.00    +0.147 A 
ATOM      4  O   UNL     1      10.149   1.512  23.777  0.00  0.00    -0.451 OA
ATOM      5  C   UNL     1       9.550   2.668  23.333  0.00  0.00    +0.181 A 
ATOM      6  C   UNL     1       8.317   2.746  22.795  0.00  0.00    +0.208 A 
ATOM      7  C   UNL     1       7.520   1.489  22.660  0.00  0.00    +0.238 A 
ATOM      8  O   UNL     1       6.392   1.519  22.180  0.00  0.00    -0.283 OA
ATOM      9  C   UNL     1       8.163   0.239  23.136  0.00  0.00    +0.109 A 
ATOM     10  C   UNL     1       7.548  -1.023  23.065  0.00  0.00    +0.135 A 
ATOM     11  C   UNL     1       8.206  -2.167  23.533  0.00  0.00    +0.092 A 
ENDROOT
BRANCH   5  12
ATOM     12  C   UNL     1      10.385   3.864  23.496  0.00  0.00    +0.025 A 
ATOM     13  C   UNL     1       9.856   5.001  24.129  0.00  0.00    +0.015 A 
ATOM     14  C   UNL     1      10.687   6.070  24.465  0.00  0.00    +0.050 A 
ATOM     15  C   UNL     1      12.039   5.995  24.165  0.00  0.00    +0.158 A 
ATOM     16  C   UNL     1      12.565   4.889  23.501  0.00  0.00    +0.159 A 
ATOM     17  C   UNL     1      11.745   3.822  23.152  0.00  0.00    +0.060 A 
BRANCH  15  18
ATOM     18  O   UNL     1      12.862   7.011  24.554  0.00  0.00    -0.503 OA
ATOM     19  H   UNL     1      12.991   6.873  25.513  0.00  0.00    +0.292 HD
ENDBRANCH  15  18
BRANCH  16  20
ATOM     20  O   UNL     1      13.908   4.882  23.247  0.00  0.00    -0.503 OA
ATOM     21  H   UNL     1      14.262   5.771  23.426  0.00  0.00    +0.292 HD
ENDBRANCH  16  20
ENDBRANCH   5  12
BRANCH   6  22
ATOM     22  O   UNL     1       7.734   3.924  22.358  0.00  0.00    -0.501 OA
ATOM     23  H   UNL     1       8.352   4.402  21.782  0.00  0.00    +0.292 HD
ENDBRANCH   6  22
BRANCH  10  24
ATOM     24  O   UNL     1       6.300  -1.161  22.526  0.00  0.00    -0.506 OA
ATOM     25  H   UNL     1       6.262  -1.914  21.917  0.00  0.00    +0.292 HD
ENDBRANCH  10  24
BRANCH   1  26
ATOM     26  O   UNL     1      10.177  -3.199  24.445  0.00  0.00    -0.426 OA
BRANCH  26  27
ATOM     27  C   UNL     1       9.374  -4.261  24.857  0.00  0.00    +0.312 C 
ATOM     28  O   UNL     1       9.127  -5.271  24.210  0.00  0.00    -0.250 OA
BRANCH  27  29
ATOM     29  C   UNL     1       8.769  -3.925  26.200  0.00  0.00    +0.121 C 
BRANCH  29  30
ATOM     30  C   UNL     1       7.747  -4.982  26.607  0.00  0.00    +0.011 C 
BRANCH  30  31
ATOM     31  C   UNL     1       6.322  -4.584  26.235  0.00  0.00    +0.001 C 
BRANCH  31  32
ATOM     32  C   UNL     1       5.763  -5.548  25.188  0.00  0.00    +0.000 C 
BRANCH  32  33
ATOM     33  C   UNL     1       5.650  -4.893  23.813  0.00  0.00    -0.000 C 
BRANCH  33  35
ATOM     34  C   UNL     1       6.750  -6.037  21.856  0.00  0.00    +0.004 C 
ATOM     35  C   UNL     1       5.500  -5.947  22.717  0.00  0.00    -0.003 C 
ENDBRANCH  33  35
ENDBRANCH  32  33
ENDBRANCH  31  32
ENDBRANCH  30  31
ENDBRANCH  29  30
ENDBRANCH  27  29
ENDBRANCH  26  27
ENDBRANCH   1  26
TORSDOF 13
ENDMDL
MODEL 2
REMARK VINA RESULT:      -7.5      2.424      4.382
REMARK  Name = 
REMARK  14 active torsions:
REMARK  status: ('A' for Active; 'I' for Inactive)
REMARK    1  A    between atoms: C_1  and  C_2
REMARK    2  A    between atoms: C_2  and  C_3
REMARK    3  A    between atoms: C_3  and  C_4
REMARK    4  A    between atoms: C_4  and  C_5
REMARK    5  A    between atoms: C_5  and  C_6
REMARK    6  A    between atoms: C_6  and  C_7
REMARK    7  A    between atoms: C_7  and  C_8
REMARK    8  A    between atoms: C_8  and  O_10
REMARK    9  A    between atoms: O_10  and  C_11
REMARK   10  A    between atoms: C_13  and  O_31
REMARK   11  A    between atoms: C_18  and  C_23
REMARK   12  A    between atoms: C_19  and  O_22
REMARK   13  A    between atoms: C_25  and  O_30
REMARK   14  A    between atoms: C_26  and  O_29
REMARK                            x       y       z     vdW  Elec       q    Type
REMARK                         _______ _______ _______ _____ _____    ______ ____
ROOT
ATOM      1  C   UNL     1       7.299  -4.044  26.881  0.00  0.00    +0.139 A 
ATOM      2  C   UNL     1       7.145  -2.701  26.540  0.00  0.00    +0.093 A 
ATOM      3  C   UNL     1       7.957  -2.141  25.559  0.00  0.00    +0.147 A 
ATOM      4  O   UNL     1       7.712  -0.822  25.277  0.00  0.00    -0.451 OA
ATOM      5  C   UNL     1       8.492  -0.205  24.326  0.00  0.00    +0.181 A 
ATOM      6  C   UNL     1       9.486  -0.796  23.635  0.00  0.00    +0.208 A 
ATOM      7  C   UNL     1       9.785  -2.235  23.909  0.00  0.00    +0.238 A 
ATOM      8  O   UNL     1      10.679  -2.810  23.297  0.00  0.00    -0.283 OA
ATOM      9  C   UNL     1       8.946  -2.904  24.934  0.00  0.00    +0.109 A 
ATOM     10  C   UNL     1       9.112  -4.248  25.312  0.00  0.00    +0.135 A 
ATOM     11  C   UNL     1       8.288  -4.824  26.287  0.00  0.00    +0.092 A 
ENDROOT
BRANCH   5  12
ATOM     12  C   UNL     1       8.147   1.204  24.106  0.00  0.00    +0.025 A 
ATOM     13  C   UNL     1       8.807   2.205  24.838  0.00  0.00    +0.015 A 
ATOM     14  C   UNL     1       8.635   3.549  24.507  0.00  0.00    +0.050 A 
ATOM     15  C   UNL     1       7.802   3.882  23.449  0.00  0.00    +0.158 A 
ATOM     16  C   UNL     1       7.110   2.900  22.744  0.00  0.00    +0.159 A 
ATOM     17  C   UNL     1       7.268   1.558  23.070  0.00  0.00    +0.060 A 
BRANCH  15  18
ATOM     18  O   UNL     1       7.686   5.193  23.084  0.00  0.00    -0.503 OA
ATOM     19  H   UNL     1       7.203   5.614  23.822  0.00  0.00    +0.292 HD
ENDBRANCH  15  18
BRANCH  16  20
ATOM     20  O   UNL     1       6.315   3.305  21.708  0.00  0.00    -0.503 OA
ATOM     21  H   UNL     1       5.454   3.579  22.068  0.00  0.00    +0.292 HD
ENDBRANCH  16  20
ENDBRANCH   5  12
BRANCH   6  22
ATOM     22  O   UNL     1      10.257  -0.153  22.679  0.00  0.00    -0.501 OA
ATOM     23  H   UNL     1      11.151  -0.004  23.025  0.00  0.00    +0.292 HD
ENDBRANCH   6  22
BRANCH  10  24
ATOM     24  O   UNL     1      10.089  -5.016  24.744  0.00  0.00    -0.506 OA
ATOM     25  H   UNL     1       9.930  -5.960  24.901  0.00  0.00    +0.292 HD
ENDBRANCH  10  24
BRANCH   1  26
ATOM     26  O   UNL     1       6.545  -4.597  27.927  0.00  0.00    -0.426 OA
BRANCH  26  27
ATOM     27  C   UNL     1       5.906  -5.799  27.625  0.00  0.00    +0.312 C 
ATOM     28  O   UNL     1       6.178  -6.897  28.094  0.00  0.00    -0.250 OA
BRANCH  27  29
ATOM     29  C   UNL     1       4.879  -5.549  26.546  0.00  0.00    +0.121 C 
BRANCH  29  30
ATOM     30  C   UNL     1       4.709  -6.787  25.672  0.00  0.00    +0.011 C 
BRANCH  30  31
ATOM     31  C   UNL     1       4.638  -6.444  24.187  0.00  0.00    +0.001 C 
BRANCH  31  32
ATOM     32  C   UNL     1       5.402  -5.149  23.908  0.00  0.00    +0.000 C 
BRANCH  32  33
ATOM     33  C   UNL     1       6.551  -5.366  22.926  0.00  0.00    -0.000 C 
BRANCH  33  35
ATOM     34  C   UNL     1       5.952  -2.943  22.584  0.00  0.00    +0.004 C 
ATOM     35  C   UNL     1       6.893  -4.071  22.191  0.00  0.00    -0.003 C 
ENDBRANCH  33  35
ENDBRANCH  32  33
ENDBRANCH  31  32
ENDBRANCH  30  31
ENDBRANCH  29  30
ENDBRANCH  27  29
ENDBRANCH  26  27
ENDBRANCH   1  26
TORSDOF 13
ENDMDL
MODEL 3
REMARK VINA RESULT:      -7.4      2.697      5.394
REMARK  Name = 
REMARK  14 active torsions:
REMARK  status: ('A' for Active; 'I' for Inactive)
REMARK    1  A    between atoms: C_1  and  C_2
REMARK    2  A    between atoms: C_2  and  C_3
REMARK    3  A    between atoms: C_3  and  C_4
REMARK    4  A    between atoms: C_4  and  C_5
REMARK    5  A    between atoms: C_5  and  C_6
REMARK    6  A    between atoms: C_6  and  C_7
REMARK    7  A    between atoms: C_7  and  C_8
REMARK    8  A    between atoms: C_8  and  O_10
REMARK    9  A    between atoms: O_10  and  C_11
REMARK   10  A    between atoms: C_13  and  O_31
REMARK   11  A    between atoms: C_18  and  C_23
REMARK   12  A    between atoms: C_19  and  O_22
REMARK   13  A    between atoms: C_25  and  O_30
REMARK   14  A    between atoms: C_26  and  O_29
REMARK                            x       y       z     vdW  Elec       q    Type
REMARK                         _______ _______ _______ _____ _____    ______ ____
ROOT
ATOM      1  C   UNL     1       5.560  -3.485  27.644  0.00  0.00    +0.139 A 
ATOM      2  C   UNL     1       6.089  -2.411  26.930  0.00  0.00    +0.093 A 
ATOM      3  C   UNL     1       7.198  -2.605  26.113  0.00  0.00    +0.147 A 
ATOM      4  O   UNL     1       7.629  -1.495  25.434  0.00  0.00    -0.451 OA
ATOM      5  C   UNL     1       8.730  -1.618  24.619  0.00  0.00    +0.181 A 
ATOM      6  C   UNL     1       9.430  -2.753  24.425  0.00  0.00    +0.208 A 
ATOM      7  C   UNL     1       8.992  -3.989  25.143  0.00  0.00    +0.238 A 
ATOM      8  O   UNL     1       9.599  -5.043  24.989  0.00  0.00    -0.283 OA
ATOM      9  C   UNL     1       7.804  -3.861  26.023  0.00  0.00    +0.109 A 
ATOM     10  C   UNL     1       7.279  -4.927  26.774  0.00  0.00    +0.135 A 
ATOM     11  C   UNL     1       6.154  -4.744  27.587  0.00  0.00    +0.092 A 
ENDROOT
BRANCH   5  12
ATOM     12  C   UNL     1       9.106  -0.370  23.945  0.00  0.00    +0.025 A 
ATOM     13  C   UNL     1      10.078   0.466  24.519  0.00  0.00    +0.015 A 
ATOM     14  C   UNL     1      10.586   1.550  23.803  0.00  0.00    +0.050 A 
ATOM     15  C   UNL     1      10.116   1.792  22.520  0.00  0.00    +0.158 A 
ATOM     16  C   UNL     1       9.123   0.993  21.958  0.00  0.00    +0.159 A 
ATOM     17  C   UNL     1       8.603  -0.085  22.666  0.00  0.00    +0.060 A 
BRANCH  15  18
ATOM     18  O   UNL     1      10.662   2.812  21.796  0.00  0.00    -0.503 OA
ATOM     19  H   UNL     1      11.524   2.986  22.223  0.00  0.00    +0.292 HD
ENDBRANCH  15  18
BRANCH  16  20
ATOM     20  O   UNL     1       8.717   1.287  20.686  0.00  0.00    -0.503 OA
ATOM     21  H   UNL     1       9.380   1.870  20.277  0.00  0.00    +0.292 HD
ENDBRANCH  16  20
ENDBRANCH   5  12
BRANCH   6  22
ATOM     22  O   UNL     1      10.536  -2.852  23.597  0.00  0.00    -0.501 OA
ATOM     23  H   UNL     1      10.264  -2.735  22.672  0.00  0.00    +0.292 HD
ENDBRANCH   6  22
BRANCH  10  24
ATOM     24  O   UNL     1       7.864  -6.161  26.735  0.00  0.00    -0.506 OA
ATOM     25  H   UNL     1       7.549  -6.675  25.975  0.00  0.00    +0.292 HD
ENDBRANCH  10  24
BRANCH   1  26
ATOM     26  O   UNL     1       4.497  -3.284  28.536  0.00  0.00    -0.426 OA
BRANCH  26  27
ATOM     27  C   UNL     1       3.362  -4.056  28.290  0.00  0.00    +0.312 C 
ATOM     28  O   UNL     1       3.047  -5.082  28.879  0.00  0.00    -0.250 OA
BRANCH  27  29
ATOM     29  C   UNL     1       2.625  -3.478  27.105  0.00  0.00    +0.121 C 
BRANCH  29  30
ATOM     30  C   UNL     1       2.444  -4.534  26.020  0.00  0.00    +0.011 C 
BRANCH  30  31
ATOM     31  C   UNL     1       3.257  -4.225  24.767  0.00  0.00    +0.001 C 
BRANCH  31  32
ATOM     32  C   UNL     1       4.259  -5.348  24.499  0.00  0.00    +0.000 C 
BRANCH  32  33
ATOM     33  C   UNL     1       5.325  -4.932  23.487  0.00  0.00    -0.000 C 
BRANCH  33  35
ATOM     34  C   UNL     1       6.294  -3.004  22.185  0.00  0.00    +0.004 C 
ATOM     35  C   UNL     1       5.203  -3.447  23.147  0.00  0.00    -0.003 C 
ENDBRANCH  33  35
ENDBRANCH  32  33
ENDBRANCH  31  32
ENDBRANCH  30  31
ENDBRANCH  29  30
ENDBRANCH  27  29
ENDBRANCH  26  27
ENDBRANCH   1  26
TORSDOF 13
ENDMDL
MODEL 4
REMARK VINA RESULT:      -7.1      2.172      9.796
REMARK  Name = 
REMARK  14 active torsions:
REMARK  status: ('A' for Active; 'I' for Inactive)
REMARK    1  A    between atoms: C_1  and  C_2
REMARK    2  A    between atoms: C_2  and  C_3
REMARK    3  A    between atoms: C_3  and  C_4
REMARK    4  A    between atoms: C_4  and  C_5
REMARK    5  A    between atoms: C_5  and  C_6
REMARK    6  A    between atoms: C_6  and  C_7
REMARK    7  A    between atoms: C_7  and  C_8
REMARK    8  A    between atoms: C_8  and  O_10
REMARK    9  A    between atoms: O_10  and  C_11
REMARK   10  A    between atoms: C_13  and  O_31
REMARK   11  A    between atoms: C_18  and  C_23
REMARK   12  A    between atoms: C_19  and  O_22
REMARK   13  A    between atoms: C_25  and  O_30
REMARK   14  A    between atoms: C_26  and  O_29
REMARK                            x       y       z     vdW  Elec       q    Type
REMARK                         _______ _______ _______ _____ _____    ______ ____
ROOT
ATOM      1  C   UNL     1       7.520   1.156  23.941  0.00  0.00    +0.139 A 
ATOM      2  C   UNL     1       6.692   0.035  23.988  0.00  0.00    +0.093 A 
ATOM      3  C   UNL     1       7.253  -1.238  23.983  0.00  0.00    +0.147 A 
ATOM      4  O   UNL     1       6.359  -2.274  24.056  0.00  0.00    -0.451 OA
ATOM      5  C   UNL     1       6.849  -3.559  24.041  0.00  0.00    +0.181 A 
ATOM      6  C   UNL     1       8.153  -3.892  23.964  0.00  0.00    +0.208 A 
ATOM      7  C   UNL     1       9.163  -2.792  23.886  0.00  0.00    +0.238 A 
ATOM      8  O   UNL     1      10.359  -3.054  23.820  0.00  0.00    -0.283 OA
ATOM      9  C   UNL     1       8.638  -1.405  23.901  0.00  0.00    +0.109 A 
ATOM     10  C   UNL     1       9.458  -0.266  23.822  0.00  0.00    +0.135 A 
ATOM     11  C   UNL     1       8.903   1.019  23.842  0.00  0.00    +0.092 A 
ENDROOT
BRANCH   5  12
ATOM     12  C   UNL     1       5.806  -4.589  24.121  0.00  0.00    +0.025 A 
ATOM     13  C   UNL     1       5.062  -4.916  22.974  0.00  0.00    +0.015 A 
ATOM     14  C   UNL     1       4.208  -6.018  22.981  0.00  0.00    +0.050 A 
ATOM     15  C   UNL     1       4.101  -6.783  24.133  0.00  0.00    +0.158 A 
ATOM     16  C   UNL     1       4.803  -6.443  25.287  0.00  0.00    +0.159 A 
ATOM     17  C   UNL     1       5.651  -5.341  25.295  0.00  0.00    +0.060 A 
BRANCH  15  18
ATOM     18  O   UNL     1       3.317  -7.900  24.117  0.00  0.00    -0.503 OA
ATOM     19  H   UNL     1       3.419  -8.262  23.215  0.00  0.00    +0.292 HD
ENDBRANCH  15  18
BRANCH  16  20
ATOM     20  O   UNL     1       4.655  -7.250  26.380  0.00  0.00    -0.503 OA
ATOM     21  H   UNL     1       4.365  -8.128  26.080  0.00  0.00    +0.292 HD
ENDBRANCH  16  20
ENDBRANCH   5  12
BRANCH   6  22
ATOM     22  O   UNL     1       8.622  -5.195  23.953  0.00  0.00    -0.501 OA
ATOM     23  H   UNL     1       8.924  -5.427  23.060  0.00  0.00    +0.292 HD
ENDBRANCH   6  22
BRANCH  10  24
ATOM     24  O   UNL     1      10.814  -0.391  23.711  0.00  0.00    -0.506 OA
ATOM     25  H   UNL     1      11.053  -1.145  23.149  0.00  0.00    +0.292 HD
ENDBRANCH  10  24
BRANCH   1  26
ATOM     26  O   UNL     1       6.965   2.441  23.859  0.00  0.00    -0.426 OA
BRANCH  26  27
ATOM     27  C   UNL     1       7.067   3.052  22.610  0.00  0.00    +0.312 C 
ATOM     28  O   UNL     1       6.864   2.518  21.528  0.00  0.00    -0.250 OA
BRANCH  27  29
ATOM     29  C   UNL     1       7.568   4.465  22.797  0.00  0.00    +0.121 C 
BRANCH  29  30
ATOM     30  C   UNL     1       8.288   4.605  24.135  0.00  0.00    +0.011 C 
BRANCH  30  31
ATOM     31  C   UNL     1       9.806   4.599  23.980  0.00  0.00    +0.001 C 
BRANCH  31  32
ATOM     32  C   UNL     1      10.337   6.032  23.940  0.00  0.00    +0.000 C 
BRANCH  32  33
ATOM     33  C   UNL     1      11.859   6.079  24.059  0.00  0.00    -0.000 C 
BRANCH  33  35
ATOM     34  C   UNL     1      13.277   5.566  22.040  0.00  0.00    +0.004 C 
ATOM     35  C   UNL     1      12.506   4.983  23.214  0.00  0.00    -0.003 C 
ENDBRANCH  33  35
ENDBRANCH  32  33
ENDBRANCH  31  32
ENDBRANCH  30  31
ENDBRANCH  29  30
ENDBRANCH  27  29
ENDBRANCH  26  27
ENDBRANCH   1  26
TORSDOF 13
ENDMDL
MODEL 5
REMARK VINA RESULT:      -7.0      2.601      4.552
REMARK  Name = 
REMARK  14 active torsions:
REMARK  status: ('A' for Active; 'I' for Inactive)
REMARK    1  A    between atoms: C_1  and  C_2
REMARK    2  A    between atoms: C_2  and  C_3
REMARK    3  A    between atoms: C_3  and  C_4
REMARK    4  A    between atoms: C_4  and  C_5
REMARK    5  A    between atoms: C_5  and  C_6
REMARK    6  A    between atoms: C_6  and  C_7
REMARK    7  A    between atoms: C_7  and  C_8
REMARK    8  A    between atoms: C_8  and  O_10
REMARK    9  A    between atoms: O_10  and  C_11
REMARK   10  A    between atoms: C_13  and  O_31
REMARK   11  A    between atoms: C_18  and  C_23
REMARK   12  A    between atoms: C_19  and  O_22
REMARK   13  A    between atoms: C_25  and  O_30
REMARK   14  A    between atoms: C_26  and  O_29
REMARK                            x       y       z     vdW  Elec       q    Type
REMARK                         _______ _______ _______ _____ _____    ______ ____
ROOT
ATOM      1  C   UNL     1       4.823  -3.531  23.422  0.00  0.00    +0.139 A 
ATOM      2  C   UNL     1       5.735  -2.495  23.228  0.00  0.00    +0.093 A 
ATOM      3  C   UNL     1       5.945  -1.562  24.237  0.00  0.00    +0.147 A 
ATOM      4  O   UNL     1       6.878  -0.597  23.961  0.00  0.00    -0.451 OA
ATOM      5  C   UNL     1       7.121   0.365  24.913  0.00  0.00    +0.181 A 
ATOM      6  C   UNL     1       6.515   0.439  26.114  0.00  0.00    +0.208 A 
ATOM      7  C   UNL     1       5.493  -0.596  26.459  0.00  0.00    +0.238 A 
ATOM      8  O   UNL     1       4.923  -0.566  27.545  0.00  0.00    -0.283 OA
ATOM      9  C   UNL     1       5.227  -1.635  25.434  0.00  0.00    +0.109 A 
ATOM     10  C   UNL     1       4.288  -2.667  25.603  0.00  0.00    +0.135 A 
ATOM     11  C   UNL     1       4.082  -3.620  24.598  0.00  0.00    +0.092 A 
ENDROOT
BRANCH   5  12
ATOM     12  C   UNL     1       8.134   1.349  24.512  0.00  0.00    +0.025 A 
ATOM     13  C   UNL     1       9.497   1.063  24.705  0.00  0.00    +0.015 A 
ATOM     14  C   UNL     1      10.474   1.892  24.156  0.00  0.00    +0.050 A 
ATOM     15  C   UNL     1      10.084   3.002  23.422  0.00  0.00    +0.158 A 
ATOM     16  C   UNL     1       8.736   3.317  23.260  0.00  0.00    +0.159 A 
ATOM     17  C   UNL     1       7.753   2.502  23.809  0.00  0.00    +0.060 A 
BRANCH  15  18
ATOM     18  O   UNL     1      11.040   3.775  22.830  0.00  0.00    -0.503 OA
ATOM     19  H   UNL     1      11.885   3.450  23.198  0.00  0.00    +0.292 HD
ENDBRANCH  15  18
BRANCH  16  20
ATOM     20  O   UNL     1       8.429   4.421  22.515  0.00  0.00    -0.503 OA
ATOM     21  H   UNL     1       9.255   4.807  22.178  0.00  0.00    +0.292 HD
ENDBRANCH  16  20
ENDBRANCH   5  12
BRANCH   6  22
ATOM     22  O   UNL     1       6.779   1.417  27.059  0.00  0.00    -0.501 OA
ATOM     23  H   UNL     1       7.423   2.051  26.704  0.00  0.00    +0.292 HD
ENDBRANCH   6  22
BRANCH  10  24
ATOM     24  O   UNL     1       3.546  -2.752  26.748  0.00  0.00    -0.506 OA
ATOM     25  H   UNL     1       3.626  -1.945  27.279  0.00  0.00    +0.292 HD
ENDBRANCH  10  24
BRANCH   1  26
ATOM     26  O   UNL     1       4.540  -4.428  22.381  0.00  0.00    -0.426 OA
BRANCH  26  27
ATOM     27  C   UNL     1       5.653  -5.046  21.812  0.00  0.00    +0.312 C 
ATOM     28  O   UNL     1       6.004  -4.962  20.642  0.00  0.00    -0.250 OA
BRANCH  27  29
ATOM     29  C   UNL     1       6.311  -5.923  22.852  0.00  0.00    +0.121 C 
BRANCH  29  30
ATOM     30  C   UNL     1       7.738  -5.458  23.119  0.00  0.00    +0.011 C 
BRANCH  30  31
ATOM     31  C   UNL     1       7.954  -5.053  24.574  0.00  0.00    +0.001 C 
BRANCH  31  32
ATOM     32  C   UNL     1       9.324  -4.394  24.740  0.00  0.00    +0.000 C 
BRANCH  32  33
ATOM     33  C   UNL     1       9.243  -2.874  24.608  0.00  0.00    -0.000 C 
BRANCH  33  35
ATOM     34  C   UNL     1       9.415  -1.819  22.326  0.00  0.00    +0.004 C 
ATOM     35  C   UNL     1      10.185  -2.370  23.515  0.00  0.00    -0.003 C 
ENDBRANCH  33  35
ENDBRANCH  32  33
ENDBRANCH  31  32
ENDBRANCH  30  31
ENDBRANCH  29  30
ENDBRANCH  27  29
ENDBRANCH  26  27
ENDBRANCH   1  26
TORSDOF 13
ENDMDL
MODEL 6
REMARK VINA RESULT:      -7.0      3.052      5.268
REMARK  Name = 
REMARK  14 active torsions:
REMARK  status: ('A' for Active; 'I' for Inactive)
REMARK    1  A    between atoms: C_1  and  C_2
REMARK    2  A    between atoms: C_2  and  C_3
REMARK    3  A    between atoms: C_3  and  C_4
REMARK    4  A    between atoms: C_4  and  C_5
REMARK    5  A    between atoms: C_5  and  C_6
REMARK    6  A    between atoms: C_6  and  C_7
REMARK    7  A    between atoms: C_7  and  C_8
REMARK    8  A    between atoms: C_8  and  O_10
REMARK    9  A    between atoms: O_10  and  C_11
REMARK   10  A    between atoms: C_13  and  O_31
REMARK   11  A    between atoms: C_18  and  C_23
REMARK   12  A    between atoms: C_19  and  O_22
REMARK   13  A    between atoms: C_25  and  O_30
REMARK   14  A    between atoms: C_26  and  O_29
REMARK                            x       y       z     vdW  Elec       q    Type
REMARK                         _______ _______ _______ _____ _____    ______ ____
ROOT
ATOM      1  C   UNL     1       5.608  -4.970  22.569  0.00  0.00    +0.139 A 
ATOM      2  C   UNL     1       5.596  -3.578  22.500  0.00  0.00    +0.093 A 
ATOM      3  C   UNL     1       6.727  -2.859  22.870  0.00  0.00    +0.147 A 
ATOM      4  O   UNL     1       6.626  -1.498  22.744  0.00  0.00    -0.451 OA
ATOM      5  C   UNL     1       7.707  -0.728  23.107  0.00  0.00    +0.181 A 
ATOM      6  C   UNL     1       8.875  -1.204  23.579  0.00  0.00    +0.208 A 
ATOM      7  C   UNL     1       9.031  -2.684  23.729  0.00  0.00    +0.238 A 
ATOM      8  O   UNL     1      10.081  -3.157  24.150  0.00  0.00    -0.283 OA
ATOM      9  C   UNL     1       7.867  -3.517  23.339  0.00  0.00    +0.109 A 
ATOM     10  C   UNL     1       7.854  -4.920  23.433  0.00  0.00    +0.135 A 
ATOM     11  C   UNL     1       6.724  -5.653  23.049  0.00  0.00    +0.092 A 
ENDROOT
BRANCH   5  12
ATOM     12  C   UNL     1       7.488   0.713  22.935  0.00  0.00    +0.025 A 
ATOM     13  C   UNL     1       8.071   1.380  21.844  0.00  0.00    +0.015 A 
ATOM     14  C   UNL     1       7.719   2.698  21.556  0.00  0.00    +0.050 A 
ATOM     15  C   UNL     1       6.789   3.340  22.359  0.00  0.00    +0.158 A 
ATOM     16  C   UNL     1       6.235   2.701  23.467  0.00  0.00    +0.159 A 
ATOM     17  C   UNL     1       6.585   1.390  23.770  0.00  0.00    +0.060 A 
BRANCH  15  18
ATOM     18  O   UNL     1       6.396   4.607  22.036  0.00  0.00    -0.503 OA
ATOM     19  H   UNL     1       7.017   5.190  22.514  0.00  0.00    +0.292 HD
ENDBRANCH  15  18
BRANCH  16  20
ATOM     20  O   UNL     1       5.318   3.395  24.206  0.00  0.00    -0.503 OA
ATOM     21  H   UNL     1       5.092   2.868  24.992  0.00  0.00    +0.292 HD
ENDBRANCH  16  20
ENDBRANCH   5  12
BRANCH   6  22
ATOM     22  O   UNL     1       9.951  -0.408  23.936  0.00  0.00    -0.501 OA
ATOM     23  H   UNL     1      10.739  -0.679  23.439  0.00  0.00    +0.292 HD
ENDBRANCH   6  22
BRANCH  10  24
ATOM     24  O   UNL     1       8.939  -5.596  23.915  0.00  0.00    -0.506 OA
ATOM     25  H   UNL     1       9.525  -5.007  24.416  0.00  0.00    +0.292 HD
ENDBRANCH  10  24
BRANCH   1  26
ATOM     26  O   UNL     1       4.446  -5.702  22.282  0.00  0.00    -0.426 OA
BRANCH  26  27
ATOM     27  C   UNL     1       3.779  -6.216  23.393  0.00  0.00    +0.312 C 
ATOM     28  O   UNL     1       4.066  -7.244  23.993  0.00  0.00    -0.250 OA
BRANCH  27  29
ATOM     29  C   UNL     1       2.575  -5.352  23.683  0.00  0.00    +0.121 C 
BRANCH  29  30
ATOM     30  C   UNL     1       2.629  -4.822  25.113  0.00  0.00    +0.011 C 
BRANCH  30  31
ATOM     31  C   UNL     1       3.492  -3.570  25.236  0.00  0.00    +0.001 C 
BRANCH  31  32
ATOM     32  C   UNL     1       4.478  -3.722  26.394  0.00  0.00    +0.000 C 
BRANCH  32  33
ATOM     33  C   UNL     1       4.597  -5.174  26.854  0.00  0.00    -0.000 C 
BRANCH  33  35
ATOM     34  C   UNL     1       7.072  -4.742  27.047  0.00  0.00    +0.004 C 
ATOM     35  C   UNL     1       6.000  -5.718  26.588  0.00  0.00    -0.003 C 
ENDBRANCH  33  35
ENDBRANCH  32  33
ENDBRANCH  31  32
ENDBRANCH  30  31
ENDBRANCH  29  30
ENDBRANCH  27  29
ENDBRANCH  26  27
ENDBRANCH   1  26
TORSDOF 13
ENDMDL
MODEL 7
REMARK VINA RESULT:      -6.8      2.398      4.452
REMARK  Name = 
REMARK  14 active torsions:
REMARK  status: ('A' for Active; 'I' for Inactive)
REMARK    1  A    between atoms: C_1  and  C_2
REMARK    2  A    between atoms: C_2  and  C_3
REMARK    3  A    between atoms: C_3  and  C_4
REMARK    4  A    between atoms: C_4  and  C_5
REMARK    5  A    between atoms: C_5  and  C_6
REMARK    6  A    between atoms: C_6  and  C_7
REMARK    7  A    between atoms: C_7  and  C_8
REMARK    8  A    between atoms: C_8  and  O_10
REMARK    9  A    between atoms: O_10  and  C_11
REMARK   10  A    between atoms: C_13  and  O_31
REMARK   11  A    between atoms: C_18  and  C_23
REMARK   12  A    between atoms: C_19  and  O_22
REMARK   13  A    between atoms: C_25  and  O_30
REMARK   14  A    between atoms: C_26  and  O_29
REMARK                            x       y       z     vdW  Elec       q    Type
REMARK                         _______ _______ _______ _____ _____    ______ ____
ROOT
ATOM      1  C   UNL     1       7.855  -4.580  23.285  0.00  0.00    +0.139 A 
ATOM      2  C   UNL     1       7.670  -3.275  22.832  0.00  0.00    +0.093 A 
ATOM      3  C   UNL     1       7.930  -2.205  23.683  0.00  0.00    +0.147 A 
ATOM      4  O   UNL     1       7.742  -0.962  23.138  0.00  0.00    -0.451 OA
ATOM      5  C   UNL     1       7.969   0.138  23.932  0.00  0.00    +0.181 A 
ATOM      6  C   UNL     1       8.369   0.097  25.218  0.00  0.00    +0.208 A 
ATOM      7  C   UNL     1       8.590  -1.239  25.852  0.00  0.00    +0.238 A 
ATOM      8  O   UNL     1       8.959  -1.318  27.018  0.00  0.00    -0.283 OA
ATOM      9  C   UNL     1       8.346  -2.428  24.998  0.00  0.00    +0.109 A 
ATOM     10  C   UNL     1       8.497  -3.750  25.451  0.00  0.00    +0.135 A 
ATOM     11  C   UNL     1       8.252  -4.832  24.597  0.00  0.00    +0.092 A 
ENDROOT
BRANCH   5  12
ATOM     12  C   UNL     1       7.735   1.416  23.250  0.00  0.00    +0.025 A 
ATOM     13  C   UNL     1       6.493   1.662  22.640  0.00  0.00    +0.015 A 
ATOM     14  C   UNL     1       6.185   2.935  22.160  0.00  0.00    +0.050 A 
ATOM     15  C   UNL     1       7.121   3.950  22.289  0.00  0.00    +0.158 A 
ATOM     16  C   UNL     1       8.370   3.706  22.855  0.00  0.00    +0.159 A 
ATOM     17  C   UNL     1       8.692   2.439  23.329  0.00  0.00    +0.060 A 
BRANCH  15  18
ATOM     18  O   UNL     1       6.793   5.210  21.879  0.00  0.00    -0.503 OA
ATOM     19  H   UNL     1       6.257   5.577  22.610  0.00  0.00    +0.292 HD
ENDBRANCH  15  18
BRANCH  16  20
ATOM     20  O   UNL     1       9.237   4.758  22.957  0.00  0.00    -0.503 OA
ATOM     21  H   UNL     1       8.769   5.506  23.368  0.00  0.00    +0.292 HD
ENDBRANCH  16  20
ENDBRANCH   5  12
BRANCH   6  22
ATOM     22  O   UNL     1       8.593   1.220  25.998  0.00  0.00    -0.501 OA
ATOM     23  H   UNL     1       8.892   0.952  26.881  0.00  0.00    +0.292 HD
ENDBRANCH   6  22
BRANCH  10  24
ATOM     24  O   UNL     1       8.873  -4.006  26.740  0.00  0.00    -0.506 OA
ATOM     25  H   UNL     1       8.152  -3.817  27.360  0.00  0.00    +0.292 HD
ENDBRANCH  10  24
BRANCH   1  26
ATOM     26  O   UNL     1       7.515  -5.666  22.467  0.00  0.00    -0.426 OA
BRANCH  26  27
ATOM     27  C   UNL     1       6.231  -5.622  21.925  0.00  0.00    +0.312 C 
ATOM     28  O   UNL     1       5.947  -5.355  20.764  0.00  0.00    -0.250 OA
BRANCH  27  29
ATOM     29  C   UNL     1       5.226  -5.858  23.028  0.00  0.00    +0.121 C 
BRANCH  29  30
ATOM     30  C   UNL     1       4.206  -4.726  23.074  0.00  0.00    +0.011 C 
BRANCH  30  31
ATOM     31  C   UNL     1       4.323  -3.890  24.346  0.00  0.00    +0.001 C 
BRANCH  31  32
ATOM     32  C   UNL     1       4.680  -4.785  25.533  0.00  0.00    +0.000 C 
BRANCH  32  33
ATOM     33  C   UNL     1       5.093  -3.970  26.757  0.00  0.00    -0.000 C 
BRANCH  33  35
ATOM     34  C   UNL     1       6.246  -5.771  28.090  0.00  0.00    +0.004 C 
ATOM     35  C   UNL     1       5.056  -4.828  28.021  0.00  0.00    -0.003 C 
ENDBRANCH  33  35
ENDBRANCH  32  33
ENDBRANCH  31  32
ENDBRANCH  30  31
ENDBRANCH  29  30
ENDBRANCH  27  29
ENDBRANCH  26  27
ENDBRANCH   1  26
TORSDOF 13
ENDMDL
MODEL 8
REMARK VINA RESULT:      -6.8      2.631      9.710
REMARK  Name = 
REMARK  14 active torsions:
REMARK  status: ('A' for Active; 'I' for Inactive)
REMARK    1  A    between atoms: C_1  and  C_2
REMARK    2  A    between atoms: C_2  and  C_3
REMARK    3  A    between atoms: C_3  and  C_4
REMARK    4  A    between atoms: C_4  and  C_5
REMARK    5  A    between atoms: C_5  and  C_6
REMARK    6  A    between atoms: C_6  and  C_7
REMARK    7  A    between atoms: C_7  and  C_8
REMARK    8  A    between atoms: C_8  and  O_10
REMARK    9  A    between atoms: O_10  and  C_11
REMARK   10  A    between atoms: C_13  and  O_31
REMARK   11  A    between atoms: C_18  and  C_23
REMARK   12  A    between atoms: C_19  and  O_22
REMARK   13  A    between atoms: C_25  and  O_30
REMARK   14  A    between atoms: C_26  and  O_29
REMARK                            x       y       z     vdW  Elec       q    Type
REMARK                         _______ _______ _______ _____ _____    ______ ____
ROOT
ATOM      1  C   UNL     1       7.431  -0.522  23.140  0.00  0.00    +0.139 A 
ATOM      2  C   UNL     1       6.688  -1.354  23.975  0.00  0.00    +0.093 A 
ATOM      3  C   UNL     1       7.275  -2.496  24.512  0.00  0.00    +0.147 A 
ATOM      4  O   UNL     1       6.472  -3.235  25.340  0.00  0.00    -0.451 OA
ATOM      5  C   UNL     1       6.989  -4.385  25.891  0.00  0.00    +0.181 A 
ATOM      6  C   UNL     1       8.237  -4.851  25.687  0.00  0.00    +0.208 A 
ATOM      7  C   UNL     1       9.148  -4.073  24.793  0.00  0.00    +0.238 A 
ATOM      8  O   UNL     1      10.293  -4.461  24.587  0.00  0.00    -0.283 OA
ATOM      9  C   UNL     1       8.594  -2.833  24.196  0.00  0.00    +0.109 A 
ATOM     10  C   UNL     1       9.321  -2.001  23.326  0.00  0.00    +0.135 A 
ATOM     11  C   UNL     1       8.743  -0.842  22.795  0.00  0.00    +0.092 A 
ENDROOT
BRANCH   5  12
ATOM     12  C   UNL     1       6.044  -5.099  26.758  0.00  0.00    +0.025 A 
ATOM     13  C   UNL     1       5.217  -6.096  26.213  0.00  0.00    +0.015 A 
ATOM     14  C   UNL     1       4.458  -6.914  27.049  0.00  0.00    +0.050 A 
ATOM     15  C   UNL     1       4.528  -6.729  28.422  0.00  0.00    +0.158 A 
ATOM     16  C   UNL     1       5.313  -5.716  28.969  0.00  0.00    +0.159 A 
ATOM     17  C   UNL     1       6.067  -4.888  28.145  0.00  0.00    +0.060 A 
BRANCH  15  18
ATOM     18  O   UNL     1       3.837  -7.574  29.241  0.00  0.00    -0.503 OA
ATOM     19  H   UNL     1       3.659  -7.048  30.046  0.00  0.00    +0.292 HD
ENDBRANCH  15  18
BRANCH  16  20
ATOM     20  O   UNL     1       5.339  -5.601  30.331  0.00  0.00    -0.503 OA
ATOM     21  H   UNL     1       6.218  -5.871  30.648  0.00  0.00    +0.292 HD
ENDBRANCH  16  20
ENDBRANCH   5  12
BRANCH   6  22
ATOM     22  O   UNL     1       8.736  -6.011  26.256  0.00  0.00    -0.501 OA
ATOM     23  H   UNL     1       9.705  -5.981  26.265  0.00  0.00    +0.292 HD
ENDBRANCH   6  22
BRANCH  10  24
ATOM     24  O   UNL     1      10.603  -2.315  22.972  0.00  0.00    -0.506 OA
ATOM     25  H   UNL     1      10.627  -3.091  22.392  0.00  0.00    +0.292 HD
ENDBRANCH  10  24
BRANCH   1  26
ATOM     26  O   UNL     1       6.826   0.584  22.526  0.00  0.00    -0.426 OA
BRANCH  26  27
ATOM     27  C   UNL     1       7.536   1.780  22.626  0.00  0.00    +0.312 C 
ATOM     28  O   UNL     1       8.260   2.263  21.765  0.00  0.00    -0.250 OA
BRANCH  27  29
ATOM     29  C   UNL     1       7.349   2.344  24.015  0.00  0.00    +0.121 C 
BRANCH  29  30
ATOM     30  C   UNL     1       8.693   2.739  24.618  0.00  0.00    +0.011 C 
BRANCH  30  31
ATOM     31  C   UNL     1       8.767   4.226  24.949  0.00  0.00    +0.001 C 
BRANCH  31  32
ATOM     32  C   UNL     1       9.340   5.002  23.763  0.00  0.00    +0.000 C 
BRANCH  32  33
ATOM     33  C   UNL     1       8.622   6.334  23.554  0.00  0.00    -0.000 C 
BRANCH  33  35
ATOM     34  C   UNL     1       6.407   5.690  22.539  0.00  0.00    +0.004 C 
ATOM     35  C   UNL     1       7.774   6.304  22.283  0.00  0.00    -0.003 C 
ENDBRANCH  33  35
ENDBRANCH  32  33
ENDBRANCH  31  32
ENDBRANCH  30  31
ENDBRANCH  29  30
ENDBRANCH  27  29
ENDBRANCH  26  27
ENDBRANCH   1  26
TORSDOF 13
ENDMDL
MODEL 9
REMARK VINA RESULT:      -6.8      2.930      9.268
REMARK  Name = 
REMARK  14 active torsions:
REMARK  status: ('A' for Active; 'I' for Inactive)
REMARK    1  A    between atoms: C_1  and  C_2
REMARK    2  A    between atoms: C_2  and  C_3
REMARK    3  A    between atoms: C_3  and  C_4
REMARK    4  A    between atoms: C_4  and  C_5
REMARK    5  A    between atoms: C_5  and  C_6
REMARK    6  A    between atoms: C_6  and  C_7
REMARK    7  A    between atoms: C_7  and  C_8
REMARK    8  A    between atoms: C_8  and  O_10
REMARK    9  A    between atoms: O_10  and  C_11
REMARK   10  A    between atoms: C_13  and  O_31
REMARK   11  A    between atoms: C_18  and  C_23
REMARK   12  A    between atoms: C_19  and  O_22
REMARK   13  A    between atoms: C_25  and  O_30
REMARK   14  A    between atoms: C_26  and  O_29
REMARK                            x       y       z     vdW  Elec       q    Type
REMARK                         _______ _______ _______ _____ _____    ______ ____
ROOT
ATOM      1  C   UNL     1       7.303   0.515  26.070  0.00  0.00    +0.139 A 
ATOM      2  C   UNL     1       6.607  -0.691  26.031  0.00  0.00    +0.093 A 
ATOM      3  C   UNL     1       7.217  -1.824  25.502  0.00  0.00    +0.147 A 
ATOM      4  O   UNL     1       6.460  -2.967  25.530  0.00  0.00    -0.451 OA
ATOM      5  C   UNL     1       7.002  -4.119  25.008  0.00  0.00    +0.181 A 
ATOM      6  C   UNL     1       8.231  -4.223  24.468  0.00  0.00    +0.208 A 
ATOM      7  C   UNL     1       9.092  -3.001  24.420  0.00  0.00    +0.238 A 
ATOM      8  O   UNL     1      10.220  -3.057  23.941  0.00  0.00    -0.283 OA
ATOM      9  C   UNL     1       8.512  -1.757  24.982  0.00  0.00    +0.109 A 
ATOM     10  C   UNL     1       9.190  -0.526  24.999  0.00  0.00    +0.135 A 
ATOM     11  C   UNL     1       8.589   0.616  25.543  0.00  0.00    +0.092 A 
ENDROOT
BRANCH   5  12
ATOM     12  C   UNL     1       6.106  -5.278  25.087  0.00  0.00    +0.025 A 
ATOM     13  C   UNL     1       5.894  -5.911  26.324  0.00  0.00    +0.015 A 
ATOM     14  C   UNL     1       4.904  -6.885  26.456  0.00  0.00    +0.050 A 
ATOM     15  C   UNL     1       4.135  -7.220  25.351  0.00  0.00    +0.158 A 
ATOM     16  C   UNL     1       4.365  -6.628  24.111  0.00  0.00    +0.159 A 
ATOM     17  C   UNL     1       5.355  -5.663  23.966  0.00  0.00    +0.060 A 
BRANCH  15  18
ATOM     18  O   UNL     1       3.123  -8.124  25.498  0.00  0.00    -0.503 OA
ATOM     19  H   UNL     1       2.735  -8.209  24.605  0.00  0.00    +0.292 HD
ENDBRANCH  15  18
BRANCH  16  20
ATOM     20  O   UNL     1       3.561  -7.003  23.071  0.00  0.00    -0.503 OA
ATOM     21  H   UNL     1       2.751  -6.464  23.096  0.00  0.00    +0.292 HD
ENDBRANCH  16  20
ENDBRANCH   5  12
BRANCH   6  22
ATOM     22  O   UNL     1       8.756  -5.396  23.951  0.00  0.00    -0.501 OA
ATOM     23  H   UNL     1       9.721  -5.323  23.885  0.00  0.00    +0.292 HD
ENDBRANCH   6  22
BRANCH  10  24
ATOM     24  O   UNL     1      10.446  -0.415  24.471  0.00  0.00    -0.506 OA
ATOM     25  H   UNL     1      10.420  -0.394  23.502  0.00  0.00    +0.292 HD
ENDBRANCH  10  24
BRANCH   1  26
ATOM     26  O   UNL     1       6.670   1.682  26.522  0.00  0.00    -0.426 OA
BRANCH  26  27
ATOM     27  C   UNL     1       5.945   2.375  25.554  0.00  0.00    +0.312 C 
ATOM     28  O   UNL     1       5.091   1.900  24.815  0.00  0.00    -0.250 OA
BRANCH  27  29
ATOM     29  C   UNL     1       6.450   3.797  25.489  0.00  0.00    +0.121 C 
BRANCH  29  30
ATOM     30  C   UNL     1       6.390   4.322  24.058  0.00  0.00    +0.011 C 
BRANCH  30  31
ATOM     31  C   UNL     1       7.640   3.968  23.257  0.00  0.00    +0.001 C 
BRANCH  31  32
ATOM     32  C   UNL     1       7.262   3.131  22.035  0.00  0.00    +0.000 C 
BRANCH  32  33
ATOM     33  C   UNL     1       7.531   1.644  22.259  0.00  0.00    -0.000 C 
BRANCH  33  35
ATOM     34  C   UNL     1      10.033   1.759  21.988  0.00  0.00    +0.004 C 
ATOM     35  C   UNL     1       8.738   1.179  21.445  0.00  0.00    -0.003 C 
ENDBRANCH  33  35
ENDBRANCH  32  33
ENDBRANCH  31  32
ENDBRANCH  30  31
ENDBRANCH  29  30
ENDBRANCH  27  29
ENDBRANCH  26  27
ENDBRANCH   1  26
TORSDOF 13
ENDMDL
