MODEL 1
REMARK VINA RESULT:      -7.9      0.000      0.000
REMARK  Name = 
REMARK  18 active torsions:
REMARK  status: ('A' for Active; 'I' for Inactive)
REMARK    1  A    between atoms: C_3  and  O_33
REMARK    2  A    between atoms: C_4  and  O_32
REMARK    3  A    between atoms: C_6  and  C_7
REMARK    4  A    between atoms: C_8  and  O_20
REMARK    5  A    between atoms: C_12  and  O_19
REMARK    6  A    between atoms: C_14  and  O_18
REMARK    7  A    between atoms: O_20  and  C_21
REMARK    8  A    between atoms: C_22  and  O_31
REMARK    9  A    between atoms: C_23  and  O_30
REMARK   10  A    between atoms: C_24  and  O_29
REMARK   11  A    between atoms: C_25  and  C_27
REMARK   12  A    between atoms: C_27  and  O_28
REMARK   13  A    between atoms: O_33  and  C_34
REMARK   14  A    between atoms: C_35  and  O_44
REMARK   15  A    between atoms: C_36  and  O_43
REMARK   16  A    between atoms: C_37  and  O_42
REMARK   17  A    between atoms: C_38  and  C_40
REMARK   18  A    between atoms: C_40  and  O_41
REMARK                            x       y       z     vdW  Elec       q    Type
REMARK                         _______ _______ _______ _____ _____    ______ ____
ROOT
ATOM      1  C   UNL     1       9.266   1.608  24.068  0.00  0.00    +0.181 A 
ATOM      2  O   UNL     1      10.562   1.946  23.747  0.00  0.00    -0.451 OA
ATOM      3  C   UNL     1      10.898   3.280  23.645  0.00  0.00    +0.147 A 
ATOM      4  C   UNL     1       9.957   4.298  23.793  0.00  0.00    +0.109 A 
ATOM      5  C   UNL     1      10.370   5.643  23.683  0.00  0.00    +0.135 A 
ATOM      6  C   UNL     1      11.712   5.967  23.450  0.00  0.00    +0.091 A 
ATOM      7  C   UNL     1      12.632   4.937  23.303  0.00  0.00    +0.124 A 
ATOM      8  C   UNL     1       8.568   3.916  24.086  0.00  0.00    +0.238 A 
ATOM      9  O   UNL     1       7.704   4.784  24.133  0.00  0.00    -0.283 OA
ATOM     10  C   UNL     1      12.236   3.602  23.388  0.00  0.00    +0.092 A 
ATOM     11  C   UNL     1       8.246   2.472  24.316  0.00  0.00    +0.214 A 
ENDROOT
BRANCH   1  13
ATOM     12  C   UNL     1       9.219  -0.524  25.355  0.00  0.00    +0.015 A 
ATOM     13  C   UNL     1       9.010   0.157  24.151  0.00  0.00    +0.025 A 
ATOM     14  C   UNL     1       8.676  -0.575  23.011  0.00  0.00    +0.060 A 
ATOM     15  C   UNL     1       8.700  -1.974  23.052  0.00  0.00    +0.159 A 
ATOM     16  C   UNL     1       9.083  -2.663  24.209  0.00  0.00    +0.165 A 
ATOM     17  C   UNL     1       9.252  -1.922  25.381  0.00  0.00    +0.050 A 
BRANCH  15  18
ATOM     18  O   UNL     1       8.362  -2.643  21.911  0.00  0.00    -0.503 OA
ATOM     19  H   UNL     1       7.636  -3.243  22.165  0.00  0.00    +0.292 HD
ENDBRANCH  15  18
BRANCH  16  20
ATOM     20  O   UNL     1       9.281  -4.033  24.124  0.00  0.00    -0.457 OA
BRANCH  20  21
ATOM     21  C   UNL     1       8.113  -4.813  24.503  0.00  0.00    +0.339 C 
ATOM     22  O   UNL     1       6.900  -4.245  23.965  0.00  0.00    -0.331 OA
ATOM     23  C   UNL     1       6.069  -3.484  24.848  0.00  0.00    +0.179 C 
ATOM     24  C   UNL     1       5.774  -4.264  26.131  0.00  0.00    +0.177 C 
ATOM     25  C   UNL     1       7.087  -4.431  26.866  0.00  0.00    +0.180 C 
ATOM     26  C   UNL     1       8.096  -5.192  26.020  0.00  0.00    +0.214 C 
BRANCH  26  27
ATOM     27  O   UNL     1       9.390  -5.086  26.639  0.00  0.00    -0.383 OA
ATOM     28  H   UNL     1      10.047  -5.364  25.973  0.00  0.00    +0.210 HD
ENDBRANCH  26  27
BRANCH  25  29
ATOM     29  O   UNL     1       6.839  -5.195  28.069  0.00  0.00    -0.386 OA
ATOM     30  H   UNL     1       5.950  -4.909  28.388  0.00  0.00    +0.210 HD
ENDBRANCH  25  29
BRANCH  24  31
ATOM     31  O   UNL     1       5.265  -5.585  25.880  0.00  0.00    -0.386 OA
ATOM     32  H   UNL     1       5.022  -5.963  26.754  0.00  0.00    +0.210 HD
ENDBRANCH  24  31
BRANCH  23  33
ATOM     33  C   UNL     1       4.752  -3.176  24.116  0.00  0.00    +0.190 C 
BRANCH  33  34
ATOM     34  O   UNL     1       3.679  -3.076  25.055  0.00  0.00    -0.392 OA
ATOM     35  H   UNL     1       4.098  -3.035  25.938  0.00  0.00    +0.210 HD
ENDBRANCH  33  34
ENDBRANCH  23  33
ENDBRANCH  20  21
ENDBRANCH  16  20
ENDBRANCH   1  13
BRANCH   7  36
ATOM     36  O   UNL     1      13.953   5.198  23.079  0.00  0.00    -0.507 OA
ATOM     37  H   UNL     1      14.086   5.379  22.133  0.00  0.00    +0.292 HD
ENDBRANCH   7  36
BRANCH   5  38
ATOM     38  O   UNL     1       9.519   6.711  23.799  0.00  0.00    -0.506 OA
ATOM     39  H   UNL     1       8.601   6.400  23.649  0.00  0.00    +0.292 HD
ENDBRANCH   5  38
BRANCH  11  40
ATOM     40  O   UNL     1       6.929   2.078  24.539  0.00  0.00    -0.453 OA
BRANCH  40  41
ATOM     41  C   UNL     1       6.289   2.524  25.772  0.00  0.00    +0.340 C 
ATOM     42  O   UNL     1       7.164   2.339  26.909  0.00  0.00    -0.331 OA
ATOM     43  C   UNL     1       7.182   1.077  27.628  0.00  0.00    +0.179 C 
ATOM     44  C   UNL     1       6.131  -0.015  27.278  0.00  0.00    +0.177 C 
ATOM     45  C   UNL     1       5.290   0.288  26.033  0.00  0.00    +0.180 C 
ATOM     46  C   UNL     1       4.970   1.792  26.070  0.00  0.00    +0.214 C 
BRANCH  46  47
ATOM     47  O   UNL     1       3.882   2.218  25.263  0.00  0.00    -0.383 OA
ATOM     48  H   UNL     1       4.195   2.300  24.341  0.00  0.00    +0.210 HD
ENDBRANCH  46  47
BRANCH  45  49
ATOM     49  O   UNL     1       4.100  -0.510  26.064  0.00  0.00    -0.386 OA
ATOM     50  H   UNL     1       3.995  -0.854  26.972  0.00  0.00    +0.210 HD
ENDBRANCH  45  49
BRANCH  44  51
ATOM     51  O   UNL     1       5.234  -0.269  28.384  0.00  0.00    -0.386 OA
ATOM     52  H   UNL     1       5.575  -1.031  28.894  0.00  0.00    +0.210 HD
ENDBRANCH  44  51
BRANCH  43  53
ATOM     53  C   UNL     1       7.138   1.407  29.144  0.00  0.00    +0.190 C 
BRANCH  53  54
ATOM     54  O   UNL     1       8.353   1.027  29.793  0.00  0.00    -0.392 OA
ATOM     55  H   UNL     1       8.193   1.145  30.748  0.00  0.00    +0.210 HD
ENDBRANCH  53  54
ENDBRANCH  43  53
ENDBRANCH  40  41
ENDBRANCH  11  40
TORSDOF 18
ENDMDL
MODEL 2
REMARK VINA RESULT:      -7.8      1.523      2.886
REMARK  Name = 
REMARK  18 active torsions:
REMARK  status: ('A' for Active; 'I' for Inactive)
REMARK    1  A    between atoms: C_3  and  O_33
REMARK    2  A    between atoms: C_4  and  O_32
REMARK    3  A    between atoms: C_6  and  C_7
REMARK    4  A    between atoms: C_8  and  O_20
REMARK    5  A    between atoms: C_12  and  O_19
REMARK    6  A    between atoms: C_14  and  O_18
REMARK    7  A    between atoms: O_20  and  C_21
REMARK    8  A    between atoms: C_22  and  O_31
REMARK    9  A    between atoms: C_23  and  O_30
REMARK   10  A    between atoms: C_24  and  O_29
REMARK   11  A    between atoms: C_25  and  C_27
REMARK   12  A    between atoms: C_27  and  O_28
REMARK   13  A    between atoms: O_33  and  C_34
REMARK   14  A    between atoms: C_35  and  O_44
REMARK   15  A    between atoms: C_36  and  O_43
REMARK   16  A    between atoms: C_37  and  O_42
REMARK   17  A    between atoms: C_38  and  C_40
REMARK   18  A    between atoms: C_40  and  O_41
REMARK                            x       y       z     vdW  Elec       q    Type
REMARK                         _______ _______ _______ _____ _____    ______ ____
ROOT
ATOM      1  C   UNL     1       9.483   1.744  23.686  0.00  0.00    +0.181 A 
ATOM      2  O   UNL     1      10.632   2.322  23.195  0.00  0.00    -0.451 OA
ATOM      3  C   UNL     1      10.899   3.640  23.503  0.00  0.00    +0.147 A 
ATOM      4  C   UNL     1      10.015   4.426  24.242  0.00  0.00    +0.109 A 
ATOM      5  C   UNL     1      10.355   5.766  24.526  0.00  0.00    +0.135 A 
ATOM      6  C   UNL     1      11.572   6.307  24.098  0.00  0.00    +0.091 A 
ATOM      7  C   UNL     1      12.436   5.508  23.361  0.00  0.00    +0.124 A 
ATOM      8  C   UNL     1       8.770   3.805  24.716  0.00  0.00    +0.238 A 
ATOM      9  O   UNL     1       7.936   4.495  25.290  0.00  0.00    -0.283 OA
ATOM     10  C   UNL     1      12.106   4.188  23.052  0.00  0.00    +0.092 A 
ATOM     11  C   UNL     1       8.555   2.342  24.479  0.00  0.00    +0.214 A 
ENDROOT
BRANCH   1  13
ATOM     12  C   UNL     1       8.583   0.017  22.133  0.00  0.00    +0.015 A 
ATOM     13  C   UNL     1       9.289   0.333  23.299  0.00  0.00    +0.025 A 
ATOM     14  C   UNL     1       9.696  -0.702  24.142  0.00  0.00    +0.060 A 
ATOM     15  C   UNL     1       9.271  -2.011  23.890  0.00  0.00    +0.159 A 
ATOM     16  C   UNL     1       8.415  -2.307  22.823  0.00  0.00    +0.165 A 
ATOM     17  C   UNL     1       8.153  -1.293  21.898  0.00  0.00    +0.050 A 
BRANCH  15  18
ATOM     18  O   UNL     1       9.700  -2.987  24.744  0.00  0.00    -0.503 OA
ATOM     19  H   UNL     1      10.260  -3.576  24.205  0.00  0.00    +0.292 HD
ENDBRANCH  15  18
BRANCH  16  20
ATOM     20  O   UNL     1       7.870  -3.580  22.750  0.00  0.00    -0.457 OA
BRANCH  20  21
ATOM     21  C   UNL     1       6.577  -3.696  23.406  0.00  0.00    +0.339 C 
ATOM     22  O   UNL     1       6.717  -4.091  24.787  0.00  0.00    -0.331 OA
ATOM     23  C   UNL     1       6.459  -5.459  25.121  0.00  0.00    +0.179 C 
ATOM     24  C   UNL     1       5.106  -5.911  24.568  0.00  0.00    +0.177 C 
ATOM     25  C   UNL     1       5.206  -5.883  23.058  0.00  0.00    +0.180 C 
ATOM     26  C   UNL     1       5.527  -4.484  22.556  0.00  0.00    +0.214 C 
BRANCH  26  27
ATOM     27  O   UNL     1       5.879  -4.562  21.164  0.00  0.00    -0.383 OA
ATOM     28  H   UNL     1       6.292  -3.710  20.927  0.00  0.00    +0.210 HD
ENDBRANCH  26  27
BRANCH  25  29
ATOM     29  O   UNL     1       3.927  -6.278  22.511  0.00  0.00    -0.386 OA
ATOM     30  H   UNL     1       3.251  -5.788  23.035  0.00  0.00    +0.210 HD
ENDBRANCH  25  29
BRANCH  24  31
ATOM     31  O   UNL     1       4.028  -5.032  24.931  0.00  0.00    -0.386 OA
ATOM     32  H   UNL     1       4.437  -4.252  25.367  0.00  0.00    +0.210 HD
ENDBRANCH  24  31
BRANCH  23  33
ATOM     33  C   UNL     1       6.459  -5.583  26.654  0.00  0.00    +0.190 C 
BRANCH  33  34
ATOM     34  O   UNL     1       7.753  -5.976  27.117  0.00  0.00    -0.392 OA
ATOM     35  H   UNL     1       7.597  -6.556  27.889  0.00  0.00    +0.210 HD
ENDBRANCH  33  34
ENDBRANCH  23  33
ENDBRANCH  20  21
ENDBRANCH  16  20
ENDBRANCH   1  13
BRANCH   7  36
ATOM     36  O   UNL     1      13.638   5.985  22.922  0.00  0.00    -0.507 OA
ATOM     37  H   UNL     1      14.164   5.246  22.572  0.00  0.00    +0.292 HD
ENDBRANCH   7  36
BRANCH   5  38
ATOM     38  O   UNL     1       9.548   6.620  25.232  0.00  0.00    -0.506 OA
ATOM     39  H   UNL     1       9.623   7.517  24.844  0.00  0.00    +0.292 HD
ENDBRANCH   5  38
BRANCH  11  40
ATOM     40  O   UNL     1       7.360   1.742  24.868  0.00  0.00    -0.453 OA
BRANCH  40  41
ATOM     41  C   UNL     1       7.342   1.033  26.143  0.00  0.00    +0.340 C 
ATOM     42  O   UNL     1       6.679  -0.247  26.018  0.00  0.00    -0.331 OA
ATOM     43  C   UNL     1       5.240  -0.352  26.183  0.00  0.00    +0.179 C 
ATOM     44  C   UNL     1       4.435   0.888  26.667  0.00  0.00    +0.177 C 
ATOM     45  C   UNL     1       5.245   2.187  26.726  0.00  0.00    +0.180 C 
ATOM     46  C   UNL     1       6.638   1.818  27.262  0.00  0.00    +0.214 C 
BRANCH  46  47
ATOM     47  O   UNL     1       7.409   2.890  27.784  0.00  0.00    -0.383 OA
ATOM     48  H   UNL     1       8.270   2.536  28.079  0.00  0.00    +0.210 HD
ENDBRANCH  46  47
BRANCH  45  49
ATOM     49  O   UNL     1       4.575   3.120  27.583  0.00  0.00    -0.386 OA
ATOM     50  H   UNL     1       4.195   2.620  28.330  0.00  0.00    +0.210 HD
ENDBRANCH  45  49
BRANCH  44  51
ATOM     51  O   UNL     1       3.837   0.664  27.964  0.00  0.00    -0.386 OA
ATOM     52  H   UNL     1       3.598   1.530  28.352  0.00  0.00    +0.210 HD
ENDBRANCH  44  51
BRANCH  43  53
ATOM     53  C   UNL     1       4.967  -1.570  27.104  0.00  0.00    +0.190 C 
BRANCH  53  54
ATOM     54  O   UNL     1       4.499  -2.693  26.355  0.00  0.00    -0.392 OA
ATOM     55  H   UNL     1       5.264  -3.292  26.265  0.00  0.00    +0.210 HD
ENDBRANCH  53  54
ENDBRANCH  43  53
ENDBRANCH  40  41
ENDBRANCH  11  40
TORSDOF 18
ENDMDL
MODEL 3
REMARK VINA RESULT:      -7.2      2.454      9.421
REMARK  Name = 
REMARK  18 active torsions:
REMARK  status: ('A' for Active; 'I' for Inactive)
REMARK    1  A    between atoms: C_3  and  O_33
REMARK    2  A    between atoms: C_4  and  O_32
REMARK    3  A    between atoms: C_6  and  C_7
REMARK    4  A    between atoms: C_8  and  O_20
REMARK    5  A    between atoms: C_12  and  O_19
REMARK    6  A    between atoms: C_14  and  O_18
REMARK    7  A    between atoms: O_20  and  C_21
REMARK    8  A    between atoms: C_22  and  O_31
REMARK    9  A    between atoms: C_23  and  O_30
REMARK   10  A    between atoms: C_24  and  O_29
REMARK   11  A    between atoms: C_25  and  C_27
REMARK   12  A    between atoms: C_27  and  O_28
REMARK   13  A    between atoms: O_33  and  C_34
REMARK   14  A    between atoms: C_35  and  O_44
REMARK   15  A    between atoms: C_36  and  O_43
REMARK   16  A    between atoms: C_37  and  O_42
REMARK   17  A    between atoms: C_38  and  C_40
REMARK   18  A    between atoms: C_40  and  O_41
REMARK                            x       y       z     vdW  Elec       q    Type
REMARK                         _______ _______ _______ _____ _____    ______ ____
ROOT
ATOM      1  C   UNL     1       4.533  -3.202  26.816  0.00  0.00    +0.181 A 
ATOM      2  O   UNL     1       3.793  -3.534  27.929  0.00  0.00    -0.451 OA
ATOM      3  C   UNL     1       3.195  -4.776  27.986  0.00  0.00    +0.147 A 
ATOM      4  C   UNL     1       3.259  -5.683  26.928  0.00  0.00    +0.109 A 
ATOM      5  C   UNL     1       2.629  -6.939  27.056  0.00  0.00    +0.135 A 
ATOM      6  C   UNL     1       1.962  -7.294  28.234  0.00  0.00    +0.091 A 
ATOM      7  C   UNL     1       1.908  -6.375  29.274  0.00  0.00    +0.124 A 
ATOM      8  C   UNL     1       4.012  -5.290  25.728  0.00  0.00    +0.238 A 
ATOM      9  O   UNL     1       4.010  -6.030  24.751  0.00  0.00    -0.283 OA
ATOM     10  C   UNL     1       2.507  -5.120  29.156  0.00  0.00    +0.092 A 
ATOM     11  C   UNL     1       4.757  -3.992  25.733  0.00  0.00    +0.214 A 
ENDROOT
BRANCH   1  13
ATOM     12  C   UNL     1       4.367  -0.739  26.484  0.00  0.00    +0.015 A 
ATOM     13  C   UNL     1       5.129  -1.853  26.853  0.00  0.00    +0.025 A 
ATOM     14  C   UNL     1       6.485  -1.679  27.135  0.00  0.00    +0.060 A 
ATOM     15  C   UNL     1       7.088  -0.436  26.906  0.00  0.00    +0.159 A 
ATOM     16  C   UNL     1       6.367   0.636  26.367  0.00  0.00    +0.165 A 
ATOM     17  C   UNL     1       4.983   0.494  26.247  0.00  0.00    +0.050 A 
BRANCH  15  18
ATOM     18  O   UNL     1       8.416  -0.318  27.202  0.00  0.00    -0.503 OA
ATOM     19  H   UNL     1       8.602   0.639  27.186  0.00  0.00    +0.292 HD
ENDBRANCH  15  18
BRANCH  16  20
ATOM     20  O   UNL     1       7.066   1.768  25.975  0.00  0.00    -0.457 OA
BRANCH  20  21
ATOM     21  C   UNL     1       7.495   1.733  24.585  0.00  0.00    +0.339 C 
ATOM     22  O   UNL     1       8.702   0.959  24.422  0.00  0.00    -0.331 OA
ATOM     23  C   UNL     1       9.936   1.669  24.274  0.00  0.00    +0.179 C 
ATOM     24  C   UNL     1       9.828   2.732  23.177  0.00  0.00    +0.177 C 
ATOM     25  C   UNL     1       8.829   3.766  23.653  0.00  0.00    +0.180 C 
ATOM     26  C   UNL     1       7.467   3.138  23.900  0.00  0.00    +0.214 C 
BRANCH  26  27
ATOM     27  O   UNL     1       6.642   4.087  24.601  0.00  0.00    -0.383 OA
ATOM     28  H   UNL     1       6.046   3.573  25.178  0.00  0.00    +0.210 HD
ENDBRANCH  26  27
BRANCH  25  29
ATOM     29  O   UNL     1       8.685   4.766  22.619  0.00  0.00    -0.386 OA
ATOM     30  H   UNL     1       8.864   4.299  21.769  0.00  0.00    +0.210 HD
ENDBRANCH  25  29
BRANCH  24  31
ATOM     31  O   UNL     1       9.327   2.209  21.935  0.00  0.00    -0.386 OA
ATOM     32  H   UNL     1       9.427   2.924  21.269  0.00  0.00    +0.210 HD
ENDBRANCH  24  31
BRANCH  23  33
ATOM     33  C   UNL     1      11.029   0.653  23.901  0.00  0.00    +0.190 C 
BRANCH  33  34
ATOM     34  O   UNL     1      10.604  -0.141  22.790  0.00  0.00    -0.392 OA
ATOM     35  H   UNL     1      11.363  -0.717  22.566  0.00  0.00    +0.210 HD
ENDBRANCH  33  34
ENDBRANCH  23  33
ENDBRANCH  20  21
ENDBRANCH  16  20
ENDBRANCH   1  13
BRANCH   7  36
ATOM     36  O   UNL     1       1.274  -6.671  30.446  0.00  0.00    -0.507 OA
ATOM     37  H   UNL     1       0.398  -7.043  30.248  0.00  0.00    +0.292 HD
ENDBRANCH   7  36
BRANCH   5  38
ATOM     38  O   UNL     1       2.626  -7.890  26.069  0.00  0.00    -0.506 OA
ATOM     39  H   UNL     1       1.722  -8.262  25.994  0.00  0.00    +0.292 HD
ENDBRANCH   5  38
BRANCH  11  40
ATOM     40  O   UNL     1       5.431  -3.571  24.589  0.00  0.00    -0.453 OA
BRANCH  40  41
ATOM     41  C   UNL     1       6.481  -4.437  24.064  0.00  0.00    +0.340 C 
ATOM     42  O   UNL     1       7.406  -4.824  25.108  0.00  0.00    -0.331 OA
ATOM     43  C   UNL     1       8.550  -3.988  25.426  0.00  0.00    +0.179 C 
ATOM     44  C   UNL     1       8.876  -2.764  24.524  0.00  0.00    +0.177 C 
ATOM     45  C   UNL     1       7.801  -2.442  23.480  0.00  0.00    +0.180 C 
ATOM     46  C   UNL     1       7.296  -3.787  22.934  0.00  0.00    +0.214 C 
BRANCH  46  47
ATOM     47  O   UNL     1       6.613  -3.738  21.689  0.00  0.00    -0.383 OA
ATOM     48  H   UNL     1       7.153  -3.220  21.061  0.00  0.00    +0.210 HD
ENDBRANCH  46  47
BRANCH  45  49
ATOM     49  O   UNL     1       8.378  -1.631  22.448  0.00  0.00    -0.386 OA
ATOM     50  H   UNL     1       9.050  -2.168  21.986  0.00  0.00    +0.210 HD
ENDBRANCH  45  49
BRANCH  44  51
ATOM     51  O   UNL     1      10.142  -2.922  23.842  0.00  0.00    -0.386 OA
ATOM     52  H   UNL     1      10.787  -2.299  24.233  0.00  0.00    +0.210 HD
ENDBRANCH  44  51
BRANCH  43  53
ATOM     53  C   UNL     1       9.786  -4.920  25.543  0.00  0.00    +0.190 C 
BRANCH  53  54
ATOM     54  O   UNL     1       9.776  -5.926  24.529  0.00  0.00    -0.392 OA
ATOM     55  H   UNL     1       8.898  -5.869  24.105  0.00  0.00    +0.210 HD
ENDBRANCH  53  54
ENDBRANCH  43  53
ENDBRANCH  40  41
ENDBRANCH  11  40
TORSDOF 18
ENDMDL
MODEL 4
REMARK VINA RESULT:      -7.2      2.012      4.939
REMARK  Name = 
REMARK  18 active torsions:
REMARK  status: ('A' for Active; 'I' for Inactive)
REMARK    1  A    between atoms: C_3  and  O_33
REMARK    2  A    between atoms: C_4  and  O_32
REMARK    3  A    between atoms: C_6  and  C_7
REMARK    4  A    between atoms: C_8  and  O_20
REMARK    5  A    between atoms: C_12  and  O_19
REMARK    6  A    between atoms: C_14  and  O_18
REMARK    7  A    between atoms: O_20  and  C_21
REMARK    8  A    between atoms: C_22  and  O_31
REMARK    9  A    between atoms: C_23  and  O_30
REMARK   10  A    between atoms: C_24  and  O_29
REMARK   11  A    between atoms: C_25  and  C_27
REMARK   12  A    between atoms: C_27  and  O_28
REMARK   13  A    between atoms: O_33  and  C_34
REMARK   14  A    between atoms: C_35  and  O_44
REMARK   15  A    between atoms: C_36  and  O_43
REMARK   16  A    between atoms: C_37  and  O_42
REMARK   17  A    between atoms: C_38  and  C_40
REMARK   18  A    between atoms: C_40  and  O_41
REMARK                            x       y       z     vdW  Elec       q    Type
REMARK                         _______ _______ _______ _____ _____    ______ ____
ROOT
ATOM      1  C   UNL     1       7.552   1.156  25.547  0.00  0.00    +0.181 A 
ATOM      2  O   UNL     1       7.254   2.475  25.805  0.00  0.00    -0.451 OA
ATOM      3  C   UNL     1       8.033   3.459  25.233  0.00  0.00    +0.147 A 
ATOM      4  C   UNL     1       9.152   3.165  24.454  0.00  0.00    +0.109 A 
ATOM      5  C   UNL     1       9.901   4.221  23.895  0.00  0.00    +0.135 A 
ATOM      6  C   UNL     1       9.525   5.554  24.092  0.00  0.00    +0.091 A 
ATOM      7  C   UNL     1       8.409   5.826  24.873  0.00  0.00    +0.124 A 
ATOM      8  C   UNL     1       9.484   1.750  24.231  0.00  0.00    +0.238 A 
ATOM      9  O   UNL     1      10.510   1.463  23.626  0.00  0.00    -0.283 OA
ATOM     10  C   UNL     1       7.670   4.793  25.452  0.00  0.00    +0.092 A 
ATOM     11  C   UNL     1       8.557   0.697  24.755  0.00  0.00    +0.214 A 
ENDROOT
BRANCH   1  13
ATOM     12  C   UNL     1       7.188  -0.990  26.760  0.00  0.00    +0.015 A 
ATOM     13  C   UNL     1       6.660   0.182  26.206  0.00  0.00    +0.025 A 
ATOM     14  C   UNL     1       5.275   0.351  26.181  0.00  0.00    +0.060 A 
ATOM     15  C   UNL     1       4.440  -0.703  26.570  0.00  0.00    +0.159 A 
ATOM     16  C   UNL     1       4.962  -1.943  26.957  0.00  0.00    +0.165 A 
ATOM     17  C   UNL     1       6.344  -2.039  27.134  0.00  0.00    +0.050 A 
BRANCH  15  18
ATOM     18  O   UNL     1       3.092  -0.484  26.530  0.00  0.00    -0.503 OA
ATOM     19  H   UNL     1       2.850  -0.185  27.426  0.00  0.00    +0.292 HD
ENDBRANCH  15  18
BRANCH  16  20
ATOM     20  O   UNL     1       4.083  -3.001  27.132  0.00  0.00    -0.457 OA
BRANCH  20  21
ATOM     21  C   UNL     1       4.698  -4.304  26.933  0.00  0.00    +0.339 C 
ATOM     22  O   UNL     1       4.341  -4.869  25.654  0.00  0.00    -0.331 OA
ATOM     23  C   UNL     1       3.333  -5.885  25.629  0.00  0.00    +0.179 C 
ATOM     24  C   UNL     1       3.650  -6.994  26.635  0.00  0.00    +0.177 C 
ATOM     25  C   UNL     1       3.564  -6.383  28.018  0.00  0.00    +0.180 C 
ATOM     26  C   UNL     1       4.558  -5.243  28.176  0.00  0.00    +0.214 C 
BRANCH  26  27
ATOM     27  O   UNL     1       4.253  -4.529  29.386  0.00  0.00    -0.383 OA
ATOM     28  H   UNL     1       4.751  -3.690  29.354  0.00  0.00    +0.210 HD
ENDBRANCH  26  27
BRANCH  25  29
ATOM     29  O   UNL     1       3.892  -7.406  28.987  0.00  0.00    -0.386 OA
ATOM     30  H   UNL     1       3.140  -8.044  28.965  0.00  0.00    +0.210 HD
ENDBRANCH  25  29
BRANCH  24  31
ATOM     31  O   UNL     1       4.981  -7.519  26.492  0.00  0.00    -0.386 OA
ATOM     32  H   UNL     1       5.589  -6.853  26.885  0.00  0.00    +0.210 HD
ENDBRANCH  24  31
BRANCH  23  33
ATOM     33  C   UNL     1       3.285  -6.475  24.209  0.00  0.00    +0.190 C 
BRANCH  33  34
ATOM     34  O   UNL     1       4.611  -6.712  23.730  0.00  0.00    -0.392 OA
ATOM     35  H   UNL     1       4.594  -6.496  22.776  0.00  0.00    +0.210 HD
ENDBRANCH  33  34
ENDBRANCH  23  33
ENDBRANCH  20  21
ENDBRANCH  16  20
ENDBRANCH   1  13
BRANCH   7  36
ATOM     36  O   UNL     1       7.996   7.108  25.093  0.00  0.00    -0.507 OA
ATOM     37  H   UNL     1       7.041   7.107  25.275  0.00  0.00    +0.292 HD
ENDBRANCH   7  36
BRANCH   5  38
ATOM     38  O   UNL     1      11.021   4.034  23.127  0.00  0.00    -0.506 OA
ATOM     39  H   UNL     1      10.980   3.141  22.722  0.00  0.00    +0.292 HD
ENDBRANCH   5  38
BRANCH  11  40
ATOM     40  O   UNL     1       8.877  -0.650  24.605  0.00  0.00    -0.453 OA
BRANCH  40  41
ATOM     41  C   UNL     1       8.661  -1.256  23.296  0.00  0.00    +0.340 C 
ATOM     42  O   UNL     1       7.249  -1.378  23.005  0.00  0.00    -0.331 OA
ATOM     43  C   UNL     1       6.506  -2.549  23.433  0.00  0.00    +0.179 C 
ATOM     44  C   UNL     1       7.270  -3.754  24.053  0.00  0.00    +0.177 C 
ATOM     45  C   UNL     1       8.752  -3.485  24.341  0.00  0.00    +0.180 C 
ATOM     46  C   UNL     1       9.289  -2.654  23.164  0.00  0.00    +0.214 C 
BRANCH  46  47
ATOM     47  O   UNL     1      10.700  -2.637  23.006  0.00  0.00    -0.383 OA
ATOM     48  H   UNL     1      11.067  -1.940  23.583  0.00  0.00    +0.210 HD
ENDBRANCH  46  47
BRANCH  45  49
ATOM     49  O   UNL     1       9.440  -4.736  24.467  0.00  0.00    -0.386 OA
ATOM     50  H   UNL     1       9.224  -5.109  25.343  0.00  0.00    +0.210 HD
ENDBRANCH  45  49
BRANCH  44  51
ATOM     51  O   UNL     1       7.174  -4.934  23.222  0.00  0.00    -0.386 OA
ATOM     52  H   UNL     1       7.385  -4.684  22.299  0.00  0.00    +0.210 HD
ENDBRANCH  44  51
BRANCH  43  53
ATOM     53  C   UNL     1       5.643  -3.015  22.230  0.00  0.00    +0.190 C 
BRANCH  53  54
ATOM     54  O   UNL     1       4.605  -3.903  22.649  0.00  0.00    -0.392 OA
ATOM     55  H   UNL     1       4.891  -4.260  23.511  0.00  0.00    +0.210 HD
ENDBRANCH  53  54
ENDBRANCH  43  53
ENDBRANCH  40  41
ENDBRANCH  11  40
TORSDOF 18
ENDMDL
MODEL 5
REMARK VINA RESULT:      -7.2      1.538      2.493
REMARK  Name = 
REMARK  18 active torsions:
REMARK  status: ('A' for Active; 'I' for Inactive)
REMARK    1  A    between atoms: C_3  and  O_33
REMARK    2  A    between atoms: C_4  and  O_32
REMARK    3  A    between atoms: C_6  and  C_7
REMARK    4  A    between atoms: C_8  and  O_20
REMARK    5  A    between atoms: C_12  and  O_19
REMARK    6  A    between atoms: C_14  and  O_18
REMARK    7  A    between atoms: O_20  and  C_21
REMARK    8  A    between atoms: C_22  and  O_31
REMARK    9  A    between atoms: C_23  and  O_30
REMARK   10  A    between atoms: C_24  and  O_29
REMARK   11  A    between atoms: C_25  and  C_27
REMARK   12  A    between atoms: C_27  and  O_28
REMARK   13  A    between atoms: O_33  and  C_34
REMARK   14  A    between atoms: C_35  and  O_44
REMARK   15  A    between atoms: C_36  and  O_43
REMARK   16  A    between atoms: C_37  and  O_42
REMARK   17  A    between atoms: C_38  and  C_40
REMARK   18  A    between atoms: C_40  and  O_41
REMARK                            x       y       z     vdW  Elec       q    Type
REMARK                         _______ _______ _______ _____ _____    ______ ____
ROOT
ATOM      1  C   UNL     1       9.429   1.865  24.301  0.00  0.00    +0.181 A 
ATOM      2  O   UNL     1      10.591   2.347  23.740  0.00  0.00    -0.451 OA
ATOM      3  C   UNL     1      10.825   3.706  23.754  0.00  0.00    +0.147 A 
ATOM      4  C   UNL     1       9.897   4.616  24.260  0.00  0.00    +0.109 A 
ATOM      5  C   UNL     1      10.203   5.994  24.249  0.00  0.00    +0.135 A 
ATOM      6  C   UNL     1      11.431   6.455  23.760  0.00  0.00    +0.091 A 
ATOM      7  C   UNL     1      12.339   5.532  23.258  0.00  0.00    +0.124 A 
ATOM      8  C   UNL     1       8.640   4.087  24.810  0.00  0.00    +0.238 A 
ATOM      9  O   UNL     1       7.771   4.867  25.179  0.00  0.00    -0.283 OA
ATOM     10  C   UNL     1      12.043   4.168  23.241  0.00  0.00    +0.092 A 
ATOM     11  C   UNL     1       8.458   2.603  24.900  0.00  0.00    +0.214 A 
ENDROOT
BRANCH   1  13
ATOM     12  C   UNL     1       9.131  -0.346  25.409  0.00  0.00    +0.015 A 
ATOM     13  C   UNL     1       9.274   0.399  24.233  0.00  0.00    +0.025 A 
ATOM     14  C   UNL     1       9.390  -0.276  23.018  0.00  0.00    +0.060 A 
ATOM     15  C   UNL     1       9.508  -1.671  23.006  0.00  0.00    +0.159 A 
ATOM     16  C   UNL     1       9.544  -2.409  24.195  0.00  0.00    +0.165 A 
ATOM     17  C   UNL     1       9.261  -1.737  25.387  0.00  0.00    +0.050 A 
BRANCH  15  18
ATOM     18  O   UNL     1       9.616  -2.283  21.790  0.00  0.00    -0.503 OA
ATOM     19  H   UNL     1      10.526  -2.106  21.489  0.00  0.00    +0.292 HD
ENDBRANCH  15  18
BRANCH  16  20
ATOM     20  O   UNL     1       9.865  -3.756  24.123  0.00  0.00    -0.457 OA
BRANCH  20  21
ATOM     21  C   UNL     1       8.702  -4.628  24.070  0.00  0.00    +0.339 C 
ATOM     22  O   UNL     1       7.603  -4.004  23.375  0.00  0.00    -0.331 OA
ATOM     23  C   UNL     1       6.542  -3.451  24.160  0.00  0.00    +0.179 C 
ATOM     24  C   UNL     1       6.023  -4.472  25.176  0.00  0.00    +0.177 C 
ATOM     25  C   UNL     1       7.146  -4.739  26.156  0.00  0.00    +0.180 C 
ATOM     26  C   UNL     1       8.372  -5.292  25.447  0.00  0.00    +0.214 C 
BRANCH  26  27
ATOM     27  O   UNL     1       9.483  -5.270  26.360  0.00  0.00    -0.383 OA
ATOM     28  H   UNL     1      10.132  -5.923  26.035  0.00  0.00    +0.210 HD
ENDBRANCH  26  27
BRANCH  25  29
ATOM     29  O   UNL     1       6.691  -5.727  27.109  0.00  0.00    -0.386 OA
ATOM     30  H   UNL     1       7.407  -5.797  27.783  0.00  0.00    +0.210 HD
ENDBRANCH  25  29
BRANCH  24  31
ATOM     31  O   UNL     1       5.682  -5.734  24.579  0.00  0.00    -0.386 OA
ATOM     32  H   UNL     1       6.209  -5.806  23.753  0.00  0.00    +0.210 HD
ENDBRANCH  24  31
BRANCH  23  33
ATOM     33  C   UNL     1       5.404  -3.047  23.208  0.00  0.00    +0.190 C 
BRANCH  33  34
ATOM     34  O   UNL     1       5.184  -4.075  22.239  0.00  0.00    -0.392 OA
ATOM     35  H   UNL     1       6.071  -4.412  22.000  0.00  0.00    +0.210 HD
ENDBRANCH  33  34
ENDBRANCH  23  33
ENDBRANCH  20  21
ENDBRANCH  16  20
ENDBRANCH   1  13
BRANCH   7  36
ATOM     36  O   UNL     1      13.552   5.927  22.773  0.00  0.00    -0.507 OA
ATOM     37  H   UNL     1      13.796   6.776  23.180  0.00  0.00    +0.292 HD
ENDBRANCH   7  36
BRANCH   5  38
ATOM     38  O   UNL     1       9.353   6.964  24.711  0.00  0.00    -0.506 OA
ATOM     39  H   UNL     1       8.626   6.534  25.209  0.00  0.00    +0.292 HD
ENDBRANCH   5  38
BRANCH  11  40
ATOM     40  O   UNL     1       7.255   2.076  25.364  0.00  0.00    -0.453 OA
BRANCH  40  41
ATOM     41  C   UNL     1       6.248   1.711  24.374  0.00  0.00    +0.340 C 
ATOM     42  O   UNL     1       5.759   2.879  23.674  0.00  0.00    -0.331 OA
ATOM     43  C   UNL     1       4.648   3.646  24.207  0.00  0.00    +0.179 C 
ATOM     44  C   UNL     1       3.871   3.108  25.443  0.00  0.00    +0.177 C 
ATOM     45  C   UNL     1       4.511   1.886  26.111  0.00  0.00    +0.180 C 
ATOM     46  C   UNL     1       5.036   0.986  24.981  0.00  0.00    +0.214 C 
BRANCH  46  47
ATOM     47  O   UNL     1       5.291  -0.367  25.329  0.00  0.00    -0.383 OA
ATOM     48  H   UNL     1       4.733  -0.599  26.096  0.00  0.00    +0.210 HD
ENDBRANCH  46  47
BRANCH  45  49
ATOM     49  O   UNL     1       3.526   1.218  26.910  0.00  0.00    -0.386 OA
ATOM     50  H   UNL     1       2.648   1.542  26.633  0.00  0.00    +0.210 HD
ENDBRANCH  45  49
BRANCH  44  51
ATOM     51  O   UNL     1       2.501   2.783  25.114  0.00  0.00    -0.386 OA
ATOM     52  H   UNL     1       2.493   2.266  24.283  0.00  0.00    +0.210 HD
ENDBRANCH  44  51
BRANCH  43  53
ATOM     53  C   UNL     1       3.672   3.926  23.033  0.00  0.00    +0.190 C 
BRANCH  53  54
ATOM     54  O   UNL     1       3.214   2.710  22.438  0.00  0.00    -0.392 OA
ATOM     55  H   UNL     1       3.940   2.068  22.550  0.00  0.00    +0.210 HD
ENDBRANCH  53  54
ENDBRANCH  43  53
ENDBRANCH  40  41
ENDBRANCH  11  40
TORSDOF 18
ENDMDL
MODEL 6
REMARK VINA RESULT:      -7.1      1.646      2.905
REMARK  Name = 
REMARK  18 active torsions:
REMARK  status: ('A' for Active; 'I' for Inactive)
REMARK    1  A    between atoms: C_3  and  O_33
REMARK    2  A    between atoms: C_4  and  O_32
REMARK    3  A    between atoms: C_6  and  C_7
REMARK    4  A    between atoms: C_8  and  O_20
REMARK    5  A    between atoms: C_12  and  O_19
REMARK    6  A    between atoms: C_14  and  O_18
REMARK    7  A    between atoms: O_20  and  C_21
REMARK    8  A    between atoms: C_22  and  O_31
REMARK    9  A    between atoms: C_23  and  O_30
REMARK   10  A    between atoms: C_24  and  O_29
REMARK   11  A    between atoms: C_25  and  C_27
REMARK   12  A    between atoms: C_27  and  O_28
REMARK   13  A    between atoms: O_33  and  C_34
REMARK   14  A    between atoms: C_35  and  O_44
REMARK   15  A    between atoms: C_36  and  O_43
REMARK   16  A    between atoms: C_37  and  O_42
REMARK   17  A    between atoms: C_38  and  C_40
REMARK   18  A    between atoms: C_40  and  O_41
REMARK                            x       y       z     vdW  Elec       q    Type
REMARK                         _______ _______ _______ _____ _____    ______ ____
ROOT
ATOM      1  C   UNL     1       9.369   1.391  24.099  0.00  0.00    +0.181 A 
ATOM      2  O   UNL     1      10.438   2.012  23.492  0.00  0.00    -0.451 OA
ATOM      3  C   UNL     1      10.632   3.362  23.703  0.00  0.00    +0.147 A 
ATOM      4  C   UNL     1       9.747   4.132  24.457  0.00  0.00    +0.109 A 
ATOM      5  C   UNL     1      10.010   5.507  24.637  0.00  0.00    +0.135 A 
ATOM      6  C   UNL     1      11.153   6.100  24.091  0.00  0.00    +0.091 A 
ATOM      7  C   UNL     1      12.020   5.315  23.341  0.00  0.00    +0.124 A 
ATOM      8  C   UNL     1       8.584   3.461  25.055  0.00  0.00    +0.238 A 
ATOM      9  O   UNL     1       7.745   4.129  25.647  0.00  0.00    -0.283 OA
ATOM     10  C   UNL     1      11.763   3.959  23.134  0.00  0.00    +0.092 A 
ATOM     11  C   UNL     1       8.457   1.975  24.920  0.00  0.00    +0.214 A 
ENDROOT
BRANCH   1  13
ATOM     12  C   UNL     1       8.800  -0.480  22.555  0.00  0.00    +0.015 A 
ATOM     13  C   UNL     1       9.250  -0.051  23.809  0.00  0.00    +0.025 A 
ATOM     14  C   UNL     1       9.463  -1.001  24.809  0.00  0.00    +0.060 A 
ATOM     15  C   UNL     1       9.089  -2.333  24.593  0.00  0.00    +0.159 A 
ATOM     16  C   UNL     1       8.473  -2.734  23.402  0.00  0.00    +0.165 A 
ATOM     17  C   UNL     1       8.419  -1.810  22.355  0.00  0.00    +0.050 A 
BRANCH  15  18
ATOM     18  O   UNL     1       9.323  -3.223  25.603  0.00  0.00    -0.503 OA
ATOM     19  H   UNL     1       9.363  -2.688  26.417  0.00  0.00    +0.292 HD
ENDBRANCH  15  18
BRANCH  16  20
ATOM     20  O   UNL     1       7.945  -4.014  23.332  0.00  0.00    -0.457 OA
BRANCH  20  21
ATOM     21  C   UNL     1       6.542  -4.084  23.710  0.00  0.00    +0.339 C 
ATOM     22  O   UNL     1       6.354  -3.783  25.109  0.00  0.00    -0.331 OA
ATOM     23  C   UNL     1       6.145  -4.878  26.007  0.00  0.00    +0.179 C 
ATOM     24  C   UNL     1       5.028  -5.795  25.500  0.00  0.00    +0.177 C 
ATOM     25  C   UNL     1       5.514  -6.424  24.212  0.00  0.00    +0.180 C 
ATOM     26  C   UNL     1       5.826  -5.364  23.167  0.00  0.00    +0.214 C 
BRANCH  26  27
ATOM     27  O   UNL     1       6.532  -5.982  22.078  0.00  0.00    -0.383 OA
ATOM     28  H   UNL     1       5.871  -6.185  21.389  0.00  0.00    +0.210 HD
ENDBRANCH  26  27
BRANCH  25  29
ATOM     29  O   UNL     1       4.462  -7.272  23.696  0.00  0.00    -0.386 OA
ATOM     30  H   UNL     1       3.638  -6.981  24.152  0.00  0.00    +0.210 HD
ENDBRANCH  25  29
BRANCH  24  31
ATOM     31  O   UNL     1       3.817  -5.085  25.187  0.00  0.00    -0.386 OA
ATOM     32  H   UNL     1       3.160  -5.760  24.910  0.00  0.00    +0.210 HD
ENDBRANCH  24  31
BRANCH  23  33
ATOM     33  C   UNL     1       5.757  -4.303  27.379  0.00  0.00    +0.190 C 
BRANCH  33  34
ATOM     34  O   UNL     1       4.926  -3.151  27.213  0.00  0.00    -0.392 OA
ATOM     35  H   UNL     1       4.960  -2.671  28.064  0.00  0.00    +0.210 HD
ENDBRANCH  33  34
ENDBRANCH  23  33
ENDBRANCH  20  21
ENDBRANCH  16  20
ENDBRANCH   1  13
BRANCH   7  36
ATOM     36  O   UNL     1      13.151   5.842  22.789  0.00  0.00    -0.507 OA
ATOM     37  H   UNL     1      13.160   5.649  21.836  0.00  0.00    +0.292 HD
ENDBRANCH   7  36
BRANCH   5  38
ATOM     38  O   UNL     1       9.195   6.348  25.350  0.00  0.00    -0.506 OA
ATOM     39  H   UNL     1       8.261   6.138  25.135  0.00  0.00    +0.292 HD
ENDBRANCH   5  38
BRANCH  11  40
ATOM     40  O   UNL     1       7.337   1.322  25.429  0.00  0.00    -0.453 OA
BRANCH  40  41
ATOM     41  C   UNL     1       6.210   1.110  24.528  0.00  0.00    +0.340 C 
ATOM     42  O   UNL     1       5.551   2.359  24.215  0.00  0.00    -0.331 OA
ATOM     43  C   UNL     1       4.496   2.871  25.070  0.00  0.00    +0.179 C 
ATOM     44  C   UNL     1       3.955   1.986  26.229  0.00  0.00    +0.177 C 
ATOM     45  C   UNL     1       4.760   0.706  26.478  0.00  0.00    +0.180 C 
ATOM     46  C   UNL     1       5.151   0.152  25.098  0.00  0.00    +0.214 C 
BRANCH  46  47
ATOM     47  O   UNL     1       5.534  -1.216  25.060  0.00  0.00    -0.383 OA
ATOM     48  H   UNL     1       6.033  -1.373  24.236  0.00  0.00    +0.210 HD
ENDBRANCH  46  47
BRANCH  45  49
ATOM     49  O   UNL     1       3.952  -0.222  27.214  0.00  0.00    -0.386 OA
ATOM     50  H   UNL     1       3.594   0.247  27.992  0.00  0.00    +0.210 HD
ENDBRANCH  45  49
BRANCH  44  51
ATOM     51  O   UNL     1       2.571   1.621  26.023  0.00  0.00    -0.386 OA
ATOM     52  H   UNL     1       2.130   1.564  26.894  0.00  0.00    +0.210 HD
ENDBRANCH  44  51
BRANCH  43  53
ATOM     53  C   UNL     1       3.334   3.329  24.149  0.00  0.00    +0.190 C 
BRANCH  53  54
ATOM     54  O   UNL     1       3.408   2.700  22.868  0.00  0.00    -0.392 OA
ATOM     55  H   UNL     1       4.175   3.102  22.418  0.00  0.00    +0.210 HD
ENDBRANCH  53  54
ENDBRANCH  43  53
ENDBRANCH  40  41
ENDBRANCH  11  40
TORSDOF 18
ENDMDL
MODEL 7
REMARK VINA RESULT:      -7.1      1.962      8.342
REMARK  Name = 
REMARK  18 active torsions:
REMARK  status: ('A' for Active; 'I' for Inactive)
REMARK    1  A    between atoms: C_3  and  O_33
REMARK    2  A    between atoms: C_4  and  O_32
REMARK    3  A    between atoms: C_6  and  C_7
REMARK    4  A    between atoms: C_8  and  O_20
REMARK    5  A    between atoms: C_12  and  O_19
REMARK    6  A    between atoms: C_14  and  O_18
REMARK    7  A    between atoms: O_20  and  C_21
REMARK    8  A    between atoms: C_22  and  O_31
REMARK    9  A    between atoms: C_23  and  O_30
REMARK   10  A    between atoms: C_24  and  O_29
REMARK   11  A    between atoms: C_25  and  C_27
REMARK   12  A    between atoms: C_27  and  O_28
REMARK   13  A    between atoms: O_33  and  C_34
REMARK   14  A    between atoms: C_35  and  O_44
REMARK   15  A    between atoms: C_36  and  O_43
REMARK   16  A    between atoms: C_37  and  O_42
REMARK   17  A    between atoms: C_38  and  C_40
REMARK   18  A    between atoms: C_40  and  O_41
REMARK                            x       y       z     vdW  Elec       q    Type
REMARK                         _______ _______ _______ _____ _____    ______ ____
ROOT
ATOM      1  C   UNL     1       7.586  -1.358  23.391  0.00  0.00    +0.181 A 
ATOM      2  O   UNL     1       7.400  -2.366  22.471  0.00  0.00    -0.451 OA
ATOM      3  C   UNL     1       6.594  -3.435  22.807  0.00  0.00    +0.147 A 
ATOM      4  C   UNL     1       6.013  -3.562  24.068  0.00  0.00    +0.109 A 
ATOM      5  C   UNL     1       5.195  -4.678  24.342  0.00  0.00    +0.135 A 
ATOM      6  C   UNL     1       4.942  -5.644  23.361  0.00  0.00    +0.091 A 
ATOM      7  C   UNL     1       5.533  -5.499  22.113  0.00  0.00    +0.124 A 
ATOM      8  C   UNL     1       6.264  -2.500  25.054  0.00  0.00    +0.238 A 
ATOM      9  O   UNL     1       5.840  -2.630  26.196  0.00  0.00    -0.283 OA
ATOM     10  C   UNL     1       6.363  -4.412  21.832  0.00  0.00    +0.092 A 
ATOM     11  C   UNL     1       7.037  -1.289  24.633  0.00  0.00    +0.214 A 
ENDROOT
BRANCH   1  13
ATOM     12  C   UNL     1       9.823  -0.269  23.270  0.00  0.00    +0.015 A 
ATOM     13  C   UNL     1       8.464  -0.263  22.936  0.00  0.00    +0.025 A 
ATOM     14  C   UNL     1       7.937   0.848  22.275  0.00  0.00    +0.060 A 
ATOM     15  C   UNL     1       8.730   1.987  22.091  0.00  0.00    +0.159 A 
ATOM     16  C   UNL     1      10.039   2.052  22.583  0.00  0.00    +0.165 A 
ATOM     17  C   UNL     1      10.602   0.878  23.092  0.00  0.00    +0.050 A 
BRANCH  15  18
ATOM     18  O   UNL     1       8.168   3.045  21.436  0.00  0.00    -0.503 OA
ATOM     19  H   UNL     1       7.767   3.599  22.131  0.00  0.00    +0.292 HD
ENDBRANCH  15  18
BRANCH  16  20
ATOM     20  O   UNL     1      10.695   3.273  22.547  0.00  0.00    -0.457 OA
BRANCH  20  21
ATOM     21  C   UNL     1      10.589   4.024  23.789  0.00  0.00    +0.339 C 
ATOM     22  O   UNL     1       9.357   4.772  23.851  0.00  0.00    -0.331 OA
ATOM     23  C   UNL     1       9.411   6.176  23.578  0.00  0.00    +0.179 C 
ATOM     24  C   UNL     1      10.494   6.856  24.419  0.00  0.00    +0.177 C 
ATOM     25  C   UNL     1      11.829   6.309  23.958  0.00  0.00    +0.180 C 
ATOM     26  C   UNL     1      11.898   4.802  24.147  0.00  0.00    +0.214 C 
BRANCH  26  27
ATOM     27  O   UNL     1      13.054   4.302  23.453  0.00  0.00    -0.383 OA
ATOM     28  H   UNL     1      13.598   5.076  23.212  0.00  0.00    +0.210 HD
ENDBRANCH  26  27
BRANCH  25  29
ATOM     29  O   UNL     1      12.868   6.913  24.762  0.00  0.00    -0.386 OA
ATOM     30  H   UNL     1      13.572   6.228  24.848  0.00  0.00    +0.210 HD
ENDBRANCH  25  29
BRANCH  24  31
ATOM     31  O   UNL     1      10.384   6.560  25.822  0.00  0.00    -0.386 OA
ATOM     32  H   UNL     1      10.266   7.420  26.282  0.00  0.00    +0.210 HD
ENDBRANCH  24  31
BRANCH  23  33
ATOM     33  C   UNL     1       8.039   6.782  23.917  0.00  0.00    +0.190 C 
BRANCH  33  34
ATOM     34  O   UNL     1       7.644   6.399  25.237  0.00  0.00    -0.392 OA
ATOM     35  H   UNL     1       8.152   5.589  25.444  0.00  0.00    +0.210 HD
ENDBRANCH  33  34
ENDBRANCH  23  33
ENDBRANCH  20  21
ENDBRANCH  16  20
ENDBRANCH   1  13
BRANCH   7  36
ATOM     36  O   UNL     1       5.316  -6.410  21.119  0.00  0.00    -0.507 OA
ATOM     37  H   UNL     1       4.763  -6.003  20.431  0.00  0.00    +0.292 HD
ENDBRANCH   7  36
BRANCH   5  38
ATOM     38  O   UNL     1       4.591  -4.898  25.553  0.00  0.00    -0.506 OA
ATOM     39  H   UNL     1       4.129  -5.762  25.522  0.00  0.00    +0.292 HD
ENDBRANCH   5  38
BRANCH  11  40
ATOM     40  O   UNL     1       7.336  -0.295  25.562  0.00  0.00    -0.453 OA
BRANCH  40  41
ATOM     41  C   UNL     1       6.221   0.437  26.152  0.00  0.00    +0.340 C 
ATOM     42  O   UNL     1       5.230   0.770  25.152  0.00  0.00    -0.331 OA
ATOM     43  C   UNL     1       5.345   1.993  24.378  0.00  0.00    +0.179 C 
ATOM     44  C   UNL     1       6.443   3.030  24.747  0.00  0.00    +0.177 C 
ATOM     45  C   UNL     1       7.449   2.543  25.796  0.00  0.00    +0.180 C 
ATOM     46  C   UNL     1       6.651   1.744  26.840  0.00  0.00    +0.214 C 
BRANCH  46  47
ATOM     47  O   UNL     1       7.285   1.551  28.096  0.00  0.00    -0.383 OA
ATOM     48  H   UNL     1       8.201   1.252  27.935  0.00  0.00    +0.210 HD
ENDBRANCH  46  47
BRANCH  45  49
ATOM     49  O   UNL     1       8.104   3.675  26.380  0.00  0.00    -0.386 OA
ATOM     50  H   UNL     1       8.515   3.384  27.217  0.00  0.00    +0.210 HD
ENDBRANCH  45  49
BRANCH  44  51
ATOM     51  O   UNL     1       5.870   4.275  25.210  0.00  0.00    -0.386 OA
ATOM     52  H   UNL     1       6.155   4.993  24.609  0.00  0.00    +0.210 HD
ENDBRANCH  44  51
BRANCH  43  53
ATOM     53  C   UNL     1       3.946   2.665  24.363  0.00  0.00    +0.190 C 
BRANCH  53  54
ATOM     54  O   UNL     1       3.389   2.677  23.047  0.00  0.00    -0.392 OA
ATOM     55  H   UNL     1       2.699   1.987  23.043  0.00  0.00    +0.210 HD
ENDBRANCH  53  54
ENDBRANCH  43  53
ENDBRANCH  40  41
ENDBRANCH  11  40
TORSDOF 18
ENDMDL
MODEL 8
REMARK VINA RESULT:      -7.0      2.546      5.793
REMARK  Name = 
REMARK  18 active torsions:
REMARK  status: ('A' for Active; 'I' for Inactive)
REMARK    1  A    between atoms: C_3  and  O_33
REMARK    2  A    between atoms: C_4  and  O_32
REMARK    3  A    between atoms: C_6  and  C_7
REMARK    4  A    between atoms: C_8  and  O_20
REMARK    5  A    between atoms: C_12  and  O_19
REMARK    6  A    between atoms: C_14  and  O_18
REMARK    7  A    between atoms: O_20  and  C_21
REMARK    8  A    between atoms: C_22  and  O_31
REMARK    9  A    between atoms: C_23  and  O_30
REMARK   10  A    between atoms: C_24  and  O_29
REMARK   11  A    between atoms: C_25  and  C_27
REMARK   12  A    between atoms: C_27  and  O_28
REMARK   13  A    between atoms: O_33  and  C_34
REMARK   14  A    between atoms: C_35  and  O_44
REMARK   15  A    between atoms: C_36  and  O_43
REMARK   16  A    between atoms: C_37  and  O_42
REMARK   17  A    between atoms: C_38  and  C_40
REMARK   18  A    between atoms: C_40  and  O_41
REMARK                            x       y       z     vdW  Elec       q    Type
REMARK                         _______ _______ _______ _____ _____    ______ ____
ROOT
ATOM      1  C   UNL     1       6.771  -0.520  25.798  0.00  0.00    +0.181 A 
ATOM      2  O   UNL     1       6.422   0.787  25.542  0.00  0.00    -0.451 OA
ATOM      3  C   UNL     1       7.372   1.640  25.018  0.00  0.00    +0.147 A 
ATOM      4  C   UNL     1       8.691   1.242  24.799  0.00  0.00    +0.109 A 
ATOM      5  C   UNL     1       9.609   2.164  24.255  0.00  0.00    +0.135 A 
ATOM      6  C   UNL     1       9.211   3.461  23.912  0.00  0.00    +0.091 A 
ATOM      7  C   UNL     1       7.894   3.838  24.141  0.00  0.00    +0.124 A 
ATOM      8  C   UNL     1       9.056  -0.144  25.126  0.00  0.00    +0.238 A 
ATOM      9  O   UNL     1      10.226  -0.495  25.027  0.00  0.00    -0.283 OA
ATOM     10  C   UNL     1       6.978   2.945  24.699  0.00  0.00    +0.092 A 
ATOM     11  C   UNL     1       7.985  -1.089  25.575  0.00  0.00    +0.214 A 
ENDROOT
BRANCH   1  13
ATOM     12  C   UNL     1       5.897  -2.087  27.527  0.00  0.00    +0.015 A 
ATOM     13  C   UNL     1       5.685  -1.348  26.358  0.00  0.00    +0.025 A 
ATOM     14  C   UNL     1       4.480  -1.505  25.671  0.00  0.00    +0.060 A 
ATOM     15  C   UNL     1       3.574  -2.493  26.074  0.00  0.00    +0.159 A 
ATOM     16  C   UNL     1       3.862  -3.356  27.138  0.00  0.00    +0.165 A 
ATOM     17  C   UNL     1       4.991  -3.078  27.913  0.00  0.00    +0.050 A 
BRANCH  15  18
ATOM     18  O   UNL     1       2.409  -2.603  25.371  0.00  0.00    -0.503 OA
ATOM     19  H   UNL     1       1.843  -3.200  25.894  0.00  0.00    +0.292 HD
ENDBRANCH  15  18
BRANCH  16  20
ATOM     20  O   UNL     1       3.022  -4.437  27.355  0.00  0.00    -0.457 OA
BRANCH  20  21
ATOM     21  C   UNL     1       3.393  -5.622  26.596  0.00  0.00    +0.339 C 
ATOM     22  O   UNL     1       3.208  -5.422  25.179  0.00  0.00    -0.331 OA
ATOM     23  C   UNL     1       2.047  -5.994  24.568  0.00  0.00    +0.179 C 
ATOM     24  C   UNL     1       1.917  -7.478  24.922  0.00  0.00    +0.177 C 
ATOM     25  C   UNL     1       1.665  -7.562  26.413  0.00  0.00    +0.180 C 
ATOM     26  C   UNL     1       2.810  -6.942  27.198  0.00  0.00    +0.214 C 
BRANCH  26  27
ATOM     27  O   UNL     1       2.404  -6.801  28.571  0.00  0.00    -0.383 OA
ATOM     28  H   UNL     1       1.452  -6.585  28.565  0.00  0.00    +0.210 HD
ENDBRANCH  26  27
BRANCH  25  29
ATOM     29  O   UNL     1       1.570  -8.958  26.778  0.00  0.00    -0.386 OA
ATOM     30  H   UNL     1       1.805  -9.000  27.735  0.00  0.00    +0.210 HD
ENDBRANCH  25  29
BRANCH  24  31
ATOM     31  O   UNL     1       3.117  -8.225  24.659  0.00  0.00    -0.386 OA
ATOM     32  H   UNL     1       3.100  -8.456  23.704  0.00  0.00    +0.210 HD
ENDBRANCH  24  31
BRANCH  23  33
ATOM     33  C   UNL     1       2.184  -5.838  23.044  0.00  0.00    +0.190 C 
BRANCH  33  34
ATOM     34  O   UNL     1       3.491  -6.236  22.623  0.00  0.00    -0.392 OA
ATOM     35  H   UNL     1       3.559  -7.191  22.826  0.00  0.00    +0.210 HD
ENDBRANCH  33  34
ENDBRANCH  23  33
ENDBRANCH  20  21
ENDBRANCH  16  20
ENDBRANCH   1  13
BRANCH   7  36
ATOM     36  O   UNL     1       7.451   5.089  23.821  0.00  0.00    -0.507 OA
ATOM     37  H   UNL     1       7.637   5.690  24.562  0.00  0.00    +0.292 HD
ENDBRANCH   7  36
BRANCH   5  38
ATOM     38  O   UNL     1      10.927   1.871  24.015  0.00  0.00    -0.506 OA
ATOM     39  H   UNL     1      11.032   1.646  23.067  0.00  0.00    +0.292 HD
ENDBRANCH   5  38
BRANCH  11  40
ATOM     40  O   UNL     1       8.314  -2.391  25.945  0.00  0.00    -0.453 OA
BRANCH  40  41
ATOM     41  C   UNL     1       8.696  -3.319  24.886  0.00  0.00    +0.340 C 
ATOM     42  O   UNL     1       7.973  -3.040  23.664  0.00  0.00    -0.331 OA
ATOM     43  C   UNL     1       6.671  -3.637  23.424  0.00  0.00    +0.179 C 
ATOM     44  C   UNL     1       6.133  -4.715  24.408  0.00  0.00    +0.177 C 
ATOM     45  C   UNL     1       6.973  -4.891  25.677  0.00  0.00    +0.180 C 
ATOM     46  C   UNL     1       8.447  -4.792  25.252  0.00  0.00    +0.214 C 
BRANCH  46  47
ATOM     47  O   UNL     1       9.397  -5.325  26.164  0.00  0.00    -0.383 OA
ATOM     48  H   UNL     1      10.121  -4.679  26.267  0.00  0.00    +0.210 HD
ENDBRANCH  46  47
BRANCH  45  49
ATOM     49  O   UNL     1       6.674  -6.164  26.266  0.00  0.00    -0.386 OA
ATOM     50  H   UNL     1       6.263  -6.001  27.137  0.00  0.00    +0.210 HD
ENDBRANCH  45  49
BRANCH  44  51
ATOM     51  O   UNL     1       5.999  -6.005  23.767  0.00  0.00    -0.386 OA
ATOM     52  H   UNL     1       6.868  -6.453  23.781  0.00  0.00    +0.210 HD
ENDBRANCH  44  51
BRANCH  43  53
ATOM     53  C   UNL     1       6.671  -4.180  21.970  0.00  0.00    +0.190 C 
BRANCH  53  54
ATOM     54  O   UNL     1       5.345  -4.260  21.446  0.00  0.00    -0.392 OA
ATOM     55  H   UNL     1       4.775  -4.505  22.199  0.00  0.00    +0.210 HD
ENDBRANCH  53  54
ENDBRANCH  43  53
ENDBRANCH  40  41
ENDBRANCH  11  40
TORSDOF 18
ENDMDL
MODEL 9
REMARK VINA RESULT:      -6.9      2.075      9.240
REMARK  Name = 
REMARK  18 active torsions:
REMARK  status: ('A' for Active; 'I' for Inactive)
REMARK    1  A    between atoms: C_3  and  O_33
REMARK    2  A    between atoms: C_4  and  O_32
REMARK    3  A    between atoms: C_6  and  C_7
REMARK    4  A    between atoms: C_8  and  O_20
REMARK    5  A    between atoms: C_12  and  O_19
REMARK    6  A    between atoms: C_14  and  O_18
REMARK    7  A    between atoms: O_20  and  C_21
REMARK    8  A    between atoms: C_22  and  O_31
REMARK    9  A    between atoms: C_23  and  O_30
REMARK   10  A    between atoms: C_24  and  O_29
REMARK   11  A    between atoms: C_25  and  C_27
REMARK   12  A    between atoms: C_27  and  O_28
REMARK   13  A    between atoms: O_33  and  C_34
REMARK   14  A    between atoms: C_35  and  O_44
REMARK   15  A    between atoms: C_36  and  O_43
REMARK   16  A    between atoms: C_37  and  O_42
REMARK   17  A    between atoms: C_38  and  C_40
REMARK   18  A    between atoms: C_40  and  O_41
REMARK                            x       y       z     vdW  Elec       q    Type
REMARK                         _______ _______ _______ _____ _____    ______ ____
ROOT
ATOM      1  C   UNL     1       5.836  -1.161  26.635  0.00  0.00    +0.181 A 
ATOM      2  O   UNL     1       5.169  -1.798  27.657  0.00  0.00    -0.451 OA
ATOM      3  C   UNL     1       5.262  -3.170  27.761  0.00  0.00    +0.147 A 
ATOM      4  C   UNL     1       5.956  -3.942  26.829  0.00  0.00    +0.109 A 
ATOM      5  C   UNL     1       6.016  -5.342  26.999  0.00  0.00    +0.135 A 
ATOM      6  C   UNL     1       5.411  -5.960  28.098  0.00  0.00    +0.091 A 
ATOM      7  C   UNL     1       4.723  -5.174  29.013  0.00  0.00    +0.124 A 
ATOM      8  C   UNL     1       6.620  -3.248  25.715  0.00  0.00    +0.238 A 
ATOM      9  O   UNL     1       7.160  -3.907  24.835  0.00  0.00    -0.283 OA
ATOM     10  C   UNL     1       4.635  -3.790  28.848  0.00  0.00    +0.092 A 
ATOM     11  C   UNL     1       6.613  -1.751  25.688  0.00  0.00    +0.214 A 
ENDROOT
BRANCH   1  13
ATOM     12  C   UNL     1       4.609   0.881  25.905  0.00  0.00    +0.015 A 
ATOM     13  C   UNL     1       5.671   0.306  26.612  0.00  0.00    +0.025 A 
ATOM     14  C   UNL     1       6.631   1.141  27.184  0.00  0.00    +0.060 A 
ATOM     15  C   UNL     1       6.599   2.517  26.924  0.00  0.00    +0.159 A 
ATOM     16  C   UNL     1       5.639   3.075  26.071  0.00  0.00    +0.165 A 
ATOM     17  C   UNL     1       4.594   2.254  25.642  0.00  0.00    +0.050 A 
BRANCH  15  18
ATOM     18  O   UNL     1       7.559   3.290  27.511  0.00  0.00    -0.503 OA
ATOM     19  H   UNL     1       7.612   4.098  26.967  0.00  0.00    +0.292 HD
ENDBRANCH  15  18
BRANCH  16  20
ATOM     20  O   UNL     1       5.786   4.402  25.695  0.00  0.00    -0.457 OA
BRANCH  20  21
ATOM     21  C   UNL     1       6.649   4.584  24.538  0.00  0.00    +0.339 C 
ATOM     22  O   UNL     1       7.869   5.270  24.889  0.00  0.00    -0.331 OA
ATOM     23  C   UNL     1       7.970   6.661  24.570  0.00  0.00    +0.179 C 
ATOM     24  C   UNL     1       7.617   6.913  23.102  0.00  0.00    +0.177 C 
ATOM     25  C   UNL     1       6.153   6.570  22.928  0.00  0.00    +0.180 C 
ATOM     26  C   UNL     1       5.885   5.116  23.282  0.00  0.00    +0.214 C 
BRANCH  26  27
ATOM     27  O   UNL     1       4.463   4.916  23.365  0.00  0.00    -0.383 OA
ATOM     28  H   UNL     1       4.316   4.173  23.980  0.00  0.00    +0.210 HD
ENDBRANCH  26  27
BRANCH  25  29
ATOM     29  O   UNL     1       5.802   6.770  21.539  0.00  0.00    -0.386 OA
ATOM     30  H   UNL     1       4.962   7.285  21.547  0.00  0.00    +0.210 HD
ENDBRANCH  25  29
BRANCH  24  31
ATOM     31  O   UNL     1       8.353   6.073  22.196  0.00  0.00    -0.386 OA
ATOM     32  H   UNL     1       7.703   5.724  21.546  0.00  0.00    +0.210 HD
ENDBRANCH  24  31
BRANCH  23  33
ATOM     33  C   UNL     1       9.418   7.108  24.837  0.00  0.00    +0.190 C 
BRANCH  33  34
ATOM     34  O   UNL     1      10.328   6.063  24.483  0.00  0.00    -0.392 OA
ATOM     35  H   UNL     1      11.116   6.509  24.112  0.00  0.00    +0.210 HD
ENDBRANCH  33  34
ENDBRANCH  23  33
ENDBRANCH  20  21
ENDBRANCH  16  20
ENDBRANCH   1  13
BRANCH   7  36
ATOM     36  O   UNL     1       4.118  -5.726  30.105  0.00  0.00    -0.507 OA
ATOM     37  H   UNL     1       4.785  -5.873  30.797  0.00  0.00    +0.292 HD
ENDBRANCH   7  36
BRANCH   5  38
ATOM     38  O   UNL     1       6.661  -6.184  26.131  0.00  0.00    -0.506 OA
ATOM     39  H   UNL     1       6.720  -5.749  25.254  0.00  0.00    +0.292 HD
ENDBRANCH   5  38
BRANCH  11  40
ATOM     40  O   UNL     1       7.186  -1.071  24.616  0.00  0.00    -0.453 OA
BRANCH  40  41
ATOM     41  C   UNL     1       8.579  -0.659  24.743  0.00  0.00    +0.340 C 
ATOM     42  O   UNL     1       8.690   0.782  24.828  0.00  0.00    -0.331 OA
ATOM     43  C   UNL     1       8.784   1.587  23.624  0.00  0.00    +0.179 C 
ATOM     44  C   UNL     1       8.941   0.884  22.246  0.00  0.00    +0.177 C 
ATOM     45  C   UNL     1       8.770  -0.639  22.287  0.00  0.00    +0.180 C 
ATOM     46  C   UNL     1       9.459  -1.128  23.572  0.00  0.00    +0.214 C 
BRANCH  46  47
ATOM     47  O   UNL     1       9.786  -2.509  23.617  0.00  0.00    -0.383 OA
ATOM     48  H   UNL     1      10.032  -2.738  24.534  0.00  0.00    +0.210 HD
ENDBRANCH  46  47
BRANCH  45  49
ATOM     49  O   UNL     1       9.364  -1.210  21.115  0.00  0.00    -0.386 OA
ATOM     50  H   UNL     1       9.101  -0.663  20.350  0.00  0.00    +0.210 HD
ENDBRANCH  45  49
BRANCH  44  51
ATOM     51  O   UNL     1      10.216   1.183  21.633  0.00  0.00    -0.386 OA
ATOM     52  H   UNL     1      10.796   0.400  21.720  0.00  0.00    +0.210 HD
ENDBRANCH  44  51
BRANCH  43  53
ATOM     53  C   UNL     1       9.926   2.615  23.842  0.00  0.00    +0.190 C 
BRANCH  53  54
ATOM     54  O   UNL     1       9.740   3.778  23.034  0.00  0.00    -0.392 OA
ATOM     55  H   UNL     1       8.815   3.741  22.723  0.00  0.00    +0.210 HD
ENDBRANCH  53  54
ENDBRANCH  43  53
ENDBRANCH  40  41
ENDBRANCH  11  40
TORSDOF 18
ENDMDL
