MODEL 1
REMARK VINA RESULT:      -8.6      0.000      0.000
REMARK  Name = 
REMARK  17 active torsions:
REMARK  status: ('A' for Active; 'I' for Inactive)
REMARK    1  A    between atoms: C_1  and  C_2
REMARK    2  A    between atoms: C_4  and  O_53
REMARK    3  A    between atoms: C_6  and  O_52
REMARK    4  A    between atoms: C_8  and  O_51
REMARK    5  A    between atoms: C_10  and  O_13
REMARK    6  A    between atoms: O_13  and  C_14
REMARK    7  A    between atoms: C_14  and  C_15
REMARK    8  A    between atoms: C_17  and  O_50
REMARK    9  A    between atoms: C_19  and  O_49
REMARK   10  A    between atoms: C_21  and  O_48
REMARK   11  A    between atoms: C_23  and  O_26
REMARK   12  A    between atoms: O_26  and  C_27
REMARK   13  A    between atoms: C_28  and  C_40
REMARK   14  A    between atoms: C_32  and  O_39
REMARK   15  A    between atoms: C_34  and  O_38
REMARK   16  A    between atoms: C_42  and  O_47
REMARK   17  A    between atoms: C_43  and  O_46
REMARK                            x       y       z     vdW  Elec       q    Type
REMARK                         _______ _______ _______ _____ _____    ______ ____
ROOT
ATOM      1  C   UNL     1       7.786  -0.854  24.111  0.00  0.00    +0.179 C 
ATOM      2  O   UNL     1       8.462   0.248  24.731  0.00  0.00    -0.331 OA
ATOM      3  C   UNL     1       8.507   1.377  23.857  0.00  0.00    +0.340 C 
ATOM      4  C   UNL     1       9.540   1.030  22.760  0.00  0.00    +0.214 C 
ATOM      5  C   UNL     1       9.060  -0.273  22.061  0.00  0.00    +0.180 C 
ATOM      6  C   UNL     1       8.736  -1.411  23.050  0.00  0.00    +0.177 C 
ENDROOT
BRANCH   6   7
ATOM      7  O   UNL     1       8.148  -2.492  22.312  0.00  0.00    -0.386 OA
ATOM      8  H   UNL     1       7.229  -2.570  22.631  0.00  0.00    +0.210 HD
ENDBRANCH   6   7
BRANCH   5   9
ATOM      9  O   UNL     1      10.021  -0.717  21.092  0.00  0.00    -0.386 OA
ATOM     10  H   UNL     1      10.790  -0.117  21.201  0.00  0.00    +0.210 HD
ENDBRANCH   5   9
BRANCH   4  11
ATOM     11  O   UNL     1       9.620   2.094  21.796  0.00  0.00    -0.383 OA
ATOM     12  H   UNL     1       9.463   1.685  20.925  0.00  0.00    +0.210 HD
ENDBRANCH   4  11
BRANCH   3  13
ATOM     13  O   UNL     1       8.789   2.609  24.572  0.00  0.00    -0.453 OA
BRANCH  13  14
ATOM     14  C   UNL     1       7.899   3.635  24.213  0.00  0.00    +0.214 A 
ATOM     15  C   UNL     1       6.419   3.354  24.180  0.00  0.00    +0.238 A 
ATOM     16  O   UNL     1       5.889   2.491  24.870  0.00  0.00    -0.283 OA
ATOM     17  C   UNL     1       5.563   4.229  23.395  0.00  0.00    +0.109 A 
ATOM     18  C   UNL     1       6.049   5.500  23.158  0.00  0.00    +0.147 A 
ATOM     19  C   UNL     1       5.225   6.457  22.564  0.00  0.00    +0.092 A 
ATOM     20  C   UNL     1       3.914   6.117  22.221  0.00  0.00    +0.124 A 
ATOM     21  C   UNL     1       3.426   4.835  22.439  0.00  0.00    +0.091 A 
ATOM     22  O   UNL     1       7.302   5.883  23.543  0.00  0.00    -0.451 OA
ATOM     23  C   UNL     1       4.260   3.882  23.014  0.00  0.00    +0.135 A 
ATOM     24  C   UNL     1       8.238   4.937  24.002  0.00  0.00    +0.181 A 
BRANCH  24  25
ATOM     25  C   UNL     1       9.554   5.620  24.309  0.00  0.00    +0.025 A 
ATOM     26  C   UNL     1       9.593   6.555  25.380  0.00  0.00    +0.015 A 
ATOM     27  C   UNL     1      10.790   7.074  25.888  0.00  0.00    +0.050 A 
ATOM     28  C   UNL     1      11.979   6.688  25.311  0.00  0.00    +0.158 A 
ATOM     29  C   UNL     1      11.976   5.859  24.195  0.00  0.00    +0.159 A 
ATOM     30  C   UNL     1      10.779   5.321  23.697  0.00  0.00    +0.060 A 
BRANCH  29  31
ATOM     31  O   UNL     1      13.191   5.589  23.623  0.00  0.00    -0.503 OA
ATOM     32  H   UNL     1      13.366   6.298  22.981  0.00  0.00    +0.292 HD
ENDBRANCH  29  31
BRANCH  28  33
ATOM     33  O   UNL     1      13.152   7.101  25.870  0.00  0.00    -0.503 OA
ATOM     34  H   UNL     1      13.319   6.469  26.597  0.00  0.00    +0.292 HD
ENDBRANCH  28  33
ENDBRANCH  24  25
BRANCH  23  35
ATOM     35  O   UNL     1       3.792   2.608  23.171  0.00  0.00    -0.506 OA
ATOM     36  H   UNL     1       3.313   2.349  22.366  0.00  0.00    +0.292 HD
ENDBRANCH  23  35
BRANCH  20  37
ATOM     37  O   UNL     1       3.058   7.013  21.651  0.00  0.00    -0.507 OA
ATOM     38  H   UNL     1       2.281   6.537  21.316  0.00  0.00    +0.292 HD
ENDBRANCH  20  37
ENDBRANCH  13  14
ENDBRANCH   3  13
BRANCH   1  39
ATOM     39  C   UNL     1       7.343  -1.871  25.168  0.00  0.00    +0.197 C 
BRANCH  39  40
ATOM     40  O   UNL     1       8.298  -2.916  25.258  0.00  0.00    -0.346 OA
BRANCH  40  44
ATOM     41  C   UNL     1       4.227  -5.242  24.652  0.00  0.00    +0.041 C 
ATOM     42  C   UNL     1       5.656  -5.429  25.150  0.00  0.00    +0.149 C 
ATOM     43  O   UNL     1       6.324  -4.178  24.998  0.00  0.00    -0.343 OA
ATOM     44  C   UNL     1       7.709  -4.217  25.339  0.00  0.00    +0.282 C 
ATOM     45  C   UNL     1       7.937  -4.696  26.786  0.00  0.00    +0.201 C 
ATOM     46  C   UNL     1       7.172  -5.998  27.041  0.00  0.00    +0.179 C 
ATOM     47  C   UNL     1       5.704  -5.870  26.619  0.00  0.00    +0.174 C 
BRANCH  47  48
ATOM     48  O   UNL     1       5.079  -7.141  26.825  0.00  0.00    -0.387 OA
ATOM     49  H   UNL     1       5.434  -7.751  26.152  0.00  0.00    +0.210 HD
ENDBRANCH  47  48
BRANCH  46  50
ATOM     50  O   UNL     1       7.251  -6.357  28.428  0.00  0.00    -0.386 OA
ATOM     51  H   UNL     1       6.326  -6.492  28.717  0.00  0.00    +0.210 HD
ENDBRANCH  46  50
BRANCH  45  52
ATOM     52  O   UNL     1       9.352  -4.864  27.011  0.00  0.00    -0.384 OA
ATOM     53  H   UNL     1       9.644  -4.182  27.637  0.00  0.00    +0.210 HD
ENDBRANCH  45  52
ENDBRANCH  40  44
ENDBRANCH  39  40
ENDBRANCH   1  39
TORSDOF 16
ENDMDL
MODEL 2
REMARK VINA RESULT:      -8.3      2.486      6.139
REMARK  Name = 
REMARK  17 active torsions:
REMARK  status: ('A' for Active; 'I' for Inactive)
REMARK    1  A    between atoms: C_1  and  C_2
REMARK    2  A    between atoms: C_4  and  O_53
REMARK    3  A    between atoms: C_6  and  O_52
REMARK    4  A    between atoms: C_8  and  O_51
REMARK    5  A    between atoms: C_10  and  O_13
REMARK    6  A    between atoms: O_13  and  C_14
REMARK    7  A    between atoms: C_14  and  C_15
REMARK    8  A    between atoms: C_17  and  O_50
REMARK    9  A    between atoms: C_19  and  O_49
REMARK   10  A    between atoms: C_21  and  O_48
REMARK   11  A    between atoms: C_23  and  O_26
REMARK   12  A    between atoms: O_26  and  C_27
REMARK   13  A    between atoms: C_28  and  C_40
REMARK   14  A    between atoms: C_32  and  O_39
REMARK   15  A    between atoms: C_34  and  O_38
REMARK   16  A    between atoms: C_42  and  O_47
REMARK   17  A    between atoms: C_43  and  O_46
REMARK                            x       y       z     vdW  Elec       q    Type
REMARK                         _______ _______ _______ _____ _____    ______ ____
ROOT
ATOM      1  C   UNL     1       5.978  -0.662  26.088  0.00  0.00    +0.179 C 
ATOM      2  O   UNL     1       6.052  -0.111  24.766  0.00  0.00    -0.331 OA
ATOM      3  C   UNL     1       6.257   1.301  24.813  0.00  0.00    +0.340 C 
ATOM      4  C   UNL     1       4.914   1.916  25.268  0.00  0.00    +0.214 C 
ATOM      5  C   UNL     1       4.563   1.298  26.651  0.00  0.00    +0.180 C 
ATOM      6  C   UNL     1       4.625  -0.242  26.664  0.00  0.00    +0.177 C 
ENDROOT
BRANCH   6   7
ATOM      7  O   UNL     1       4.452  -0.687  28.017  0.00  0.00    -0.386 OA
ATOM      8  H   UNL     1       5.203  -1.281  28.206  0.00  0.00    +0.210 HD
ENDBRANCH   6   7
BRANCH   5   9
ATOM      9  O   UNL     1       3.275   1.746  27.100  0.00  0.00    -0.386 OA
ATOM     10  H   UNL     1       2.882   2.206  26.327  0.00  0.00    +0.210 HD
ENDBRANCH   5   9
BRANCH   4  11
ATOM     11  O   UNL     1       5.036   3.343  25.394  0.00  0.00    -0.383 OA
ATOM     12  H   UNL     1       5.603   3.502  26.172  0.00  0.00    +0.210 HD
ENDBRANCH   4  11
BRANCH   3  13
ATOM     13  O   UNL     1       6.751   1.822  23.550  0.00  0.00    -0.453 OA
BRANCH  13  14
ATOM     14  C   UNL     1       8.090   2.235  23.644  0.00  0.00    +0.214 A 
ATOM     15  C   UNL     1       8.400   3.646  24.070  0.00  0.00    +0.238 A 
ATOM     16  O   UNL     1       7.653   4.309  24.778  0.00  0.00    -0.283 OA
ATOM     17  C   UNL     1       9.702   4.202  23.735  0.00  0.00    +0.109 A 
ATOM     18  C   UNL     1      10.715   3.289  23.516  0.00  0.00    +0.147 A 
ATOM     19  C   UNL     1      12.028   3.733  23.360  0.00  0.00    +0.092 A 
ATOM     20  C   UNL     1      12.303   5.101  23.432  0.00  0.00    +0.124 A 
ATOM     21  C   UNL     1      11.287   6.027  23.632  0.00  0.00    +0.091 A 
ATOM     22  O   UNL     1      10.489   1.942  23.509  0.00  0.00    -0.451 OA
ATOM     23  C   UNL     1       9.978   5.576  23.768  0.00  0.00    +0.135 A 
ATOM     24  C   UNL     1       9.178   1.428  23.503  0.00  0.00    +0.181 A 
BRANCH  24  25
ATOM     25  C   UNL     1       9.215  -0.084  23.440  0.00  0.00    +0.025 A 
ATOM     26  C   UNL     1       9.818  -0.788  24.520  0.00  0.00    +0.015 A 
ATOM     27  C   UNL     1       9.714  -2.175  24.671  0.00  0.00    +0.050 A 
ATOM     28  C   UNL     1       9.025  -2.896  23.721  0.00  0.00    +0.158 A 
ATOM     29  C   UNL     1       8.513  -2.259  22.597  0.00  0.00    +0.159 A 
ATOM     30  C   UNL     1       8.598  -0.866  22.454  0.00  0.00    +0.060 A 
BRANCH  29  31
ATOM     31  O   UNL     1       7.916  -3.054  21.654  0.00  0.00    -0.503 OA
ATOM     32  H   UNL     1       7.933  -2.560  20.816  0.00  0.00    +0.292 HD
ENDBRANCH  29  31
BRANCH  28  33
ATOM     33  O   UNL     1       8.823  -4.231  23.919  0.00  0.00    -0.503 OA
ATOM     34  H   UNL     1       8.290  -4.285  24.736  0.00  0.00    +0.292 HD
ENDBRANCH  28  33
ENDBRANCH  24  25
BRANCH  23  35
ATOM     35  O   UNL     1       8.977   6.496  23.906  0.00  0.00    -0.506 OA
ATOM     36  H   UNL     1       8.270   6.111  24.450  0.00  0.00    +0.292 HD
ENDBRANCH  23  35
BRANCH  20  37
ATOM     37  O   UNL     1      13.568   5.594  23.301  0.00  0.00    -0.507 OA
ATOM     38  H   UNL     1      14.195   4.853  23.285  0.00  0.00    +0.292 HD
ENDBRANCH  20  37
ENDBRANCH  13  14
ENDBRANCH   3  13
BRANCH   1  39
ATOM     39  C   UNL     1       6.213  -2.175  26.049  0.00  0.00    +0.197 C 
BRANCH  39  40
ATOM     40  O   UNL     1       6.042  -2.654  24.726  0.00  0.00    -0.346 OA
BRANCH  40  44
ATOM     41  C   UNL     1       4.863  -6.730  26.809  0.00  0.00    +0.041 C 
ATOM     42  C   UNL     1       4.564  -5.877  25.581  0.00  0.00    +0.149 C 
ATOM     43  O   UNL     1       5.373  -4.706  25.672  0.00  0.00    -0.343 OA
ATOM     44  C   UNL     1       5.137  -3.757  24.634  0.00  0.00    +0.282 C 
ATOM     45  C   UNL     1       5.350  -4.365  23.234  0.00  0.00    +0.201 C 
ATOM     46  C   UNL     1       4.573  -5.678  23.100  0.00  0.00    +0.179 C 
ATOM     47  C   UNL     1       4.867  -6.619  24.273  0.00  0.00    +0.174 C 
BRANCH  47  48
ATOM     48  O   UNL     1       4.056  -7.787  24.110  0.00  0.00    -0.387 OA
ATOM     49  H   UNL     1       4.470  -8.501  24.628  0.00  0.00    +0.210 HD
ENDBRANCH  47  48
BRANCH  46  50
ATOM     50  O   UNL     1       4.899  -6.324  21.861  0.00  0.00    -0.386 OA
ATOM     51  H   UNL     1       5.682  -5.850  21.517  0.00  0.00    +0.210 HD
ENDBRANCH  46  50
BRANCH  45  52
ATOM     52  O   UNL     1       4.943  -3.407  22.235  0.00  0.00    -0.384 OA
ATOM     53  H   UNL     1       3.999  -3.541  22.052  0.00  0.00    +0.210 HD
ENDBRANCH  45  52
ENDBRANCH  40  44
ENDBRANCH  39  40
ENDBRANCH   1  39
TORSDOF 16
ENDMDL
MODEL 3
REMARK VINA RESULT:      -8.3      2.419      5.886
REMARK  Name = 
REMARK  17 active torsions:
REMARK  status: ('A' for Active; 'I' for Inactive)
REMARK    1  A    between atoms: C_1  and  C_2
REMARK    2  A    between atoms: C_4  and  O_53
REMARK    3  A    between atoms: C_6  and  O_52
REMARK    4  A    between atoms: C_8  and  O_51
REMARK    5  A    between atoms: C_10  and  O_13
REMARK    6  A    between atoms: O_13  and  C_14
REMARK    7  A    between atoms: C_14  and  C_15
REMARK    8  A    between atoms: C_17  and  O_50
REMARK    9  A    between atoms: C_19  and  O_49
REMARK   10  A    between atoms: C_21  and  O_48
REMARK   11  A    between atoms: C_23  and  O_26
REMARK   12  A    between atoms: O_26  and  C_27
REMARK   13  A    between atoms: C_28  and  C_40
REMARK   14  A    between atoms: C_32  and  O_39
REMARK   15  A    between atoms: C_34  and  O_38
REMARK   16  A    between atoms: C_42  and  O_47
REMARK   17  A    between atoms: C_43  and  O_46
REMARK                            x       y       z     vdW  Elec       q    Type
REMARK                         _______ _______ _______ _____ _____    ______ ____
ROOT
ATOM      1  C   UNL     1       5.702  -1.425  25.757  0.00  0.00    +0.179 C 
ATOM      2  O   UNL     1       5.591  -0.511  24.657  0.00  0.00    -0.331 OA
ATOM      3  C   UNL     1       6.038   0.793  25.030  0.00  0.00    +0.340 C 
ATOM      4  C   UNL     1       4.943   1.375  25.953  0.00  0.00    +0.214 C 
ATOM      5  C   UNL     1       4.788   0.408  27.161  0.00  0.00    +0.180 C 
ATOM      6  C   UNL     1       4.589  -1.062  26.742  0.00  0.00    +0.177 C 
ENDROOT
BRANCH   6   7
ATOM      7  O   UNL     1       4.629  -1.874  27.924  0.00  0.00    -0.386 OA
ATOM      8  H   UNL     1       3.963  -2.576  27.794  0.00  0.00    +0.210 HD
ENDBRANCH   6   7
BRANCH   5   9
ATOM      9  O   UNL     1       3.716   0.828  28.019  0.00  0.00    -0.386 OA
ATOM     10  H   UNL     1       2.947   0.279  27.754  0.00  0.00    +0.210 HD
ENDBRANCH   5   9
BRANCH   4  11
ATOM     11  O   UNL     1       5.328   2.678  26.424  0.00  0.00    -0.383 OA
ATOM     12  H   UNL     1       4.538   3.059  26.851  0.00  0.00    +0.210 HD
ENDBRANCH   4  11
BRANCH   3  13
ATOM     13  O   UNL     1       6.338   1.617  23.872  0.00  0.00    -0.453 OA
BRANCH  13  14
ATOM     14  C   UNL     1       7.665   2.078  23.891  0.00  0.00    +0.214 A 
ATOM     15  C   UNL     1       7.953   3.486  24.345  0.00  0.00    +0.238 A 
ATOM     16  O   UNL     1       7.232   4.095  25.126  0.00  0.00    -0.283 OA
ATOM     17  C   UNL     1       9.207   4.102  23.944  0.00  0.00    +0.109 A 
ATOM     18  C   UNL     1      10.235   3.237  23.625  0.00  0.00    +0.147 A 
ATOM     19  C   UNL     1      11.517   3.736  23.397  0.00  0.00    +0.092 A 
ATOM     20  C   UNL     1      11.747   5.110  23.499  0.00  0.00    +0.124 A 
ATOM     21  C   UNL     1      10.714   5.989  23.800  0.00  0.00    +0.091 A 
ATOM     22  O   UNL     1      10.058   1.883  23.584  0.00  0.00    -0.451 OA
ATOM     23  C   UNL     1       9.434   5.484  24.008  0.00  0.00    +0.135 A 
ATOM     24  C   UNL     1       8.769   1.319  23.649  0.00  0.00    +0.181 A 
BRANCH  24  25
ATOM     25  C   UNL     1       8.857  -0.187  23.529  0.00  0.00    +0.025 A 
ATOM     26  C   UNL     1       9.597  -0.899  24.514  0.00  0.00    +0.015 A 
ATOM     27  C   UNL     1       9.562  -2.293  24.626  0.00  0.00    +0.050 A 
ATOM     28  C   UNL     1       8.804  -3.012  23.729  0.00  0.00    +0.158 A 
ATOM     29  C   UNL     1       8.152  -2.362  22.688  0.00  0.00    +0.159 A 
ATOM     30  C   UNL     1       8.168  -0.963  22.586  0.00  0.00    +0.060 A 
BRANCH  29  31
ATOM     31  O   UNL     1       7.490  -3.152  21.786  0.00  0.00    -0.503 OA
ATOM     32  H   UNL     1       7.894  -4.035  21.832  0.00  0.00    +0.292 HD
ENDBRANCH  29  31
BRANCH  28  33
ATOM     33  O   UNL     1       8.676  -4.360  23.900  0.00  0.00    -0.503 OA
ATOM     34  H   UNL     1       9.209  -4.563  24.693  0.00  0.00    +0.292 HD
ENDBRANCH  28  33
ENDBRANCH  24  25
BRANCH  23  35
ATOM     35  O   UNL     1       8.413   6.359  24.245  0.00  0.00    -0.506 OA
ATOM     36  H   UNL     1       8.156   6.776  23.406  0.00  0.00    +0.292 HD
ENDBRANCH  23  35
BRANCH  20  37
ATOM     37  O   UNL     1      12.981   5.656  23.301  0.00  0.00    -0.507 OA
ATOM     38  H   UNL     1      12.916   6.621  23.383  0.00  0.00    +0.292 HD
ENDBRANCH  20  37
ENDBRANCH  13  14
ENDBRANCH   3  13
BRANCH   1  39
ATOM     39  C   UNL     1       5.664  -2.871  25.255  0.00  0.00    +0.197 C 
BRANCH  39  40
ATOM     40  O   UNL     1       6.439  -3.696  26.108  0.00  0.00    -0.346 OA
BRANCH  40  44
ATOM     41  C   UNL     1       2.301  -5.396  27.638  0.00  0.00    +0.041 C 
ATOM     42  C   UNL     1       3.741  -5.811  27.356  0.00  0.00    +0.149 C 
ATOM     43  O   UNL     1       4.429  -4.656  26.881  0.00  0.00    -0.343 OA
ATOM     44  C   UNL     1       5.776  -4.907  26.483  0.00  0.00    +0.282 C 
ATOM     45  C   UNL     1       6.614  -5.514  27.626  0.00  0.00    +0.201 C 
ATOM     46  C   UNL     1       5.887  -6.713  28.240  0.00  0.00    +0.179 C 
ATOM     47  C   UNL     1       4.442  -6.357  28.607  0.00  0.00    +0.174 C 
BRANCH  47  48
ATOM     48  O   UNL     1       3.814  -7.541  29.108  0.00  0.00    -0.387 OA
ATOM     49  H   UNL     1       3.201  -7.267  29.815  0.00  0.00    +0.210 HD
ENDBRANCH  47  48
BRANCH  46  50
ATOM     50  O   UNL     1       6.586  -7.175  29.404  0.00  0.00    -0.386 OA
ATOM     51  H   UNL     1       7.533  -7.175  29.157  0.00  0.00    +0.210 HD
ENDBRANCH  46  50
BRANCH  45  52
ATOM     52  O   UNL     1       7.910  -5.889  27.114  0.00  0.00    -0.384 OA
ATOM     53  H   UNL     1       7.819  -6.079  26.166  0.00  0.00    +0.210 HD
ENDBRANCH  45  52
ENDBRANCH  40  44
ENDBRANCH  39  40
ENDBRANCH   1  39
TORSDOF 16
ENDMDL
MODEL 4
REMARK VINA RESULT:      -8.0      2.482      6.069
REMARK  Name = 
REMARK  17 active torsions:
REMARK  status: ('A' for Active; 'I' for Inactive)
REMARK    1  A    between atoms: C_1  and  C_2
REMARK    2  A    between atoms: C_4  and  O_53
REMARK    3  A    between atoms: C_6  and  O_52
REMARK    4  A    between atoms: C_8  and  O_51
REMARK    5  A    between atoms: C_10  and  O_13
REMARK    6  A    between atoms: O_13  and  C_14
REMARK    7  A    between atoms: C_14  and  C_15
REMARK    8  A    between atoms: C_17  and  O_50
REMARK    9  A    between atoms: C_19  and  O_49
REMARK   10  A    between atoms: C_21  and  O_48
REMARK   11  A    between atoms: C_23  and  O_26
REMARK   12  A    between atoms: O_26  and  C_27
REMARK   13  A    between atoms: C_28  and  C_40
REMARK   14  A    between atoms: C_32  and  O_39
REMARK   15  A    between atoms: C_34  and  O_38
REMARK   16  A    between atoms: C_42  and  O_47
REMARK   17  A    between atoms: C_43  and  O_46
REMARK                            x       y       z     vdW  Elec       q    Type
REMARK                         _______ _______ _______ _____ _____    ______ ____
ROOT
ATOM      1  C   UNL     1       5.449  -0.491  25.775  0.00  0.00    +0.179 C 
ATOM      2  O   UNL     1       5.509   0.382  24.639  0.00  0.00    -0.331 OA
ATOM      3  C   UNL     1       6.092   1.638  24.990  0.00  0.00    +0.340 C 
ATOM      4  C   UNL     1       5.028   2.385  25.827  0.00  0.00    +0.214 C 
ATOM      5  C   UNL     1       4.691   1.496  27.057  0.00  0.00    +0.180 C 
ATOM      6  C   UNL     1       4.337   0.043  26.680  0.00  0.00    +0.177 C 
ENDROOT
BRANCH   6   7
ATOM      7  O   UNL     1       4.214  -0.716  27.890  0.00  0.00    -0.386 OA
ATOM      8  H   UNL     1       5.004  -1.288  27.934  0.00  0.00    +0.210 HD
ENDBRANCH   6   7
BRANCH   5   9
ATOM      9  O   UNL     1       3.635   2.077  27.835  0.00  0.00    -0.386 OA
ATOM     10  H   UNL     1       2.830   1.572  27.590  0.00  0.00    +0.210 HD
ENDBRANCH   5   9
BRANCH   4  11
ATOM     11  O   UNL     1       5.544   3.651  26.273  0.00  0.00    -0.383 OA
ATOM     12  H   UNL     1       6.216   3.449  26.950  0.00  0.00    +0.210 HD
ENDBRANCH   4  11
BRANCH   3  13
ATOM     13  O   UNL     1       6.553   2.370  23.823  0.00  0.00    -0.453 OA
BRANCH  13  14
ATOM     14  C   UNL     1       7.938   2.601  23.867  0.00  0.00    +0.214 A 
ATOM     15  C   UNL     1       8.447   3.989  24.156  0.00  0.00    +0.238 A 
ATOM     16  O   UNL     1       7.813   4.810  24.806  0.00  0.00    -0.283 OA
ATOM     17  C   UNL     1       9.805   4.327  23.759  0.00  0.00    +0.109 A 
ATOM     18  C   UNL     1      10.678   3.266  23.618  0.00  0.00    +0.147 A 
ATOM     19  C   UNL     1      12.036   3.509  23.409  0.00  0.00    +0.092 A 
ATOM     20  C   UNL     1      12.497   4.826  23.350  0.00  0.00    +0.124 A 
ATOM     21  C   UNL     1      11.622   5.898  23.472  0.00  0.00    +0.091 A 
ATOM     22  O   UNL     1      10.270   1.968  23.738  0.00  0.00    -0.451 OA
ATOM     23  C   UNL     1      10.266   5.646  23.661  0.00  0.00    +0.135 A 
ATOM     24  C   UNL     1       8.902   1.642  23.792  0.00  0.00    +0.181 A 
BRANCH  24  25
ATOM     25  C   UNL     1       8.731   0.140  23.871  0.00  0.00    +0.025 A 
ATOM     26  C   UNL     1       8.512  -0.576  22.661  0.00  0.00    +0.015 A 
ATOM     27  C   UNL     1       8.560  -1.973  22.589  0.00  0.00    +0.050 A 
ATOM     28  C   UNL     1       8.801  -2.689  23.741  0.00  0.00    +0.158 A 
ATOM     29  C   UNL     1       8.914  -2.031  24.960  0.00  0.00    +0.159 A 
ATOM     30  C   UNL     1       8.887  -0.630  25.031  0.00  0.00    +0.060 A 
BRANCH  29  31
ATOM     31  O   UNL     1       9.065  -2.815  26.073  0.00  0.00    -0.503 OA
ATOM     32  H   UNL     1       8.891  -3.732  25.799  0.00  0.00    +0.292 HD
ENDBRANCH  29  31
BRANCH  28  33
ATOM     33  O   UNL     1       8.960  -4.041  23.660  0.00  0.00    -0.503 OA
ATOM     34  H   UNL     1       9.375  -4.295  24.508  0.00  0.00    +0.292 HD
ENDBRANCH  28  33
ENDBRANCH  24  25
BRANCH  23  35
ATOM     35  O   UNL     1       9.404   6.705  23.721  0.00  0.00    -0.506 OA
ATOM     36  H   UNL     1       9.530   7.163  24.569  0.00  0.00    +0.292 HD
ENDBRANCH  23  35
BRANCH  20  37
ATOM     37  O   UNL     1      13.814   5.126  23.163  0.00  0.00    -0.507 OA
ATOM     38  H   UNL     1      14.348   4.340  23.363  0.00  0.00    +0.292 HD
ENDBRANCH  20  37
ENDBRANCH  13  14
ENDBRANCH   3  13
BRANCH   1  39
ATOM     39  C   UNL     1       5.261  -1.942  25.323  0.00  0.00    +0.197 C 
BRANCH  39  40
ATOM     40  O   UNL     1       5.956  -2.813  26.201  0.00  0.00    -0.346 OA
BRANCH  40  44
ATOM     41  C   UNL     1       6.002  -5.666  22.432  0.00  0.00    +0.041 C 
ATOM     42  C   UNL     1       5.792  -5.673  23.943  0.00  0.00    +0.149 C 
ATOM     43  O   UNL     1       5.956  -4.331  24.398  0.00  0.00    -0.343 OA
ATOM     44  C   UNL     1       5.880  -4.188  25.815  0.00  0.00    +0.282 C 
ATOM     45  C   UNL     1       4.546  -4.713  26.380  0.00  0.00    +0.201 C 
ATOM     46  C   UNL     1       4.265  -6.124  25.857  0.00  0.00    +0.179 C 
ATOM     47  C   UNL     1       4.400  -6.187  24.332  0.00  0.00    +0.174 C 
BRANCH  47  48
ATOM     48  O   UNL     1       4.191  -7.546  23.930  0.00  0.00    -0.387 OA
ATOM     49  H   UNL     1       3.230  -7.672  23.825  0.00  0.00    +0.210 HD
ENDBRANCH  47  48
BRANCH  46  50
ATOM     50  O   UNL     1       2.952  -6.549  26.249  0.00  0.00    -0.386 OA
ATOM     51  H   UNL     1       2.354  -6.235  25.542  0.00  0.00    +0.210 HD
ENDBRANCH  46  50
BRANCH  45  52
ATOM     52  O   UNL     1       4.599  -4.686  27.822  0.00  0.00    -0.384 OA
ATOM     53  H   UNL     1       4.469  -3.769  28.113  0.00  0.00    +0.210 HD
ENDBRANCH  45  52
ENDBRANCH  40  44
ENDBRANCH  39  40
ENDBRANCH   1  39
TORSDOF 16
ENDMDL
MODEL 5
REMARK VINA RESULT:      -8.0      2.559      8.154
REMARK  Name = 
REMARK  17 active torsions:
REMARK  status: ('A' for Active; 'I' for Inactive)
REMARK    1  A    between atoms: C_1  and  C_2
REMARK    2  A    between atoms: C_4  and  O_53
REMARK    3  A    between atoms: C_6  and  O_52
REMARK    4  A    between atoms: C_8  and  O_51
REMARK    5  A    between atoms: C_10  and  O_13
REMARK    6  A    between atoms: O_13  and  C_14
REMARK    7  A    between atoms: C_14  and  C_15
REMARK    8  A    between atoms: C_17  and  O_50
REMARK    9  A    between atoms: C_19  and  O_49
REMARK   10  A    between atoms: C_21  and  O_48
REMARK   11  A    between atoms: C_23  and  O_26
REMARK   12  A    between atoms: O_26  and  C_27
REMARK   13  A    between atoms: C_28  and  C_40
REMARK   14  A    between atoms: C_32  and  O_39
REMARK   15  A    between atoms: C_34  and  O_38
REMARK   16  A    between atoms: C_42  and  O_47
REMARK   17  A    between atoms: C_43  and  O_46
REMARK                            x       y       z     vdW  Elec       q    Type
REMARK                         _______ _______ _______ _____ _____    ______ ____
ROOT
ATOM      1  C   UNL     1       9.730   1.571  23.849  0.00  0.00    +0.179 C 
ATOM      2  O   UNL     1       9.026   0.602  24.637  0.00  0.00    -0.331 OA
ATOM      3  C   UNL     1       9.685  -0.665  24.598  0.00  0.00    +0.340 C 
ATOM      4  C   UNL     1       9.419  -1.244  23.190  0.00  0.00    +0.214 C 
ATOM      5  C   UNL     1       9.975  -0.226  22.153  0.00  0.00    +0.180 C 
ATOM      6  C   UNL     1       9.474   1.213  22.383  0.00  0.00    +0.177 C 
ENDROOT
BRANCH   6   7
ATOM      7  O   UNL     1      10.177   2.082  21.485  0.00  0.00    -0.386 OA
ATOM      8  H   UNL     1      10.504   1.516  20.759  0.00  0.00    +0.210 HD
ENDBRANCH   6   7
BRANCH   5   9
ATOM      9  O   UNL     1       9.678  -0.647  20.814  0.00  0.00    -0.386 OA
ATOM     10  H   UNL     1       9.206   0.112  20.407  0.00  0.00    +0.210 HD
ENDBRANCH   5   9
BRANCH   4  11
ATOM     11  O   UNL     1      10.090  -2.506  23.035  0.00  0.00    -0.383 OA
ATOM     12  H   UNL     1      10.962  -2.306  22.645  0.00  0.00    +0.210 HD
ENDBRANCH   4  11
BRANCH   3  13
ATOM     13  O   UNL     1       9.266  -1.531  25.686  0.00  0.00    -0.453 OA
BRANCH  13  14
ATOM     14  C   UNL     1       7.996  -2.084  25.451  0.00  0.00    +0.214 A 
ATOM     15  C   UNL     1       7.890  -3.482  24.897  0.00  0.00    +0.238 A 
ATOM     16  O   UNL     1       8.751  -4.335  25.070  0.00  0.00    -0.283 OA
ATOM     17  C   UNL     1       6.654  -3.875  24.240  0.00  0.00    +0.109 A 
ATOM     18  C   UNL     1       5.523  -3.165  24.596  0.00  0.00    +0.147 A 
ATOM     19  C   UNL     1       4.271  -3.585  24.147  0.00  0.00    +0.092 A 
ATOM     20  C   UNL     1       4.175  -4.724  23.344  0.00  0.00    +0.124 A 
ATOM     21  C   UNL     1       5.309  -5.431  22.966  0.00  0.00    +0.091 A 
ATOM     22  O   UNL     1       5.576  -2.088  25.435  0.00  0.00    -0.451 OA
ATOM     23  C   UNL     1       6.556  -4.995  23.403  0.00  0.00    +0.135 A 
ATOM     24  C   UNL     1       6.809  -1.515  25.800  0.00  0.00    +0.181 A 
BRANCH  24  25
ATOM     25  C   UNL     1       6.577  -0.311  26.687  0.00  0.00    +0.025 A 
ATOM     26  C   UNL     1       5.325   0.359  26.598  0.00  0.00    +0.015 A 
ATOM     27  C   UNL     1       4.923   1.337  27.515  0.00  0.00    +0.050 A 
ATOM     28  C   UNL     1       5.784   1.688  28.531  0.00  0.00    +0.158 A 
ATOM     29  C   UNL     1       7.057   1.133  28.589  0.00  0.00    +0.159 A 
ATOM     30  C   UNL     1       7.455   0.138  27.683  0.00  0.00    +0.060 A 
BRANCH  29  31
ATOM     31  O   UNL     1       7.888   1.595  29.575  0.00  0.00    -0.503 OA
ATOM     32  H   UNL     1       8.783   1.638  29.195  0.00  0.00    +0.292 HD
ENDBRANCH  29  31
BRANCH  28  33
ATOM     33  O   UNL     1       5.357   2.556  29.492  0.00  0.00    -0.503 OA
ATOM     34  H   UNL     1       5.208   3.399  29.019  0.00  0.00    +0.292 HD
ENDBRANCH  28  33
ENDBRANCH  24  25
BRANCH  23  35
ATOM     35  O   UNL     1       7.671  -5.661  22.979  0.00  0.00    -0.506 OA
ATOM     36  H   UNL     1       8.156  -5.986  23.756  0.00  0.00    +0.292 HD
ENDBRANCH  23  35
BRANCH  20  37
ATOM     37  O   UNL     1       2.978  -5.191  22.887  0.00  0.00    -0.507 OA
ATOM     38  H   UNL     1       2.810  -6.064  23.278  0.00  0.00    +0.292 HD
ENDBRANCH  20  37
ENDBRANCH  13  14
ENDBRANCH   3  13
BRANCH   1  39
ATOM     39  C   UNL     1       9.305   2.989  24.242  0.00  0.00    +0.197 C 
BRANCH  39  40
ATOM     40  O   UNL     1       7.930   3.001  24.587  0.00  0.00    -0.346 OA
BRANCH  40  44
ATOM     41  C   UNL     1       5.905   6.936  22.928  0.00  0.00    +0.041 C 
ATOM     42  C   UNL     1       5.952   5.427  22.715  0.00  0.00    +0.149 C 
ATOM     43  O   UNL     1       6.862   4.893  23.674  0.00  0.00    -0.343 OA
ATOM     44  C   UNL     1       7.086   3.491  23.541  0.00  0.00    +0.282 C 
ATOM     45  C   UNL     1       5.778   2.683  23.638  0.00  0.00    +0.201 C 
ATOM     46  C   UNL     1       4.724   3.262  22.690  0.00  0.00    +0.179 C 
ATOM     47  C   UNL     1       4.574   4.774  22.885  0.00  0.00    +0.174 C 
BRANCH  47  48
ATOM     48  O   UNL     1       3.626   5.247  21.922  0.00  0.00    -0.387 OA
ATOM     49  H   UNL     1       3.939   4.959  21.044  0.00  0.00    +0.210 HD
ENDBRANCH  47  48
BRANCH  46  50
ATOM     50  O   UNL     1       3.460   2.615  22.898  0.00  0.00    -0.386 OA
ATOM     51  H   UNL     1       2.961   2.744  22.066  0.00  0.00    +0.210 HD
ENDBRANCH  46  50
BRANCH  45  52
ATOM     52  O   UNL     1       6.053   1.299  23.338  0.00  0.00    -0.384 OA
ATOM     53  H   UNL     1       6.353   1.241  22.417  0.00  0.00    +0.210 HD
ENDBRANCH  45  52
ENDBRANCH  40  44
ENDBRANCH  39  40
ENDBRANCH   1  39
TORSDOF 16
ENDMDL
MODEL 6
REMARK VINA RESULT:      -7.8      2.642      9.819
REMARK  Name = 
REMARK  17 active torsions:
REMARK  status: ('A' for Active; 'I' for Inactive)
REMARK    1  A    between atoms: C_1  and  C_2
REMARK    2  A    between atoms: C_4  and  O_53
REMARK    3  A    between atoms: C_6  and  O_52
REMARK    4  A    between atoms: C_8  and  O_51
REMARK    5  A    between atoms: C_10  and  O_13
REMARK    6  A    between atoms: O_13  and  C_14
REMARK    7  A    between atoms: C_14  and  C_15
REMARK    8  A    between atoms: C_17  and  O_50
REMARK    9  A    between atoms: C_19  and  O_49
REMARK   10  A    between atoms: C_21  and  O_48
REMARK   11  A    between atoms: C_23  and  O_26
REMARK   12  A    between atoms: O_26  and  C_27
REMARK   13  A    between atoms: C_28  and  C_40
REMARK   14  A    between atoms: C_32  and  O_39
REMARK   15  A    between atoms: C_34  and  O_38
REMARK   16  A    between atoms: C_42  and  O_47
REMARK   17  A    between atoms: C_43  and  O_46
REMARK                            x       y       z     vdW  Elec       q    Type
REMARK                         _______ _______ _______ _____ _____    ______ ____
ROOT
ATOM      1  C   UNL     1       4.070   0.927  26.360  0.00  0.00    +0.179 C 
ATOM      2  O   UNL     1       5.047   0.248  27.161  0.00  0.00    -0.331 OA
ATOM      3  C   UNL     1       4.787  -1.155  27.204  0.00  0.00    +0.340 C 
ATOM      4  C   UNL     1       3.548  -1.336  28.111  0.00  0.00    +0.214 C 
ATOM      5  C   UNL     1       2.387  -0.512  27.485  0.00  0.00    +0.180 C 
ATOM      6  C   UNL     1       2.774   0.948  27.174  0.00  0.00    +0.177 C 
ENDROOT
BRANCH   6   7
ATOM      7  O   UNL     1       1.693   1.554  26.452  0.00  0.00    -0.386 OA
ATOM      8  H   UNL     1       1.342   0.864  25.858  0.00  0.00    +0.210 HD
ENDBRANCH   6   7
BRANCH   5   9
ATOM      9  O   UNL     1       1.224  -0.548  28.325  0.00  0.00    -0.386 OA
ATOM     10  H   UNL     1       0.890   0.375  28.338  0.00  0.00    +0.210 HD
ENDBRANCH   5   9
BRANCH   4  11
ATOM     11  O   UNL     1       3.176  -2.722  28.176  0.00  0.00    -0.383 OA
ATOM     12  H   UNL     1       3.931  -3.190  28.578  0.00  0.00    +0.210 HD
ENDBRANCH   4  11
BRANCH   3  13
ATOM     13  O   UNL     1       5.951  -1.912  27.630  0.00  0.00    -0.453 OA
BRANCH  13  14
ATOM     14  C   UNL     1       6.824  -2.172  26.561  0.00  0.00    +0.214 A 
ATOM     15  C   UNL     1       8.074  -1.345  26.409  0.00  0.00    +0.238 A 
ATOM     16  O   UNL     1       8.636  -0.805  27.354  0.00  0.00    -0.283 OA
ATOM     17  C   UNL     1       8.717  -1.292  25.106  0.00  0.00    +0.109 A 
ATOM     18  C   UNL     1       8.461  -2.352  24.258  0.00  0.00    +0.147 A 
ATOM     19  C   UNL     1       9.168  -2.469  23.061  0.00  0.00    +0.092 A 
ATOM     20  C   UNL     1      10.132  -1.512  22.736  0.00  0.00    +0.124 A 
ATOM     21  C   UNL     1      10.381  -0.433  23.575  0.00  0.00    +0.091 A 
ATOM     22  O   UNL     1       7.574  -3.340  24.578  0.00  0.00    -0.451 OA
ATOM     23  C   UNL     1       9.659  -0.314  24.758  0.00  0.00    +0.135 A 
ATOM     24  C   UNL     1       6.716  -3.211  25.687  0.00  0.00    +0.181 A 
BRANCH  24  25
ATOM     25  C   UNL     1       5.806  -4.417  25.779  0.00  0.00    +0.025 A 
ATOM     26  C   UNL     1       4.982  -4.726  24.662  0.00  0.00    +0.015 A 
ATOM     27  C   UNL     1       4.274  -5.927  24.553  0.00  0.00    +0.050 A 
ATOM     28  C   UNL     1       4.352  -6.840  25.581  0.00  0.00    +0.158 A 
ATOM     29  C   UNL     1       5.060  -6.529  26.736  0.00  0.00    +0.159 A 
ATOM     30  C   UNL     1       5.788  -5.334  26.839  0.00  0.00    +0.060 A 
BRANCH  29  31
ATOM     31  O   UNL     1       5.021  -7.449  27.751  0.00  0.00    -0.503 OA
ATOM     32  H   UNL     1       5.476  -8.246  27.429  0.00  0.00    +0.292 HD
ENDBRANCH  29  31
BRANCH  28  33
ATOM     33  O   UNL     1       3.756  -8.058  25.435  0.00  0.00    -0.503 OA
ATOM     34  H   UNL     1       2.901  -7.867  25.002  0.00  0.00    +0.292 HD
ENDBRANCH  28  33
ENDBRANCH  24  25
BRANCH  23  35
ATOM     35  O   UNL     1       9.868   0.781  25.547  0.00  0.00    -0.506 OA
ATOM     36  H   UNL     1      10.391   1.431  25.049  0.00  0.00    +0.292 HD
ENDBRANCH  23  35
BRANCH  20  37
ATOM     37  O   UNL     1      10.865  -1.581  21.588  0.00  0.00    -0.507 OA
ATOM     38  H   UNL     1      10.312  -1.291  20.844  0.00  0.00    +0.292 HD
ENDBRANCH  20  37
ENDBRANCH  13  14
ENDBRANCH   3  13
BRANCH   1  39
ATOM     39  C   UNL     1       4.585   2.308  25.946  0.00  0.00    +0.197 C 
BRANCH  39  40
ATOM     40  O   UNL     1       5.089   2.256  24.622  0.00  0.00    -0.346 OA
BRANCH  40  44
ATOM     41  C   UNL     1       8.640   5.245  25.517  0.00  0.00    +0.041 C 
ATOM     42  C   UNL     1       8.339   3.891  24.884  0.00  0.00    +0.149 C 
ATOM     43  O   UNL     1       6.938   3.664  25.017  0.00  0.00    -0.343 OA
ATOM     44  C   UNL     1       6.512   2.385  24.550  0.00  0.00    +0.282 C 
ATOM     45  C   UNL     1       6.885   2.153  23.073  0.00  0.00    +0.201 C 
ATOM     46  C   UNL     1       8.366   2.465  22.843  0.00  0.00    +0.179 C 
ATOM     47  C   UNL     1       8.736   3.843  23.402  0.00  0.00    +0.174 C 
BRANCH  47  48
ATOM     48  O   UNL     1      10.143   4.029  23.211  0.00  0.00    -0.387 OA
ATOM     49  H   UNL     1      10.491   4.448  24.019  0.00  0.00    +0.210 HD
ENDBRANCH  47  48
BRANCH  46  50
ATOM     50  O   UNL     1       8.675   2.408  21.443  0.00  0.00    -0.386 OA
ATOM     51  H   UNL     1       8.868   1.467  21.257  0.00  0.00    +0.210 HD
ENDBRANCH  46  50
BRANCH  45  52
ATOM     52  O   UNL     1       6.571   0.792  22.714  0.00  0.00    -0.384 OA
ATOM     53  H   UNL     1       5.857   0.481  23.293  0.00  0.00    +0.210 HD
ENDBRANCH  45  52
ENDBRANCH  40  44
ENDBRANCH  39  40
ENDBRANCH   1  39
TORSDOF 16
ENDMDL
MODEL 7
REMARK VINA RESULT:      -7.8      2.715      8.998
REMARK  Name = 
REMARK  17 active torsions:
REMARK  status: ('A' for Active; 'I' for Inactive)
REMARK    1  A    between atoms: C_1  and  C_2
REMARK    2  A    between atoms: C_4  and  O_53
REMARK    3  A    between atoms: C_6  and  O_52
REMARK    4  A    between atoms: C_8  and  O_51
REMARK    5  A    between atoms: C_10  and  O_13
REMARK    6  A    between atoms: O_13  and  C_14
REMARK    7  A    between atoms: C_14  and  C_15
REMARK    8  A    between atoms: C_17  and  O_50
REMARK    9  A    between atoms: C_19  and  O_49
REMARK   10  A    between atoms: C_21  and  O_48
REMARK   11  A    between atoms: C_23  and  O_26
REMARK   12  A    between atoms: O_26  and  C_27
REMARK   13  A    between atoms: C_28  and  C_40
REMARK   14  A    between atoms: C_32  and  O_39
REMARK   15  A    between atoms: C_34  and  O_38
REMARK   16  A    between atoms: C_42  and  O_47
REMARK   17  A    between atoms: C_43  and  O_46
REMARK                            x       y       z     vdW  Elec       q    Type
REMARK                         _______ _______ _______ _____ _____    ______ ____
ROOT
ATOM      1  C   UNL     1       6.874   2.685  25.381  0.00  0.00    +0.179 C 
ATOM      2  O   UNL     1       7.107   1.420  26.015  0.00  0.00    -0.331 OA
ATOM      3  C   UNL     1       6.021   0.523  25.783  0.00  0.00    +0.340 C 
ATOM      4  C   UNL     1       4.850   1.031  26.656  0.00  0.00    +0.214 C 
ATOM      5  C   UNL     1       4.547   2.494  26.225  0.00  0.00    +0.180 C 
ATOM      6  C   UNL     1       5.797   3.395  26.203  0.00  0.00    +0.177 C 
ENDROOT
BRANCH   6   7
ATOM      7  O   UNL     1       5.429   4.659  25.634  0.00  0.00    -0.386 OA
ATOM      8  H   UNL     1       4.502   4.816  25.897  0.00  0.00    +0.210 HD
ENDBRANCH   6   7
BRANCH   5   9
ATOM      9  O   UNL     1       3.532   3.073  27.059  0.00  0.00    -0.386 OA
ATOM     10  H   UNL     1       2.919   3.524  26.440  0.00  0.00    +0.210 HD
ENDBRANCH   5   9
BRANCH   4  11
ATOM     11  O   UNL     1       3.685   0.215  26.451  0.00  0.00    -0.383 OA
ATOM     12  H   UNL     1       3.475  -0.185  27.316  0.00  0.00    +0.210 HD
ENDBRANCH   4  11
BRANCH   3  13
ATOM     13  O   UNL     1       6.392  -0.858  26.032  0.00  0.00    -0.453 OA
BRANCH  13  14
ATOM     14  C   UNL     1       6.269  -1.648  24.876  0.00  0.00    +0.214 A 
ATOM     15  C   UNL     1       5.191  -2.699  24.810  0.00  0.00    +0.238 A 
ATOM     16  O   UNL     1       4.144  -2.621  25.441  0.00  0.00    -0.283 OA
ATOM     17  C   UNL     1       5.341  -3.788  23.858  0.00  0.00    +0.109 A 
ATOM     18  C   UNL     1       6.153  -3.536  22.770  0.00  0.00    +0.147 A 
ATOM     19  C   UNL     1       6.217  -4.457  21.724  0.00  0.00    +0.092 A 
ATOM     20  C   UNL     1       5.452  -5.624  21.789  0.00  0.00    +0.124 A 
ATOM     21  C   UNL     1       4.648  -5.893  22.889  0.00  0.00    +0.091 A 
ATOM     22  O   UNL     1       6.860  -2.374  22.645  0.00  0.00    -0.451 OA
ATOM     23  C   UNL     1       4.605  -4.978  23.936  0.00  0.00    +0.135 A 
ATOM     24  C   UNL     1       6.969  -1.473  23.721  0.00  0.00    +0.181 A 
BRANCH  24  25
ATOM     25  C   UNL     1       7.847  -0.304  23.331  0.00  0.00    +0.025 A 
ATOM     26  C   UNL     1       9.227  -0.355  23.672  0.00  0.00    +0.015 A 
ATOM     27  C   UNL     1      10.164   0.557  23.174  0.00  0.00    +0.050 A 
ATOM     28  C   UNL     1       9.731   1.565  22.341  0.00  0.00    +0.158 A 
ATOM     29  C   UNL     1       8.376   1.712  22.070  0.00  0.00    +0.159 A 
ATOM     30  C   UNL     1       7.437   0.787  22.551  0.00  0.00    +0.060 A 
BRANCH  29  31
ATOM     31  O   UNL     1       8.012   2.789  21.305  0.00  0.00    -0.503 OA
ATOM     32  H   UNL     1       7.040   2.818  21.301  0.00  0.00    +0.292 HD
ENDBRANCH  29  31
BRANCH  28  33
ATOM     33  O   UNL     1      10.652   2.389  21.763  0.00  0.00    -0.503 OA
ATOM     34  H   UNL     1      10.373   3.291  22.016  0.00  0.00    +0.292 HD
ENDBRANCH  28  33
ENDBRANCH  24  25
BRANCH  23  35
ATOM     35  O   UNL     1       3.858  -5.277  25.040  0.00  0.00    -0.506 OA
ATOM     36  H   UNL     1       4.367  -5.878  25.609  0.00  0.00    +0.292 HD
ENDBRANCH  23  35
BRANCH  20  37
ATOM     37  O   UNL     1       5.462  -6.554  20.792  0.00  0.00    -0.507 OA
ATOM     38  H   UNL     1       6.382  -6.733  20.537  0.00  0.00    +0.292 HD
ENDBRANCH  20  37
ENDBRANCH  13  14
ENDBRANCH   3  13
BRANCH   1  39
ATOM     39  C   UNL     1       8.186   3.462  25.241  0.00  0.00    +0.197 C 
BRANCH  39  40
ATOM     40  O   UNL     1       8.116   4.324  24.117  0.00  0.00    -0.346 OA
BRANCH  40  44
ATOM     41  C   UNL     1      12.655   5.074  23.033  0.00  0.00    +0.041 C 
ATOM     42  C   UNL     1      11.447   5.744  23.678  0.00  0.00    +0.149 C 
ATOM     43  O   UNL     1      10.368   4.813  23.623  0.00  0.00    -0.343 OA
ATOM     44  C   UNL     1       9.131   5.331  24.109  0.00  0.00    +0.282 C 
ATOM     45  C   UNL     1       9.244   5.831  25.563  0.00  0.00    +0.201 C 
ATOM     46  C   UNL     1      10.442   6.772  25.710  0.00  0.00    +0.179 C 
ATOM     47  C   UNL     1      11.716   6.143  25.135  0.00  0.00    +0.174 C 
BRANCH  47  48
ATOM     48  O   UNL     1      12.768   7.107  25.248  0.00  0.00    -0.387 OA
ATOM     49  H   UNL     1      12.448   7.818  25.834  0.00  0.00    +0.210 HD
ENDBRANCH  47  48
BRANCH  46  50
ATOM     50  O   UNL     1      10.644   7.108  27.090  0.00  0.00    -0.386 OA
ATOM     51  H   UNL     1      10.792   6.256  27.548  0.00  0.00    +0.210 HD
ENDBRANCH  46  50
BRANCH  45  52
ATOM     52  O   UNL     1       8.012   6.483  25.935  0.00  0.00    -0.384 OA
ATOM     53  H   UNL     1       7.280   5.868  25.768  0.00  0.00    +0.210 HD
ENDBRANCH  45  52
ENDBRANCH  40  44
ENDBRANCH  39  40
ENDBRANCH   1  39
TORSDOF 16
ENDMDL
MODEL 8
REMARK VINA RESULT:      -7.8      2.905      9.120
REMARK  Name = 
REMARK  17 active torsions:
REMARK  status: ('A' for Active; 'I' for Inactive)
REMARK    1  A    between atoms: C_1  and  C_2
REMARK    2  A    between atoms: C_4  and  O_53
REMARK    3  A    between atoms: C_6  and  O_52
REMARK    4  A    between atoms: C_8  and  O_51
REMARK    5  A    between atoms: C_10  and  O_13
REMARK    6  A    between atoms: O_13  and  C_14
REMARK    7  A    between atoms: C_14  and  C_15
REMARK    8  A    between atoms: C_17  and  O_50
REMARK    9  A    between atoms: C_19  and  O_49
REMARK   10  A    between atoms: C_21  and  O_48
REMARK   11  A    between atoms: C_23  and  O_26
REMARK   12  A    between atoms: O_26  and  C_27
REMARK   13  A    between atoms: C_28  and  C_40
REMARK   14  A    between atoms: C_32  and  O_39
REMARK   15  A    between atoms: C_34  and  O_38
REMARK   16  A    between atoms: C_42  and  O_47
REMARK   17  A    between atoms: C_43  and  O_46
REMARK                            x       y       z     vdW  Elec       q    Type
REMARK                         _______ _______ _______ _____ _____    ______ ____
ROOT
ATOM      1  C   UNL     1       7.944  -2.674  25.125  0.00  0.00    +0.179 C 
ATOM      2  O   UNL     1       6.730  -3.252  25.624  0.00  0.00    -0.331 OA
ATOM      3  C   UNL     1       6.967  -3.975  26.833  0.00  0.00    +0.340 C 
ATOM      4  C   UNL     1       7.712  -5.266  26.422  0.00  0.00    +0.214 C 
ATOM      5  C   UNL     1       9.017  -4.840  25.691  0.00  0.00    +0.180 C 
ATOM      6  C   UNL     1       8.777  -3.824  24.557  0.00  0.00    +0.177 C 
ENDROOT
BRANCH   6   7
ATOM      7  O   UNL     1      10.052  -3.381  24.074  0.00  0.00    -0.386 OA
ATOM      8  H   UNL     1      10.722  -3.819  24.633  0.00  0.00    +0.210 HD
ENDBRANCH   6   7
BRANCH   5   9
ATOM      9  O   UNL     1       9.719  -5.987  25.189  0.00  0.00    -0.386 OA
ATOM     10  H   UNL     1      10.385  -6.200  25.878  0.00  0.00    +0.210 HD
ENDBRANCH   5   9
BRANCH   4  11
ATOM     11  O   UNL     1       8.041  -6.043  27.586  0.00  0.00    -0.383 OA
ATOM     12  H   UNL     1       7.203  -6.426  27.905  0.00  0.00    +0.210 HD
ENDBRANCH   4  11
BRANCH   3  13
ATOM     13  O   UNL     1       5.743  -4.206  27.578  0.00  0.00    -0.453 OA
BRANCH  13  14
ATOM     14  C   UNL     1       4.623  -4.280  26.732  0.00  0.00    +0.214 A 
ATOM     15  C   UNL     1       4.228  -5.609  26.142  0.00  0.00    +0.238 A 
ATOM     16  O   UNL     1       4.482  -6.679  26.680  0.00  0.00    -0.283 OA
ATOM     17  C   UNL     1       3.395  -5.619  24.950  0.00  0.00    +0.109 A 
ATOM     18  C   UNL     1       2.627  -4.491  24.736  0.00  0.00    +0.147 A 
ATOM     19  C   UNL     1       1.674  -4.484  23.717  0.00  0.00    +0.092 A 
ATOM     20  C   UNL     1       1.507  -5.623  22.925  0.00  0.00    +0.124 A 
ATOM     21  C   UNL     1       2.290  -6.754  23.122  0.00  0.00    +0.091 A 
ATOM     22  O   UNL     1       2.719  -3.387  25.535  0.00  0.00    -0.451 OA
ATOM     23  C   UNL     1       3.250  -6.745  24.129  0.00  0.00    +0.135 A 
ATOM     24  C   UNL     1       3.756  -3.261  26.478  0.00  0.00    +0.181 A 
BRANCH  24  25
ATOM     25  C   UNL     1       3.653  -1.926  27.185  0.00  0.00    +0.025 A 
ATOM     26  C   UNL     1       2.779  -1.823  28.303  0.00  0.00    +0.015 A 
ATOM     27  C   UNL     1       2.770  -0.714  29.156  0.00  0.00    +0.050 A 
ATOM     28  C   UNL     1       3.621   0.335  28.890  0.00  0.00    +0.158 A 
ATOM     29  C   UNL     1       4.414   0.318  27.748  0.00  0.00    +0.159 A 
ATOM     30  C   UNL     1       4.440  -0.801  26.902  0.00  0.00    +0.060 A 
BRANCH  29  31
ATOM     31  O   UNL     1       5.169   1.435  27.504  0.00  0.00    -0.503 OA
ATOM     32  H   UNL     1       6.066   1.247  27.831  0.00  0.00    +0.292 HD
ENDBRANCH  29  31
BRANCH  28  33
ATOM     33  O   UNL     1       3.699   1.368  29.778  0.00  0.00    -0.503 OA
ATOM     34  H   UNL     1       2.831   1.377  30.227  0.00  0.00    +0.292 HD
ENDBRANCH  28  33
ENDBRANCH  24  25
BRANCH  23  35
ATOM     35  O   UNL     1       4.055  -7.839  24.278  0.00  0.00    -0.506 OA
ATOM     36  H   UNL     1       4.501  -7.785  25.140  0.00  0.00    +0.292 HD
ENDBRANCH  23  35
BRANCH  20  37
ATOM     37  O   UNL     1       0.583  -5.681  21.924  0.00  0.00    -0.507 OA
ATOM     38  H   UNL     1      -0.032  -6.410  22.105  0.00  0.00    +0.292 HD
ENDBRANCH  20  37
ENDBRANCH  13  14
ENDBRANCH   3  13
BRANCH   1  39
ATOM     39  C   UNL     1       7.632  -1.557  24.125  0.00  0.00    +0.197 C 
BRANCH  39  40
ATOM     40  O   UNL     1       8.802  -0.796  23.873  0.00  0.00    -0.346 OA
BRANCH  40  44
ATOM     41  C   UNL     1       5.988   2.756  22.530  0.00  0.00    +0.041 C 
ATOM     42  C   UNL     1       7.279   2.466  23.287  0.00  0.00    +0.149 C 
ATOM     43  O   UNL     1       7.475   1.054  23.263  0.00  0.00    -0.343 OA
ATOM     44  C   UNL     1       8.604   0.613  24.015  0.00  0.00    +0.282 C 
ATOM     45  C   UNL     1       9.912   1.275  23.540  0.00  0.00    +0.201 C 
ATOM     46  C   UNL     1       9.741   2.794  23.461  0.00  0.00    +0.179 C 
ATOM     47  C   UNL     1       8.489   3.171  22.660  0.00  0.00    +0.174 C 
BRANCH  47  48
ATOM     48  O   UNL     1       8.363   4.596  22.691  0.00  0.00    -0.387 OA
ATOM     49  H   UNL     1       7.648   4.810  23.318  0.00  0.00    +0.210 HD
ENDBRANCH  47  48
BRANCH  46  50
ATOM     50  O   UNL     1      10.900   3.395  22.866  0.00  0.00    -0.386 OA
ATOM     51  H   UNL     1      10.708   4.353  22.829  0.00  0.00    +0.210 HD
ENDBRANCH  46  50
BRANCH  45  52
ATOM     52  O   UNL     1      10.980   0.911  24.439  0.00  0.00    -0.384 OA
ATOM     53  H   UNL     1      10.587   0.510  25.231  0.00  0.00    +0.210 HD
ENDBRANCH  45  52
ENDBRANCH  40  44
ENDBRANCH  39  40
ENDBRANCH   1  39
TORSDOF 16
ENDMDL
MODEL 9
REMARK VINA RESULT:      -7.7      3.198      9.767
REMARK  Name = 
REMARK  17 active torsions:
REMARK  status: ('A' for Active; 'I' for Inactive)
REMARK    1  A    between atoms: C_1  and  C_2
REMARK    2  A    between atoms: C_4  and  O_53
REMARK    3  A    between atoms: C_6  and  O_52
REMARK    4  A    between atoms: C_8  and  O_51
REMARK    5  A    between atoms: C_10  and  O_13
REMARK    6  A    between atoms: O_13  and  C_14
REMARK    7  A    between atoms: C_14  and  C_15
REMARK    8  A    between atoms: C_17  and  O_50
REMARK    9  A    between atoms: C_19  and  O_49
REMARK   10  A    between atoms: C_21  and  O_48
REMARK   11  A    between atoms: C_23  and  O_26
REMARK   12  A    between atoms: O_26  and  C_27
REMARK   13  A    between atoms: C_28  and  C_40
REMARK   14  A    between atoms: C_32  and  O_39
REMARK   15  A    between atoms: C_34  and  O_38
REMARK   16  A    between atoms: C_42  and  O_47
REMARK   17  A    between atoms: C_43  and  O_46
REMARK                            x       y       z     vdW  Elec       q    Type
REMARK                         _______ _______ _______ _____ _____    ______ ____
ROOT
ATOM      1  C   UNL     1       7.471  -2.992  24.241  0.00  0.00    +0.179 C 
ATOM      2  O   UNL     1       6.455  -3.869  24.748  0.00  0.00    -0.331 OA
ATOM      3  C   UNL     1       6.724  -4.234  26.102  0.00  0.00    +0.340 C 
ATOM      4  C   UNL     1       7.910  -5.224  26.052  0.00  0.00    +0.214 C 
ATOM      5  C   UNL     1       9.098  -4.495  25.362  0.00  0.00    +0.180 C 
ATOM      6  C   UNL     1       8.717  -3.849  24.015  0.00  0.00    +0.177 C 
ENDROOT
BRANCH   6   7
ATOM      7  O   UNL     1       9.832  -3.071  23.559  0.00  0.00    -0.386 OA
ATOM      8  H   UNL     1      10.095  -2.506  24.311  0.00  0.00    +0.210 HD
ENDBRANCH   6   7
BRANCH   5   9
ATOM      9  O   UNL     1      10.212  -5.384  25.188  0.00  0.00    -0.386 OA
ATOM     10  H   UNL     1      10.733  -5.303  26.016  0.00  0.00    +0.210 HD
ENDBRANCH   5   9
BRANCH   4  11
ATOM     11  O   UNL     1       8.290  -5.613  27.383  0.00  0.00    -0.383 OA
ATOM     12  H   UNL     1       8.849  -4.893  27.729  0.00  0.00    +0.210 HD
ENDBRANCH   4  11
BRANCH   3  13
ATOM     13  O   UNL     1       5.544  -4.753  26.770  0.00  0.00    -0.453 OA
BRANCH  13  14
ATOM     14  C   UNL     1       4.496  -3.817  26.781  0.00  0.00    +0.214 A 
ATOM     15  C   UNL     1       4.770  -2.406  27.232  0.00  0.00    +0.238 A 
ATOM     16  O   UNL     1       5.871  -1.878  27.142  0.00  0.00    -0.283 OA
ATOM     17  C   UNL     1       3.651  -1.589  27.675  0.00  0.00    +0.109 A 
ATOM     18  C   UNL     1       2.407  -1.952  27.195  0.00  0.00    +0.147 A 
ATOM     19  C   UNL     1       1.307  -1.127  27.428  0.00  0.00    +0.092 A 
ATOM     20  C   UNL     1       1.478   0.062  28.141  0.00  0.00    +0.124 A 
ATOM     21  C   UNL     1       2.722   0.423  28.644  0.00  0.00    +0.091 A 
ATOM     22  O   UNL     1       2.220  -3.072  26.436  0.00  0.00    -0.451 OA
ATOM     23  C   UNL     1       3.810  -0.415  28.423  0.00  0.00    +0.135 A 
ATOM     24  C   UNL     1       3.243  -4.028  26.292  0.00  0.00    +0.181 A 
BRANCH  24  25
ATOM     25  C   UNL     1       2.753  -5.187  25.450  0.00  0.00    +0.025 A 
ATOM     26  C   UNL     1       2.202  -4.903  24.170  0.00  0.00    +0.015 A 
ATOM     27  C   UNL     1       1.924  -5.899  23.228  0.00  0.00    +0.050 A 
ATOM     28  C   UNL     1       2.166  -7.213  23.560  0.00  0.00    +0.158 A 
ATOM     29  C   UNL     1       2.604  -7.540  24.839  0.00  0.00    +0.159 A 
ATOM     30  C   UNL     1       2.903  -6.542  25.778  0.00  0.00    +0.060 A 
BRANCH  29  31
ATOM     31  O   UNL     1       2.738  -8.873  25.123  0.00  0.00    -0.503 OA
ATOM     32  H   UNL     1       2.567  -8.978  26.075  0.00  0.00    +0.292 HD
ENDBRANCH  29  31
BRANCH  28  33
ATOM     33  O   UNL     1       2.004  -8.179  22.611  0.00  0.00    -0.503 OA
ATOM     34  H   UNL     1       2.474  -8.959  22.965  0.00  0.00    +0.292 HD
ENDBRANCH  28  33
ENDBRANCH  24  25
BRANCH  23  35
ATOM     35  O   UNL     1       5.017  -0.082  28.970  0.00  0.00    -0.506 OA
ATOM     36  H   UNL     1       5.718  -0.278  28.326  0.00  0.00    +0.292 HD
ENDBRANCH  23  35
BRANCH  20  37
ATOM     37  O   UNL     1       0.443   0.916  28.388  0.00  0.00    -0.507 OA
ATOM     38  H   UNL     1       0.262   0.923  29.341  0.00  0.00    +0.292 HD
ENDBRANCH  20  37
ENDBRANCH  13  14
ENDBRANCH   3  13
BRANCH   1  39
ATOM     39  C   UNL     1       6.968  -2.256  22.996  0.00  0.00    +0.197 C 
BRANCH  39  40
ATOM     40  O   UNL     1       8.032  -1.526  22.407  0.00  0.00    -0.346 OA
BRANCH  40  44
ATOM     41  C   UNL     1       5.635   2.544  22.595  0.00  0.00    +0.041 C 
ATOM     42  C   UNL     1       6.999   1.937  22.905  0.00  0.00    +0.149 C 
ATOM     43  O   UNL     1       6.938   0.557  22.551  0.00  0.00    -0.343 OA
ATOM     44  C   UNL     1       8.119  -0.176  22.871  0.00  0.00    +0.282 C 
ATOM     45  C   UNL     1       9.371   0.423  22.201  0.00  0.00    +0.201 C 
ATOM     46  C   UNL     1       9.451   1.928  22.471  0.00  0.00    +0.179 C 
ATOM     47  C   UNL     1       8.130   2.623  22.126  0.00  0.00    +0.174 C 
BRANCH  47  48
ATOM     48  O   UNL     1       8.262   4.007  22.469  0.00  0.00    -0.387 OA
ATOM     49  H   UNL     1       8.201   4.071  23.440  0.00  0.00    +0.210 HD
ENDBRANCH  47  48
BRANCH  46  50
ATOM     50  O   UNL     1      10.522   2.512  21.716  0.00  0.00    -0.386 OA
ATOM     51  H   UNL     1      10.613   3.425  22.055  0.00  0.00    +0.210 HD
ENDBRANCH  46  50
BRANCH  45  52
ATOM     52  O   UNL     1      10.543  -0.263  22.690  0.00  0.00    -0.384 OA
ATOM     53  H   UNL     1      11.103   0.382  23.149  0.00  0.00    +0.210 HD
ENDBRANCH  45  52
ENDBRANCH  40  44
ENDBRANCH  39  40
ENDBRANCH   1  39
TORSDOF 16
ENDMDL
