MODEL 1
REMARK VINA RESULT:      -7.4      0.000      0.000
REMARK  Name = 
REMARK  16 active torsions:
REMARK  status: ('A' for Active; 'I' for Inactive)
REMARK    1  A    between atoms: C_1  and  C_2
REMARK    2  A    between atoms: C_2  and  O_4
REMARK    3  A    between atoms: O_4  and  C_5
REMARK    4  A    between atoms: C_5  and  C_6
REMARK    5  A    between atoms: C_8  and  O_44
REMARK    6  A    between atoms: C_10  and  O_40
REMARK    7  A    between atoms: C_12  and  O_39
REMARK    8  A    between atoms: C_14  and  O_17
REMARK    9  A    between atoms: O_17  and  C_18
REMARK   10  A    between atoms: C_19  and  C_31
REMARK   11  A    between atoms: C_23  and  O_30
REMARK   12  A    between atoms: C_25  and  O_29
REMARK   13  A    between atoms: C_33  and  O_38
REMARK   14  A    between atoms: C_34  and  O_37
REMARK   15  A    between atoms: O_40  and  C_41
REMARK   16  A    between atoms: C_41  and  C_43
REMARK                            x       y       z     vdW  Elec       q    Type
REMARK                         _______ _______ _______ _____ _____    ______ ____
ROOT
ATOM      1  C   UNL     1       9.107   0.700  24.837  0.00  0.00    +0.214 A 
ATOM      2  C   UNL     1       9.653   1.715  23.862  0.00  0.00    +0.238 A 
ATOM      3  O   UNL     1      10.104   1.422  22.764  0.00  0.00    -0.283 OA
ATOM      4  C   UNL     1       9.542   3.117  24.177  0.00  0.00    +0.109 A 
ATOM      5  C   UNL     1       8.434   3.458  24.921  0.00  0.00    +0.147 A 
ATOM      6  C   UNL     1       8.126   4.807  25.092  0.00  0.00    +0.092 A 
ATOM      7  C   UNL     1       8.941   5.775  24.495  0.00  0.00    +0.124 A 
ATOM      8  C   UNL     1      10.064   5.429  23.751  0.00  0.00    +0.091 A 
ATOM      9  O   UNL     1       7.589   2.503  25.421  0.00  0.00    -0.451 OA
ATOM     10  C   UNL     1      10.377   4.087  23.610  0.00  0.00    +0.135 A 
ATOM     11  C   UNL     1       7.976   1.136  25.469  0.00  0.00    +0.181 A 
ENDROOT
BRANCH  11  12
ATOM     12  C   UNL     1       6.901   0.342  26.198  0.00  0.00    +0.025 A 
ATOM     13  C   UNL     1       6.790   0.503  27.614  0.00  0.00    +0.015 A 
ATOM     14  C   UNL     1       5.716   0.007  28.368  0.00  0.00    +0.050 A 
ATOM     15  C   UNL     1       4.720  -0.692  27.720  0.00  0.00    +0.158 A 
ATOM     16  C   UNL     1       4.834  -0.954  26.360  0.00  0.00    +0.159 A 
ATOM     17  C   UNL     1       5.895  -0.445  25.586  0.00  0.00    +0.060 A 
BRANCH  15  18
ATOM     18  O   UNL     1       3.634  -1.105  28.433  0.00  0.00    -0.503 OA
ATOM     19  H   UNL     1       3.984  -1.739  29.090  0.00  0.00    +0.292 HD
ENDBRANCH  15  18
BRANCH  16  20
ATOM     20  O   UNL     1       3.845  -1.722  25.806  0.00  0.00    -0.503 OA
ATOM     21  H   UNL     1       4.166  -2.639  25.768  0.00  0.00    +0.292 HD
ENDBRANCH  16  20
ENDBRANCH  11  12
BRANCH   7  22
ATOM     22  O   UNL     1       8.676   7.107  24.612  0.00  0.00    -0.507 OA
ATOM     23  H   UNL     1       9.513   7.597  24.630  0.00  0.00    +0.292 HD
ENDBRANCH   7  22
BRANCH  10  24
ATOM     24  O   UNL     1      11.516   3.729  22.948  0.00  0.00    -0.506 OA
ATOM     25  H   UNL     1      11.349   2.935  22.412  0.00  0.00    +0.292 HD
ENDBRANCH  10  24
BRANCH   1  26
ATOM     26  O   UNL     1       9.698  -0.581  24.925  0.00  0.00    -0.453 OA
BRANCH  26  29
ATOM     27  C   UNL     1       7.783  -3.581  25.653  0.00  0.00    +0.192 C 
ATOM     28  O   UNL     1       8.953  -2.735  25.567  0.00  0.00    -0.330 OA
ATOM     29  C   UNL     1       8.756  -1.658  24.635  0.00  0.00    +0.341 C 
ATOM     30  C   UNL     1       8.772  -2.281  23.210  0.00  0.00    +0.226 C 
ATOM     31  C   UNL     1       7.605  -3.331  23.190  0.00  0.00    +0.242 C 
ATOM     32  C   UNL     1       7.733  -4.365  24.340  0.00  0.00    +0.190 C 
BRANCH  30  33
ATOM     33  O   UNL     1       8.568  -1.281  22.199  0.00  0.00    -0.382 OA
ATOM     34  H   UNL     1       7.995  -0.582  22.558  0.00  0.00    +0.210 HD
ENDBRANCH  30  33
BRANCH  32  35
ATOM     35  O   UNL     1       8.932  -5.135  24.171  0.00  0.00    -0.385 OA
ATOM     36  H   UNL     1       8.864  -5.908  24.764  0.00  0.00    +0.210 HD
ENDBRANCH  32  35
BRANCH  27  37
ATOM     37  C   UNL     1       7.890  -4.421  26.929  0.00  0.00    +0.266 C 
BRANCH  37  38
ATOM     38  O   UNL     1       7.391  -5.760  26.766  0.00  0.00    -0.462 OA
BRANCH  38  40
ATOM     39  C   UNL     1       5.703  -4.994  28.205  0.00  0.00    +0.136 C 
ATOM     40  C   UNL     1       6.102  -5.978  27.147  0.00  0.00    +0.304 C 
ATOM     41  O   UNL     1       5.361  -6.846  26.712  0.00  0.00    -0.251 OA
ENDBRANCH  38  40
ENDBRANCH  37  38
ENDBRANCH  27  37
BRANCH  31  42
ATOM     42  O   UNL     1       7.517  -3.978  21.905  0.00  0.00    -0.456 OA
BRANCH  42  43
ATOM     43  C   UNL     1       6.265  -4.428  21.584  0.00  0.00    +0.304 C 
ATOM     44  C   UNL     1       6.303  -5.875  21.206  0.00  0.00    +0.136 C 
ATOM     45  O   UNL     1       5.257  -3.734  21.542  0.00  0.00    -0.251 OA
ENDBRANCH  42  43
ENDBRANCH  31  42
ENDBRANCH  26  29
ENDBRANCH   1  26
TORSDOF 14
ENDMDL
MODEL 2
REMARK VINA RESULT:      -7.2      2.252      5.337
REMARK  Name = 
REMARK  16 active torsions:
REMARK  status: ('A' for Active; 'I' for Inactive)
REMARK    1  A    between atoms: C_1  and  C_2
REMARK    2  A    between atoms: C_2  and  O_4
REMARK    3  A    between atoms: O_4  and  C_5
REMARK    4  A    between atoms: C_5  and  C_6
REMARK    5  A    between atoms: C_8  and  O_44
REMARK    6  A    between atoms: C_10  and  O_40
REMARK    7  A    between atoms: C_12  and  O_39
REMARK    8  A    between atoms: C_14  and  O_17
REMARK    9  A    between atoms: O_17  and  C_18
REMARK   10  A    between atoms: C_19  and  C_31
REMARK   11  A    between atoms: C_23  and  O_30
REMARK   12  A    between atoms: C_25  and  O_29
REMARK   13  A    between atoms: C_33  and  O_38
REMARK   14  A    between atoms: C_34  and  O_37
REMARK   15  A    between atoms: O_40  and  C_41
REMARK   16  A    between atoms: C_41  and  C_43
REMARK                            x       y       z     vdW  Elec       q    Type
REMARK                         _______ _______ _______ _____ _____    ______ ____
ROOT
ATOM      1  C   UNL     1       6.539  -0.601  24.442  0.00  0.00    +0.214 A 
ATOM      2  C   UNL     1       7.144   0.599  25.129  0.00  0.00    +0.238 A 
ATOM      3  O   UNL     1       6.966   0.863  26.310  0.00  0.00    -0.283 OA
ATOM      4  C   UNL     1       8.075   1.425  24.402  0.00  0.00    +0.109 A 
ATOM      5  C   UNL     1       8.834   0.757  23.466  0.00  0.00    +0.147 A 
ATOM      6  C   UNL     1       9.903   1.422  22.868  0.00  0.00    +0.092 A 
ATOM      7  C   UNL     1      10.184   2.740  23.242  0.00  0.00    +0.124 A 
ATOM      8  C   UNL     1       9.412   3.415  24.181  0.00  0.00    +0.091 A 
ATOM      9  O   UNL     1       8.609  -0.563  23.176  0.00  0.00    -0.451 OA
ATOM     10  C   UNL     1       8.335   2.756  24.750  0.00  0.00    +0.135 A 
ATOM     11  C   UNL     1       7.410  -1.208  23.581  0.00  0.00    +0.181 A 
ENDROOT
BRANCH  11  12
ATOM     12  C   UNL     1       7.383  -2.614  23.000  0.00  0.00    +0.025 A 
ATOM     13  C   UNL     1       8.070  -3.649  23.707  0.00  0.00    +0.015 A 
ATOM     14  C   UNL     1       7.941  -5.013  23.405  0.00  0.00    +0.050 A 
ATOM     15  C   UNL     1       7.126  -5.382  22.356  0.00  0.00    +0.158 A 
ATOM     16  C   UNL     1       6.513  -4.406  21.581  0.00  0.00    +0.159 A 
ATOM     17  C   UNL     1       6.615  -3.034  21.885  0.00  0.00    +0.060 A 
BRANCH  15  18
ATOM     18  O   UNL     1       6.932  -6.709  22.109  0.00  0.00    -0.503 OA
ATOM     19  H   UNL     1       7.536  -7.175  22.719  0.00  0.00    +0.292 HD
ENDBRANCH  15  18
BRANCH  16  20
ATOM     20  O   UNL     1       5.784  -4.851  20.510  0.00  0.00    -0.503 OA
ATOM     21  H   UNL     1       5.669  -4.104  19.897  0.00  0.00    +0.292 HD
ENDBRANCH  16  20
ENDBRANCH  11  12
BRANCH   7  22
ATOM     22  O   UNL     1      11.230   3.431  22.705  0.00  0.00    -0.507 OA
ATOM     23  H   UNL     1      12.005   3.329  23.279  0.00  0.00    +0.292 HD
ENDBRANCH   7  22
BRANCH  10  24
ATOM     24  O   UNL     1       7.519   3.425  25.616  0.00  0.00    -0.506 OA
ATOM     25  H   UNL     1       8.028   3.705  26.396  0.00  0.00    +0.292 HD
ENDBRANCH  10  24
BRANCH   1  26
ATOM     26  O   UNL     1       5.247  -1.045  24.808  0.00  0.00    -0.453 OA
BRANCH  26  29
ATOM     27  C   UNL     1       4.307  -4.553  24.719  0.00  0.00    +0.192 C 
ATOM     28  O   UNL     1       4.110  -3.120  24.704  0.00  0.00    -0.330 OA
ATOM     29  C   UNL     1       5.236  -2.429  25.272  0.00  0.00    +0.341 C 
ATOM     30  C   UNL     1       5.201  -2.687  26.805  0.00  0.00    +0.226 C 
ATOM     31  C   UNL     1       5.286  -4.244  26.979  0.00  0.00    +0.242 C 
ATOM     32  C   UNL     1       4.175  -4.981  26.183  0.00  0.00    +0.190 C 
BRANCH  30  33
ATOM     33  O   UNL     1       6.301  -2.044  27.471  0.00  0.00    -0.382 OA
ATOM     34  H   UNL     1       6.630  -2.632  28.173  0.00  0.00    +0.210 HD
ENDBRANCH  30  33
BRANCH  32  35
ATOM     35  O   UNL     1       2.886  -4.616  26.696  0.00  0.00    -0.385 OA
ATOM     36  H   UNL     1       2.223  -5.146  26.212  0.00  0.00    +0.210 HD
ENDBRANCH  32  35
BRANCH  27  37
ATOM     37  C   UNL     1       3.308  -5.185  23.746  0.00  0.00    +0.266 C 
BRANCH  37  38
ATOM     38  O   UNL     1       2.372  -6.066  24.393  0.00  0.00    -0.462 OA
BRANCH  38  40
ATOM     39  C   UNL     1       1.494  -7.557  22.806  0.00  0.00    +0.136 C 
ATOM     40  C   UNL     1       2.390  -7.368  23.993  0.00  0.00    +0.304 C 
ATOM     41  O   UNL     1       3.027  -8.270  24.515  0.00  0.00    -0.251 OA
ENDBRANCH  38  40
ENDBRANCH  37  38
ENDBRANCH  27  37
BRANCH  31  42
ATOM     42  O   UNL     1       5.265  -4.610  28.373  0.00  0.00    -0.456 OA
BRANCH  42  43
ATOM     43  C   UNL     1       6.098  -5.646  28.699  0.00  0.00    +0.304 C 
ATOM     44  C   UNL     1       5.666  -6.290  29.978  0.00  0.00    +0.136 C 
ATOM     45  O   UNL     1       7.099  -5.968  28.073  0.00  0.00    -0.251 OA
ENDBRANCH  42  43
ENDBRANCH  31  42
ENDBRANCH  26  29
ENDBRANCH   1  26
TORSDOF 14
ENDMDL
MODEL 3
REMARK VINA RESULT:      -7.1      1.842      5.222
REMARK  Name = 
REMARK  16 active torsions:
REMARK  status: ('A' for Active; 'I' for Inactive)
REMARK    1  A    between atoms: C_1  and  C_2
REMARK    2  A    between atoms: C_2  and  O_4
REMARK    3  A    between atoms: O_4  and  C_5
REMARK    4  A    between atoms: C_5  and  C_6
REMARK    5  A    between atoms: C_8  and  O_44
REMARK    6  A    between atoms: C_10  and  O_40
REMARK    7  A    between atoms: C_12  and  O_39
REMARK    8  A    between atoms: C_14  and  O_17
REMARK    9  A    between atoms: O_17  and  C_18
REMARK   10  A    between atoms: C_19  and  C_31
REMARK   11  A    between atoms: C_23  and  O_30
REMARK   12  A    between atoms: C_25  and  O_29
REMARK   13  A    between atoms: C_33  and  O_38
REMARK   14  A    between atoms: C_34  and  O_37
REMARK   15  A    between atoms: O_40  and  C_41
REMARK   16  A    between atoms: C_41  and  C_43
REMARK                            x       y       z     vdW  Elec       q    Type
REMARK                         _______ _______ _______ _____ _____    ______ ____
ROOT
ATOM      1  C   UNL     1       7.851   2.142  24.153  0.00  0.00    +0.214 A 
ATOM      2  C   UNL     1       8.296   3.475  24.703  0.00  0.00    +0.238 A 
ATOM      3  O   UNL     1       7.772   4.018  25.666  0.00  0.00    -0.283 OA
ATOM      4  C   UNL     1       9.471   4.102  24.152  0.00  0.00    +0.109 A 
ATOM      5  C   UNL     1      10.435   3.230  23.697  0.00  0.00    +0.147 A 
ATOM      6  C   UNL     1      11.687   3.732  23.346  0.00  0.00    +0.092 A 
ATOM      7  C   UNL     1      11.934   5.103  23.477  0.00  0.00    +0.124 A 
ATOM      8  C   UNL     1      10.957   5.983  23.928  0.00  0.00    +0.091 A 
ATOM      9  O   UNL     1      10.214   1.878  23.663  0.00  0.00    -0.451 OA
ATOM     10  C   UNL     1       9.707   5.479  24.248  0.00  0.00    +0.135 A 
ATOM     11  C   UNL     1       8.902   1.347  23.790  0.00  0.00    +0.181 A 
ENDROOT
BRANCH  11  12
ATOM     12  C   UNL     1       8.953  -0.159  23.573  0.00  0.00    +0.025 A 
ATOM     13  C   UNL     1       9.818  -0.930  24.409  0.00  0.00    +0.015 A 
ATOM     14  C   UNL     1       9.796  -2.332  24.464  0.00  0.00    +0.050 A 
ATOM     15  C   UNL     1       8.910  -3.011  23.654  0.00  0.00    +0.158 A 
ATOM     16  C   UNL     1       8.117  -2.307  22.757  0.00  0.00    +0.159 A 
ATOM     17  C   UNL     1       8.112  -0.899  22.705  0.00  0.00    +0.060 A 
BRANCH  15  18
ATOM     18  O   UNL     1       8.826  -4.367  23.761  0.00  0.00    -0.503 OA
ATOM     19  H   UNL     1       9.751  -4.678  23.819  0.00  0.00    +0.292 HD
ENDBRANCH  15  18
BRANCH  16  20
ATOM     20  O   UNL     1       7.321  -3.057  21.932  0.00  0.00    -0.503 OA
ATOM     21  H   UNL     1       7.238  -3.944  22.324  0.00  0.00    +0.292 HD
ENDBRANCH  16  20
ENDBRANCH  11  12
BRANCH   7  22
ATOM     22  O   UNL     1      13.147   5.645  23.168  0.00  0.00    -0.507 OA
ATOM     23  H   UNL     1      13.317   6.396  23.758  0.00  0.00    +0.292 HD
ENDBRANCH   7  22
BRANCH  10  24
ATOM     24  O   UNL     1       8.712   6.336  24.621  0.00  0.00    -0.506 OA
ATOM     25  H   UNL     1       8.602   7.024  23.943  0.00  0.00    +0.292 HD
ENDBRANCH  10  24
BRANCH   1  26
ATOM     26  O   UNL     1       6.480   1.796  24.167  0.00  0.00    -0.453 OA
BRANCH  26  29
ATOM     27  C   UNL     1       5.550  -1.353  25.719  0.00  0.00    +0.192 C 
ATOM     28  O   UNL     1       5.478  -0.262  24.773  0.00  0.00    -0.330 OA
ATOM     29  C   UNL     1       6.131   0.915  25.277  0.00  0.00    +0.341 C 
ATOM     30  C   UNL     1       5.230   1.485  26.409  0.00  0.00    +0.226 C 
ATOM     31  C   UNL     1       5.113   0.343  27.479  0.00  0.00    +0.242 C 
ATOM     32  C   UNL     1       4.598  -0.984  26.860  0.00  0.00    +0.190 C 
BRANCH  30  33
ATOM     33  O   UNL     1       5.805   2.666  26.993  0.00  0.00    -0.382 OA
ATOM     34  H   UNL     1       5.400   2.816  27.865  0.00  0.00    +0.210 HD
ENDBRANCH  30  33
BRANCH  32  35
ATOM     35  O   UNL     1       3.265  -0.802  26.360  0.00  0.00    -0.385 OA
ATOM     36  H   UNL     1       3.314  -0.136  25.646  0.00  0.00    +0.210 HD
ENDBRANCH  32  35
BRANCH  27  37
ATOM     37  C   UNL     1       5.230  -2.654  24.978  0.00  0.00    +0.266 C 
BRANCH  37  38
ATOM     38  O   UNL     1       6.087  -3.746  25.358  0.00  0.00    -0.462 OA
BRANCH  38  40
ATOM     39  C   UNL     1       5.319  -5.922  25.786  0.00  0.00    +0.136 C 
ATOM     40  C   UNL     1       5.835  -4.947  24.771  0.00  0.00    +0.304 C 
ATOM     41  O   UNL     1       6.004  -5.220  23.592  0.00  0.00    -0.251 OA
ENDBRANCH  38  40
ENDBRANCH  37  38
ENDBRANCH  27  37
BRANCH  31  42
ATOM     42  O   UNL     1       4.296   0.759  28.591  0.00  0.00    -0.456 OA
BRANCH  42  43
ATOM     43  C   UNL     1       4.738   0.326  29.811  0.00  0.00    +0.304 C 
ATOM     44  C   UNL     1       5.937   1.108  30.248  0.00  0.00    +0.136 C 
ATOM     45  O   UNL     1       4.267  -0.615  30.437  0.00  0.00    -0.251 OA
ENDBRANCH  42  43
ENDBRANCH  31  42
ENDBRANCH  26  29
ENDBRANCH   1  26
TORSDOF 14
ENDMDL
MODEL 4
REMARK VINA RESULT:      -7.1      1.671      4.897
REMARK  Name = 
REMARK  16 active torsions:
REMARK  status: ('A' for Active; 'I' for Inactive)
REMARK    1  A    between atoms: C_1  and  C_2
REMARK    2  A    between atoms: C_2  and  O_4
REMARK    3  A    between atoms: O_4  and  C_5
REMARK    4  A    between atoms: C_5  and  C_6
REMARK    5  A    between atoms: C_8  and  O_44
REMARK    6  A    between atoms: C_10  and  O_40
REMARK    7  A    between atoms: C_12  and  O_39
REMARK    8  A    between atoms: C_14  and  O_17
REMARK    9  A    between atoms: O_17  and  C_18
REMARK   10  A    between atoms: C_19  and  C_31
REMARK   11  A    between atoms: C_23  and  O_30
REMARK   12  A    between atoms: C_25  and  O_29
REMARK   13  A    between atoms: C_33  and  O_38
REMARK   14  A    between atoms: C_34  and  O_37
REMARK   15  A    between atoms: O_40  and  C_41
REMARK   16  A    between atoms: C_41  and  C_43
REMARK                            x       y       z     vdW  Elec       q    Type
REMARK                         _______ _______ _______ _____ _____    ______ ____
ROOT
ATOM      1  C   UNL     1       7.164   0.411  25.347  0.00  0.00    +0.214 A 
ATOM      2  C   UNL     1       7.452   1.878  25.557  0.00  0.00    +0.238 A 
ATOM      3  O   UNL     1       6.944   2.546  26.447  0.00  0.00    -0.283 OA
ATOM      4  C   UNL     1       8.462   2.515  24.749  0.00  0.00    +0.109 A 
ATOM      5  C   UNL     1       9.500   1.695  24.366  0.00  0.00    +0.147 A 
ATOM      6  C   UNL     1      10.624   2.264  23.769  0.00  0.00    +0.092 A 
ATOM      7  C   UNL     1      10.672   3.651  23.587  0.00  0.00    +0.124 A 
ATOM      8  C   UNL     1       9.619   4.476  23.968  0.00  0.00    +0.091 A 
ATOM      9  O   UNL     1       9.484   0.351  24.633  0.00  0.00    -0.451 OA
ATOM     10  C   UNL     1       8.496   3.898  24.535  0.00  0.00    +0.135 A 
ATOM     11  C   UNL     1       8.285  -0.303  25.026  0.00  0.00    +0.181 A 
ENDROOT
BRANCH  11  12
ATOM     12  C   UNL     1       8.543  -1.801  25.114  0.00  0.00    +0.025 A 
ATOM     13  C   UNL     1       9.057  -2.464  23.957  0.00  0.00    +0.015 A 
ATOM     14  C   UNL     1       9.541  -3.780  23.970  0.00  0.00    +0.050 A 
ATOM     15  C   UNL     1       9.503  -4.487  25.153  0.00  0.00    +0.158 A 
ATOM     16  C   UNL     1       8.926  -3.916  26.280  0.00  0.00    +0.159 A 
ATOM     17  C   UNL     1       8.455  -2.588  26.289  0.00  0.00    +0.060 A 
BRANCH  15  18
ATOM     18  O   UNL     1      10.047  -5.736  25.192  0.00  0.00    -0.503 OA
ATOM     19  H   UNL     1      10.250  -5.899  26.134  0.00  0.00    +0.292 HD
ENDBRANCH  15  18
BRANCH  16  20
ATOM     20  O   UNL     1       8.855  -4.709  27.394  0.00  0.00    -0.503 OA
ATOM     21  H   UNL     1       8.116  -5.329  27.271  0.00  0.00    +0.292 HD
ENDBRANCH  16  20
ENDBRANCH  11  12
BRANCH   7  22
ATOM     22  O   UNL     1      11.754   4.263  23.028  0.00  0.00    -0.507 OA
ATOM     23  H   UNL     1      12.224   3.626  22.467  0.00  0.00    +0.292 HD
ENDBRANCH   7  22
BRANCH  10  24
ATOM     24  O   UNL     1       7.421   4.681  24.846  0.00  0.00    -0.506 OA
ATOM     25  H   UNL     1       7.725   5.501  25.270  0.00  0.00    +0.292 HD
ENDBRANCH  10  24
BRANCH   1  26
ATOM     26  O   UNL     1       5.868  -0.096  25.600  0.00  0.00    -0.453 OA
BRANCH  26  29
ATOM     27  C   UNL     1       5.650  -3.272  23.851  0.00  0.00    +0.192 C 
ATOM     28  O   UNL     1       5.292  -1.914  24.197  0.00  0.00    -0.330 OA
ATOM     29  C   UNL     1       5.800  -1.549  25.492  0.00  0.00    +0.341 C 
ATOM     30  C   UNL     1       4.956  -2.323  26.545  0.00  0.00    +0.226 C 
ATOM     31  C   UNL     1       5.152  -3.845  26.215  0.00  0.00    +0.242 C 
ATOM     32  C   UNL     1       4.790  -4.173  24.742  0.00  0.00    +0.190 C 
BRANCH  30  33
ATOM     33  O   UNL     1       5.396  -2.036  27.882  0.00  0.00    -0.382 OA
ATOM     34  H   UNL     1       6.015  -1.285  27.856  0.00  0.00    +0.210 HD
ENDBRANCH  30  33
BRANCH  32  35
ATOM     35  O   UNL     1       3.397  -3.917  24.515  0.00  0.00    -0.385 OA
ATOM     36  H   UNL     1       2.905  -4.701  24.828  0.00  0.00    +0.210 HD
ENDBRANCH  32  35
BRANCH  27  37
ATOM     37  C   UNL     1       5.462  -3.450  22.342  0.00  0.00    +0.266 C 
BRANCH  37  38
ATOM     38  O   UNL     1       5.119  -4.797  21.971  0.00  0.00    -0.462 OA
BRANCH  38  40
ATOM     39  C   UNL     1       7.144  -5.979  22.070  0.00  0.00    +0.136 C 
ATOM     40  C   UNL     1       6.028  -5.466  21.211  0.00  0.00    +0.304 C 
ATOM     41  O   UNL     1       5.971  -5.630  20.001  0.00  0.00    -0.251 OA
ENDBRANCH  38  40
ENDBRANCH  37  38
ENDBRANCH  27  37
BRANCH  31  42
ATOM     42  O   UNL     1       4.414  -4.672  27.136  0.00  0.00    -0.456 OA
BRANCH  42  43
ATOM     43  C   UNL     1       5.194  -5.428  27.968  0.00  0.00    +0.304 C 
ATOM     44  C   UNL     1       4.765  -6.861  27.939  0.00  0.00    +0.136 C 
ATOM     45  O   UNL     1       6.080  -4.992  28.691  0.00  0.00    -0.251 OA
ENDBRANCH  42  43
ENDBRANCH  31  42
ENDBRANCH  26  29
ENDBRANCH   1  26
TORSDOF 14
ENDMDL
MODEL 5
REMARK VINA RESULT:      -7.1      2.191      7.418
REMARK  Name = 
REMARK  16 active torsions:
REMARK  status: ('A' for Active; 'I' for Inactive)
REMARK    1  A    between atoms: C_1  and  C_2
REMARK    2  A    between atoms: C_2  and  O_4
REMARK    3  A    between atoms: O_4  and  C_5
REMARK    4  A    between atoms: C_5  and  C_6
REMARK    5  A    between atoms: C_8  and  O_44
REMARK    6  A    between atoms: C_10  and  O_40
REMARK    7  A    between atoms: C_12  and  O_39
REMARK    8  A    between atoms: C_14  and  O_17
REMARK    9  A    between atoms: O_17  and  C_18
REMARK   10  A    between atoms: C_19  and  C_31
REMARK   11  A    between atoms: C_23  and  O_30
REMARK   12  A    between atoms: C_25  and  O_29
REMARK   13  A    between atoms: C_33  and  O_38
REMARK   14  A    between atoms: C_34  and  O_37
REMARK   15  A    between atoms: O_40  and  C_41
REMARK   16  A    between atoms: C_41  and  C_43
REMARK                            x       y       z     vdW  Elec       q    Type
REMARK                         _______ _______ _______ _____ _____    ______ ____
ROOT
ATOM      1  C   UNL     1       6.664  -3.767  27.024  0.00  0.00    +0.214 A 
ATOM      2  C   UNL     1       6.167  -4.923  27.857  0.00  0.00    +0.238 A 
ATOM      3  O   UNL     1       6.866  -5.530  28.656  0.00  0.00    -0.283 OA
ATOM      4  C   UNL     1       4.769  -5.272  27.805  0.00  0.00    +0.109 A 
ATOM      5  C   UNL     1       3.916  -4.215  27.582  0.00  0.00    +0.147 A 
ATOM      6  C   UNL     1       2.543  -4.414  27.727  0.00  0.00    +0.092 A 
ATOM      7  C   UNL     1       2.073  -5.675  28.107  0.00  0.00    +0.124 A 
ATOM      8  C   UNL     1       2.936  -6.744  28.324  0.00  0.00    +0.091 A 
ATOM      9  O   UNL     1       4.392  -2.960  27.303  0.00  0.00    -0.451 OA
ATOM     10  C   UNL     1       4.295  -6.544  28.150  0.00  0.00    +0.135 A 
ATOM     11  C   UNL     1       5.746  -2.759  26.925  0.00  0.00    +0.181 A 
ENDROOT
BRANCH  11  12
ATOM     12  C   UNL     1       5.942  -1.298  26.545  0.00  0.00    +0.025 A 
ATOM     13  C   UNL     1       6.956  -0.555  27.227  0.00  0.00    +0.015 A 
ATOM     14  C   UNL     1       7.386   0.718  26.825  0.00  0.00    +0.050 A 
ATOM     15  C   UNL     1       6.789   1.301  25.728  0.00  0.00    +0.158 A 
ATOM     16  C   UNL     1       5.736   0.658  25.091  0.00  0.00    +0.159 A 
ATOM     17  C   UNL     1       5.307  -0.630  25.469  0.00  0.00    +0.060 A 
BRANCH  15  18
ATOM     18  O   UNL     1       7.257   2.502  25.284  0.00  0.00    -0.503 OA
ATOM     19  H   UNL     1       8.229   2.449  25.377  0.00  0.00    +0.292 HD
ENDBRANCH  15  18
BRANCH  16  20
ATOM     20  O   UNL     1       5.144   1.336  24.059  0.00  0.00    -0.503 OA
ATOM     21  H   UNL     1       4.281   1.659  24.371  0.00  0.00    +0.292 HD
ENDBRANCH  16  20
ENDBRANCH  11  12
BRANCH   7  22
ATOM     22  O   UNL     1       0.743  -5.921  28.284  0.00  0.00    -0.507 OA
ATOM     23  H   UNL     1       0.572  -6.864  28.132  0.00  0.00    +0.292 HD
ENDBRANCH   7  22
BRANCH  10  24
ATOM     24  O   UNL     1       5.152  -7.598  28.284  0.00  0.00    -0.506 OA
ATOM     25  H   UNL     1       6.063  -7.305  28.108  0.00  0.00    +0.292 HD
ENDBRANCH  10  24
BRANCH   1  26
ATOM     26  O   UNL     1       7.995  -3.765  26.545  0.00  0.00    -0.453 OA
BRANCH  26  29
ATOM     27  C   UNL     1       9.002  -2.392  23.336  0.00  0.00    +0.192 C 
ATOM     28  O   UNL     1       8.448  -2.388  24.672  0.00  0.00    -0.330 OA
ATOM     29  C   UNL     1       8.069  -3.712  25.088  0.00  0.00    +0.341 C 
ATOM     30  C   UNL     1       6.801  -4.099  24.275  0.00  0.00    +0.226 C 
ATOM     31  C   UNL     1       7.223  -4.028  22.765  0.00  0.00    +0.242 C 
ATOM     32  C   UNL     1       7.823  -2.646  22.392  0.00  0.00    +0.190 C 
BRANCH  30  33
ATOM     33  O   UNL     1       6.347  -5.420  24.611  0.00  0.00    -0.382 OA
ATOM     34  H   UNL     1       5.949  -5.826  23.821  0.00  0.00    +0.210 HD
ENDBRANCH  30  33
BRANCH  32  35
ATOM     35  O   UNL     1       6.827  -1.625  22.551  0.00  0.00    -0.385 OA
ATOM     36  H   UNL     1       6.033  -2.053  22.926  0.00  0.00    +0.210 HD
ENDBRANCH  32  35
BRANCH  27  37
ATOM     37  C   UNL     1       9.755  -1.077  23.124  0.00  0.00    +0.266 C 
BRANCH  37  38
ATOM     38  O   UNL     1       9.315  -0.355  21.960  0.00  0.00    -0.462 OA
BRANCH  38  40
ATOM     39  C   UNL     1      10.074   1.860  22.123  0.00  0.00    +0.136 C 
ATOM     40  C   UNL     1       8.902   0.926  22.161  0.00  0.00    +0.304 C 
ATOM     41  O   UNL     1       7.751   1.288  22.355  0.00  0.00    -0.251 OA
ENDBRANCH  38  40
ENDBRANCH  37  38
ENDBRANCH  27  37
BRANCH  31  42
ATOM     42  O   UNL     1       6.120  -4.374  21.905  0.00  0.00    -0.456 OA
BRANCH  42  43
ATOM     43  C   UNL     1       6.352  -5.451  21.093  0.00  0.00    +0.304 C 
ATOM     44  C   UNL     1       7.358  -6.371  21.709  0.00  0.00    +0.136 C 
ATOM     45  O   UNL     1       5.860  -5.615  19.985  0.00  0.00    -0.251 OA
ENDBRANCH  42  43
ENDBRANCH  31  42
ENDBRANCH  26  29
ENDBRANCH   1  26
TORSDOF 14
ENDMDL
MODEL 6
REMARK VINA RESULT:      -7.0      2.026      6.944
REMARK  Name = 
REMARK  16 active torsions:
REMARK  status: ('A' for Active; 'I' for Inactive)
REMARK    1  A    between atoms: C_1  and  C_2
REMARK    2  A    between atoms: C_2  and  O_4
REMARK    3  A    between atoms: O_4  and  C_5
REMARK    4  A    between atoms: C_5  and  C_6
REMARK    5  A    between atoms: C_8  and  O_44
REMARK    6  A    between atoms: C_10  and  O_40
REMARK    7  A    between atoms: C_12  and  O_39
REMARK    8  A    between atoms: C_14  and  O_17
REMARK    9  A    between atoms: O_17  and  C_18
REMARK   10  A    between atoms: C_19  and  C_31
REMARK   11  A    between atoms: C_23  and  O_30
REMARK   12  A    between atoms: C_25  and  O_29
REMARK   13  A    between atoms: C_33  and  O_38
REMARK   14  A    between atoms: C_34  and  O_37
REMARK   15  A    between atoms: O_40  and  C_41
REMARK   16  A    between atoms: C_41  and  C_43
REMARK                            x       y       z     vdW  Elec       q    Type
REMARK                         _______ _______ _______ _____ _____    ______ ____
ROOT
ATOM      1  C   UNL     1       6.929  -2.480  26.765  0.00  0.00    +0.214 A 
ATOM      2  C   UNL     1       6.545  -3.908  27.063  0.00  0.00    +0.238 A 
ATOM      3  O   UNL     1       7.305  -4.722  27.568  0.00  0.00    -0.283 OA
ATOM      4  C   UNL     1       5.180  -4.323  26.854  0.00  0.00    +0.109 A 
ATOM      5  C   UNL     1       4.238  -3.339  27.054  0.00  0.00    +0.147 A 
ATOM      6  C   UNL     1       2.890  -3.692  27.086  0.00  0.00    +0.092 A 
ATOM      7  C   UNL     1       2.532  -5.036  26.927  0.00  0.00    +0.124 A 
ATOM      8  C   UNL     1       3.485  -6.027  26.716  0.00  0.00    +0.091 A 
ATOM      9  O   UNL     1       4.603  -2.042  27.303  0.00  0.00    -0.451 OA
ATOM     10  C   UNL     1       4.819  -5.662  26.659  0.00  0.00    +0.135 A 
ATOM     11  C   UNL     1       5.929  -1.595  27.058  0.00  0.00    +0.181 A 
ENDROOT
BRANCH  11  12
ATOM     12  C   UNL     1       5.997  -0.092  27.291  0.00  0.00    +0.025 A 
ATOM     13  C   UNL     1       4.930   0.715  26.791  0.00  0.00    +0.015 A 
ATOM     14  C   UNL     1       4.759   2.067  27.124  0.00  0.00    +0.050 A 
ATOM     15  C   UNL     1       5.678   2.663  27.962  0.00  0.00    +0.158 A 
ATOM     16  C   UNL     1       6.784   1.943  28.397  0.00  0.00    +0.159 A 
ATOM     17  C   UNL     1       6.958   0.579  28.088  0.00  0.00    +0.060 A 
BRANCH  15  18
ATOM     18  O   UNL     1       5.473   3.952  28.354  0.00  0.00    -0.503 OA
ATOM     19  H   UNL     1       4.517   4.013  28.545  0.00  0.00    +0.292 HD
ENDBRANCH  15  18
BRANCH  16  20
ATOM     20  O   UNL     1       7.691   2.627  29.160  0.00  0.00    -0.503 OA
ATOM     21  H   UNL     1       7.390   2.593  30.084  0.00  0.00    +0.292 HD
ENDBRANCH  16  20
ENDBRANCH  11  12
BRANCH   7  22
ATOM     22  O   UNL     1       1.231  -5.441  26.970  0.00  0.00    -0.507 OA
ATOM     23  H   UNL     1       1.150  -6.184  27.588  0.00  0.00    +0.292 HD
ENDBRANCH   7  22
BRANCH  10  24
ATOM     24  O   UNL     1       5.763  -6.607  26.378  0.00  0.00    -0.506 OA
ATOM     25  H   UNL     1       6.026  -7.062  27.197  0.00  0.00    +0.292 HD
ENDBRANCH  10  24
BRANCH   1  26
ATOM     26  O   UNL     1       8.247  -2.177  26.348  0.00  0.00    -0.453 OA
BRANCH  26  29
ATOM     27  C   UNL     1       7.805  -2.062  22.745  0.00  0.00    +0.192 C 
ATOM     28  O   UNL     1       8.246  -2.590  24.017  0.00  0.00    -0.330 OA
ATOM     29  C   UNL     1       8.293  -1.565  25.024  0.00  0.00    +0.341 C 
ATOM     30  C   UNL     1       9.501  -0.648  24.683  0.00  0.00    +0.226 C 
ATOM     31  C   UNL     1       9.218  -0.083  23.246  0.00  0.00    +0.242 C 
ATOM     32  C   UNL     1       8.965  -1.215  22.215  0.00  0.00    +0.190 C 
BRANCH  30  33
ATOM     33  O   UNL     1       9.629   0.425  25.631  0.00  0.00    -0.382 OA
ATOM     34  H   UNL     1       9.407   0.090  26.517  0.00  0.00    +0.210 HD
ENDBRANCH  30  33
BRANCH  32  35
ATOM     35  O   UNL     1      10.146  -2.018  22.075  0.00  0.00    -0.385 OA
ATOM     36  H   UNL     1      10.061  -2.767  22.698  0.00  0.00    +0.210 HD
ENDBRANCH  32  35
BRANCH  27  37
ATOM     37  C   UNL     1       7.376  -3.235  21.859  0.00  0.00    +0.266 C 
BRANCH  37  38
ATOM     38  O   UNL     1       7.599  -4.517  22.473  0.00  0.00    -0.462 OA
BRANCH  38  40
ATOM     39  C   UNL     1       6.207  -5.728  21.022  0.00  0.00    +0.136 C 
ATOM     40  C   UNL     1       6.557  -5.393  22.441  0.00  0.00    +0.304 C 
ATOM     41  O   UNL     1       5.971  -5.848  23.411  0.00  0.00    -0.251 OA
ENDBRANCH  38  40
ENDBRANCH  37  38
ENDBRANCH  27  37
BRANCH  31  42
ATOM     42  O   UNL     1      10.278   0.794  22.818  0.00  0.00    -0.456 OA
BRANCH  42  43
ATOM     43  C   UNL     1       9.884   2.081  22.572  0.00  0.00    +0.304 C 
ATOM     44  C   UNL     1      10.748   3.050  23.315  0.00  0.00    +0.136 C 
ATOM     45  O   UNL     1       8.917   2.403  21.894  0.00  0.00    -0.251 OA
ENDBRANCH  42  43
ENDBRANCH  31  42
ENDBRANCH  26  29
ENDBRANCH   1  26
TORSDOF 14
ENDMDL
MODEL 7
REMARK VINA RESULT:      -7.0      2.747      4.530
REMARK  Name = 
REMARK  16 active torsions:
REMARK  status: ('A' for Active; 'I' for Inactive)
REMARK    1  A    between atoms: C_1  and  C_2
REMARK    2  A    between atoms: C_2  and  O_4
REMARK    3  A    between atoms: O_4  and  C_5
REMARK    4  A    between atoms: C_5  and  C_6
REMARK    5  A    between atoms: C_8  and  O_44
REMARK    6  A    between atoms: C_10  and  O_40
REMARK    7  A    between atoms: C_12  and  O_39
REMARK    8  A    between atoms: C_14  and  O_17
REMARK    9  A    between atoms: O_17  and  C_18
REMARK   10  A    between atoms: C_19  and  C_31
REMARK   11  A    between atoms: C_23  and  O_30
REMARK   12  A    between atoms: C_25  and  O_29
REMARK   13  A    between atoms: C_33  and  O_38
REMARK   14  A    between atoms: C_34  and  O_37
REMARK   15  A    between atoms: O_40  and  C_41
REMARK   16  A    between atoms: C_41  and  C_43
REMARK                            x       y       z     vdW  Elec       q    Type
REMARK                         _______ _______ _______ _____ _____    ______ ____
ROOT
ATOM      1  C   UNL     1       7.249  -3.186  24.226  0.00  0.00    +0.214 A 
ATOM      2  C   UNL     1       7.904  -2.448  23.084  0.00  0.00    +0.238 A 
ATOM      3  O   UNL     1       7.736  -2.737  21.908  0.00  0.00    -0.283 OA
ATOM      4  C   UNL     1       8.681  -1.268  23.368  0.00  0.00    +0.109 A 
ATOM      5  C   UNL     1       8.251  -0.539  24.455  0.00  0.00    +0.147 A 
ATOM      6  C   UNL     1       8.800   0.723  24.680  0.00  0.00    +0.092 A 
ATOM      7  C   UNL     1       9.761   1.218  23.791  0.00  0.00    +0.124 A 
ATOM      8  C   UNL     1      10.199   0.477  22.699  0.00  0.00    +0.091 A 
ATOM      9  O   UNL     1       7.242  -0.992  25.264  0.00  0.00    -0.451 OA
ATOM     10  C   UNL     1       9.668  -0.787  22.500  0.00  0.00    +0.135 A 
ATOM     11  C   UNL     1       6.817  -2.346  25.214  0.00  0.00    +0.181 A 
ENDROOT
BRANCH  11  12
ATOM     12  C   UNL     1       5.792  -2.585  26.315  0.00  0.00    +0.025 A 
ATOM     13  C   UNL     1       4.455  -2.129  26.100  0.00  0.00    +0.015 A 
ATOM     14  C   UNL     1       3.376  -2.476  26.926  0.00  0.00    +0.050 A 
ATOM     15  C   UNL     1       3.613  -3.282  28.019  0.00  0.00    +0.158 A 
ATOM     16  C   UNL     1       4.912  -3.672  28.321  0.00  0.00    +0.159 A 
ATOM     17  C   UNL     1       6.003  -3.350  27.489  0.00  0.00    +0.060 A 
BRANCH  15  18
ATOM     18  O   UNL     1       2.557  -3.690  28.779  0.00  0.00    -0.503 OA
ATOM     19  H   UNL     1       2.893  -4.444  29.302  0.00  0.00    +0.292 HD
ENDBRANCH  15  18
BRANCH  16  20
ATOM     20  O   UNL     1       5.075  -4.405  29.466  0.00  0.00    -0.503 OA
ATOM     21  H   UNL     1       4.773  -3.862  30.213  0.00  0.00    +0.292 HD
ENDBRANCH  16  20
ENDBRANCH  11  12
BRANCH   7  22
ATOM     22  O   UNL     1      10.316   2.453  23.951  0.00  0.00    -0.507 OA
ATOM     23  H   UNL     1      10.926   2.624  23.216  0.00  0.00    +0.292 HD
ENDBRANCH   7  22
BRANCH  10  24
ATOM     24  O   UNL     1      10.140  -1.560  21.479  0.00  0.00    -0.506 OA
ATOM     25  H   UNL     1       9.576  -2.347  21.376  0.00  0.00    +0.292 HD
ENDBRANCH  10  24
BRANCH   1  26
ATOM     26  O   UNL     1       7.040  -4.582  24.136  0.00  0.00    -0.453 OA
BRANCH  26  29
ATOM     27  C   UNL     1       4.186  -6.116  25.777  0.00  0.00    +0.192 C 
ATOM     28  O   UNL     1       5.522  -6.033  25.228  0.00  0.00    -0.330 OA
ATOM     29  C   UNL     1       5.637  -4.954  24.285  0.00  0.00    +0.341 C 
ATOM     30  C   UNL     1       4.852  -5.377  23.011  0.00  0.00    +0.226 C 
ATOM     31  C   UNL     1       3.375  -5.625  23.482  0.00  0.00    +0.242 C 
ATOM     32  C   UNL     1       3.299  -6.647  24.647  0.00  0.00    +0.190 C 
BRANCH  30  33
ATOM     33  O   UNL     1       4.895  -4.353  22.004  0.00  0.00    -0.382 OA
ATOM     34  H   UNL     1       4.097  -3.801  22.081  0.00  0.00    +0.210 HD
ENDBRANCH  30  33
BRANCH  32  35
ATOM     35  O   UNL     1       3.770  -7.927  24.203  0.00  0.00    -0.385 OA
ATOM     36  H   UNL     1       3.038  -8.563  24.325  0.00  0.00    +0.210 HD
ENDBRANCH  32  35
BRANCH  27  37
ATOM     37  C   UNL     1       4.238  -6.973  27.044  0.00  0.00    +0.266 C 
BRANCH  37  38
ATOM     38  O   UNL     1       3.090  -6.797  27.893  0.00  0.00    -0.462 OA
BRANCH  38  40
ATOM     39  C   UNL     1       1.889  -7.640  29.725  0.00  0.00    +0.136 C 
ATOM     40  C   UNL     1       3.220  -7.213  29.182  0.00  0.00    +0.304 C 
ATOM     41  O   UNL     1       4.257  -7.238  29.828  0.00  0.00    -0.251 OA
ENDBRANCH  38  40
ENDBRANCH  37  38
ENDBRANCH  27  37
BRANCH  31  42
ATOM     42  O   UNL     1       2.541  -6.023  22.376  0.00  0.00    -0.456 OA
BRANCH  42  43
ATOM     43  C   UNL     1       1.199  -5.998  22.641  0.00  0.00    +0.304 C 
ATOM     44  C   UNL     1       0.557  -7.289  22.243  0.00  0.00    +0.136 C 
ATOM     45  O   UNL     1       0.587  -5.035  23.082  0.00  0.00    -0.251 OA
ENDBRANCH  42  43
ENDBRANCH  31  42
ENDBRANCH  26  29
ENDBRANCH   1  26
TORSDOF 14
ENDMDL
MODEL 8
REMARK VINA RESULT:      -6.9      2.487      8.737
REMARK  Name = 
REMARK  16 active torsions:
REMARK  status: ('A' for Active; 'I' for Inactive)
REMARK    1  A    between atoms: C_1  and  C_2
REMARK    2  A    between atoms: C_2  and  O_4
REMARK    3  A    between atoms: O_4  and  C_5
REMARK    4  A    between atoms: C_5  and  C_6
REMARK    5  A    between atoms: C_8  and  O_44
REMARK    6  A    between atoms: C_10  and  O_40
REMARK    7  A    between atoms: C_12  and  O_39
REMARK    8  A    between atoms: C_14  and  O_17
REMARK    9  A    between atoms: O_17  and  C_18
REMARK   10  A    between atoms: C_19  and  C_31
REMARK   11  A    between atoms: C_23  and  O_30
REMARK   12  A    between atoms: C_25  and  O_29
REMARK   13  A    between atoms: C_33  and  O_38
REMARK   14  A    between atoms: C_34  and  O_37
REMARK   15  A    between atoms: O_40  and  C_41
REMARK   16  A    between atoms: C_41  and  C_43
REMARK                            x       y       z     vdW  Elec       q    Type
REMARK                         _______ _______ _______ _____ _____    ______ ____
ROOT
ATOM      1  C   UNL     1       6.763  -1.453  24.945  0.00  0.00    +0.214 A 
ATOM      2  C   UNL     1       5.622  -2.438  24.871  0.00  0.00    +0.238 A 
ATOM      3  O   UNL     1       4.474  -2.169  25.197  0.00  0.00    -0.283 OA
ATOM      4  C   UNL     1       5.853  -3.733  24.280  0.00  0.00    +0.109 A 
ATOM      5  C   UNL     1       6.798  -3.752  23.278  0.00  0.00    +0.147 A 
ATOM      6  C   UNL     1       6.937  -4.904  22.505  0.00  0.00    +0.092 A 
ATOM      7  C   UNL     1       6.107  -6.001  22.758  0.00  0.00    +0.124 A 
ATOM      8  C   UNL     1       5.158  -5.982  23.775  0.00  0.00    +0.091 A 
ATOM      9  O   UNL     1       7.541  -2.641  22.976  0.00  0.00    -0.451 OA
ATOM     10  C   UNL     1       5.047  -4.843  24.556  0.00  0.00    +0.135 A 
ATOM     11  C   UNL     1       7.598  -1.535  23.866  0.00  0.00    +0.181 A 
ENDROOT
BRANCH  11  12
ATOM     12  C   UNL     1       8.602  -0.522  23.335  0.00  0.00    +0.025 A 
ATOM     13  C   UNL     1       8.438  -0.050  21.996  0.00  0.00    +0.015 A 
ATOM     14  C   UNL     1       9.151   1.034  21.463  0.00  0.00    +0.050 A 
ATOM     15  C   UNL     1      10.078   1.671  22.260  0.00  0.00    +0.158 A 
ATOM     16  C   UNL     1      10.339   1.189  23.537  0.00  0.00    +0.159 A 
ATOM     17  C   UNL     1       9.616   0.114  24.093  0.00  0.00    +0.060 A 
BRANCH  15  18
ATOM     18  O   UNL     1      10.715   2.775  21.777  0.00  0.00    -0.503 OA
ATOM     19  H   UNL     1      11.668   2.576  21.854  0.00  0.00    +0.292 HD
ENDBRANCH  15  18
BRANCH  16  20
ATOM     20  O   UNL     1      11.328   1.826  24.236  0.00  0.00    -0.503 OA
ATOM     21  H   UNL     1      11.572   1.262  24.990  0.00  0.00    +0.292 HD
ENDBRANCH  16  20
ENDBRANCH  11  12
BRANCH   7  22
ATOM     22  O   UNL     1       6.185  -7.145  22.020  0.00  0.00    -0.507 OA
ATOM     23  H   UNL     1       6.954  -7.658  22.311  0.00  0.00    +0.292 HD
ENDBRANCH   7  22
BRANCH  10  24
ATOM     24  O   UNL     1       4.176  -4.832  25.607  0.00  0.00    -0.506 OA
ATOM     25  H   UNL     1       3.414  -4.266  25.395  0.00  0.00    +0.292 HD
ENDBRANCH  10  24
BRANCH   1  26
ATOM     26  O   UNL     1       6.808  -0.506  25.995  0.00  0.00    -0.453 OA
BRANCH  26  29
ATOM     27  C   UNL     1       7.165   2.984  25.055  0.00  0.00    +0.192 C 
ATOM     28  O   UNL     1       7.355   1.793  25.854  0.00  0.00    -0.330 OA
ATOM     29  C   UNL     1       6.338   0.813  25.585  0.00  0.00    +0.341 C 
ATOM     30  C   UNL     1       5.017   1.346  26.209  0.00  0.00    +0.226 C 
ATOM     31  C   UNL     1       4.739   2.724  25.512  0.00  0.00    +0.242 C 
ATOM     32  C   UNL     1       5.943   3.695  25.641  0.00  0.00    +0.190 C 
BRANCH  30  33
ATOM     33  O   UNL     1       3.926   0.437  25.983  0.00  0.00    -0.382 OA
ATOM     34  H   UNL     1       3.436   0.320  26.815  0.00  0.00    +0.210 HD
ENDBRANCH  30  33
BRANCH  32  35
ATOM     35  O   UNL     1       6.165   4.012  27.023  0.00  0.00    -0.385 OA
ATOM     36  H   UNL     1       7.044   4.434  27.084  0.00  0.00    +0.210 HD
ENDBRANCH  32  35
BRANCH  27  37
ATOM     37  C   UNL     1       8.471   3.783  25.066  0.00  0.00    +0.266 C 
BRANCH  37  38
ATOM     38  O   UNL     1       8.752   4.424  23.809  0.00  0.00    -0.462 OA
BRANCH  38  40
ATOM     39  C   UNL     1       9.407   6.677  23.742  0.00  0.00    +0.136 C 
ATOM     40  C   UNL     1       9.839   5.242  23.775  0.00  0.00    +0.304 C 
ATOM     41  O   UNL     1      11.007   4.884  23.765  0.00  0.00    -0.251 OA
ENDBRANCH  38  40
ENDBRANCH  37  38
ENDBRANCH  27  37
BRANCH  31  42
ATOM     42  O   UNL     1       3.525   3.319  26.010  0.00  0.00    -0.456 OA
BRANCH  42  43
ATOM     43  C   UNL     1       2.517   3.405  25.089  0.00  0.00    +0.304 C 
ATOM     44  C   UNL     1       2.283   4.828  24.692  0.00  0.00    +0.136 C 
ATOM     45  O   UNL     1       1.848   2.462  24.688  0.00  0.00    -0.251 OA
ENDBRANCH  42  43
ENDBRANCH  31  42
ENDBRANCH  26  29
ENDBRANCH   1  26
TORSDOF 14
ENDMDL
MODEL 9
REMARK VINA RESULT:      -6.9      1.999      4.963
REMARK  Name = 
REMARK  16 active torsions:
REMARK  status: ('A' for Active; 'I' for Inactive)
REMARK    1  A    between atoms: C_1  and  C_2
REMARK    2  A    between atoms: C_2  and  O_4
REMARK    3  A    between atoms: O_4  and  C_5
REMARK    4  A    between atoms: C_5  and  C_6
REMARK    5  A    between atoms: C_8  and  O_44
REMARK    6  A    between atoms: C_10  and  O_40
REMARK    7  A    between atoms: C_12  and  O_39
REMARK    8  A    between atoms: C_14  and  O_17
REMARK    9  A    between atoms: O_17  and  C_18
REMARK   10  A    between atoms: C_19  and  C_31
REMARK   11  A    between atoms: C_23  and  O_30
REMARK   12  A    between atoms: C_25  and  O_29
REMARK   13  A    between atoms: C_33  and  O_38
REMARK   14  A    between atoms: C_34  and  O_37
REMARK   15  A    between atoms: O_40  and  C_41
REMARK   16  A    between atoms: C_41  and  C_43
REMARK                            x       y       z     vdW  Elec       q    Type
REMARK                         _______ _______ _______ _____ _____    ______ ____
ROOT
ATOM      1  C   UNL     1       8.112  -1.180  24.573  0.00  0.00    +0.214 A 
ATOM      2  C   UNL     1       8.773   0.174  24.498  0.00  0.00    +0.238 A 
ATOM      3  O   UNL     1       9.937   0.377  24.816  0.00  0.00    -0.283 OA
ATOM      4  C   UNL     1       8.047   1.275  23.916  0.00  0.00    +0.109 A 
ATOM      5  C   UNL     1       7.163   0.925  22.920  0.00  0.00    +0.147 A 
ATOM      6  C   UNL     1       6.576   1.931  22.155  0.00  0.00    +0.092 A 
ATOM      7  C   UNL     1       6.910   3.266  22.410  0.00  0.00    +0.124 A 
ATOM      8  C   UNL     1       7.797   3.618  23.421  0.00  0.00    +0.091 A 
ATOM      9  O   UNL     1       6.915  -0.388  22.616  0.00  0.00    -0.451 OA
ATOM     10  C   UNL     1       8.354   2.613  24.194  0.00  0.00    +0.135 A 
ATOM     11  C   UNL     1       7.304  -1.430  23.500  0.00  0.00    +0.181 A 
ENDROOT
BRANCH  11  12
ATOM     12  C   UNL     1       6.775  -2.755  22.968  0.00  0.00    +0.025 A 
ATOM     13  C   UNL     1       7.722  -3.731  22.531  0.00  0.00    +0.015 A 
ATOM     14  C   UNL     1       7.384  -5.059  22.230  0.00  0.00    +0.050 A 
ATOM     15  C   UNL     1       6.065  -5.446  22.339  0.00  0.00    +0.158 A 
ATOM     16  C   UNL     1       5.096  -4.508  22.669  0.00  0.00    +0.159 A 
ATOM     17  C   UNL     1       5.422  -3.176  22.994  0.00  0.00    +0.060 A 
BRANCH  15  18
ATOM     18  O   UNL     1       5.743  -6.754  22.128  0.00  0.00    -0.503 OA
ATOM     19  H   UNL     1       5.588  -7.127  23.017  0.00  0.00    +0.292 HD
ENDBRANCH  15  18
BRANCH  16  20
ATOM     20  O   UNL     1       3.800  -4.952  22.679  0.00  0.00    -0.503 OA
ATOM     21  H   UNL     1       3.240  -4.228  23.007  0.00  0.00    +0.292 HD
ENDBRANCH  16  20
ENDBRANCH  11  12
BRANCH   7  22
ATOM     22  O   UNL     1       6.382   4.289  21.679  0.00  0.00    -0.507 OA
ATOM     23  H   UNL     1       6.702   4.224  20.766  0.00  0.00    +0.292 HD
ENDBRANCH   7  22
BRANCH  10  24
ATOM     24  O   UNL     1       9.167   2.941  25.240  0.00  0.00    -0.506 OA
ATOM     25  H   UNL     1       9.687   2.165  25.508  0.00  0.00    +0.292 HD
ENDBRANCH  10  24
BRANCH   1  26
ATOM     26  O   UNL     1       8.451  -2.072  25.617  0.00  0.00    -0.453 OA
BRANCH  26  29
ATOM     27  C   UNL     1       6.027  -4.184  27.308  0.00  0.00    +0.192 C 
ATOM     28  O   UNL     1       6.784  -3.651  26.197  0.00  0.00    -0.330 OA
ATOM     29  C   UNL     1       7.327  -2.356  26.505  0.00  0.00    +0.341 C 
ATOM     30  C   UNL     1       6.137  -1.355  26.521  0.00  0.00    +0.226 C 
ATOM     31  C   UNL     1       5.150  -1.883  27.621  0.00  0.00    +0.242 C 
ATOM     32  C   UNL     1       4.739  -3.360  27.375  0.00  0.00    +0.190 C 
BRANCH  30  33
ATOM     33  O   UNL     1       6.576  -0.023  26.835  0.00  0.00    -0.382 OA
ATOM     34  H   UNL     1       6.990  -0.028  27.715  0.00  0.00    +0.210 HD
ENDBRANCH  30  33
BRANCH  32  35
ATOM     35  O   UNL     1       4.014  -3.463  26.140  0.00  0.00    -0.385 OA
ATOM     36  H   UNL     1       3.580  -4.338  26.133  0.00  0.00    +0.210 HD
ENDBRANCH  32  35
BRANCH  27  37
ATOM     37  C   UNL     1       5.845  -5.689  27.087  0.00  0.00    +0.266 C 
BRANCH  37  38
ATOM     38  O   UNL     1       5.536  -6.026  25.723  0.00  0.00    -0.462 OA
BRANCH  38  40
ATOM     39  C   UNL     1       3.632  -6.925  26.760  0.00  0.00    +0.136 C 
ATOM     40  C   UNL     1       4.488  -6.873  25.531  0.00  0.00    +0.304 C 
ATOM     41  O   UNL     1       4.261  -7.516  24.517  0.00  0.00    -0.251 OA
ENDBRANCH  38  40
ENDBRANCH  37  38
ENDBRANCH  27  37
BRANCH  31  42
ATOM     42  O   UNL     1       3.996  -1.026  27.733  0.00  0.00    -0.456 OA
BRANCH  42  43
ATOM     43  C   UNL     1       4.093  -0.073  28.710  0.00  0.00    +0.304 C 
ATOM     44  C   UNL     1       3.026   0.964  28.545  0.00  0.00    +0.136 C 
ATOM     45  O   UNL     1       4.967  -0.027  29.565  0.00  0.00    -0.251 OA
ENDBRANCH  42  43
ENDBRANCH  31  42
ENDBRANCH  26  29
ENDBRANCH   1  26
TORSDOF 14
ENDMDL
