MODEL 1
REMARK VINA RESULT:      -6.6      0.000      0.000
REMARK  Name = 
REMARK  29 active torsions:
REMARK  status: ('A' for Active; 'I' for Inactive)
REMARK    1  A    between atoms: C_3  and  O_76
REMARK    2  A    between atoms: C_4  and  O_75
REMARK    3  A    between atoms: C_6  and  C_7
REMARK    4  A    between atoms: C_8  and  C_9
REMARK    5  A    between atoms: C_9  and  O_11
REMARK    6  A    between atoms: O_11  and  C_12
REMARK    7  A    between atoms: C_12  and  C_13
REMARK    8  A    between atoms: C_14  and  O_74
REMARK    9  A    between atoms: C_16  and  O_73
REMARK   10  A    between atoms: C_18  and  O_72
REMARK   11  A    between atoms: C_19  and  O_22
REMARK   12  A    between atoms: O_22  and  C_23
REMARK   13  A    between atoms: C_25  and  O_71
REMARK   14  A    between atoms: C_30  and  C_63
REMARK   15  A    between atoms: C_31  and  O_34
REMARK   16  A    between atoms: O_34  and  C_35
REMARK   17  A    between atoms: C_37  and  O_48
REMARK   18  A    between atoms: C_38  and  O_47
REMARK   19  A    between atoms: C_40  and  O_46
REMARK   20  A    between atoms: C_42  and  C_44
REMARK   21  A    between atoms: C_44  and  O_45
REMARK   22  A    between atoms: O_48  and  C_49
REMARK   23  A    between atoms: C_51  and  O_62
REMARK   24  A    between atoms: C_52  and  O_61
REMARK   25  A    between atoms: C_54  and  O_60
REMARK   26  A    between atoms: C_56  and  C_58
REMARK   27  A    between atoms: C_58  and  O_59
REMARK   28  A    between atoms: C_65  and  O_70
REMARK   29  A    between atoms: C_66  and  O_69
REMARK                            x       y       z     vdW  Elec       q    Type
REMARK                         _______ _______ _______ _____ _____    ______ ____
ROOT
ATOM      1  C   UNL     1       5.590  -3.912  23.093  0.00  0.00    +0.131 A 
ATOM      2  C   UNL     1       5.126  -3.016  24.084  0.00  0.00    +0.093 A 
ATOM      3  C   UNL     1       5.752  -1.765  24.273  0.00  0.00    +0.147 A 
ATOM      4  O   UNL     1       5.286  -0.899  25.236  0.00  0.00    -0.451 OA
ATOM      5  C   UNL     1       5.787   0.423  25.304  0.00  0.00    +0.181 A 
ATOM      6  C   UNL     1       6.925   0.839  24.670  0.00  0.00    +0.214 A 
ATOM      7  C   UNL     1       7.622  -0.244  23.891  0.00  0.00    +0.238 A 
ATOM      8  O   UNL     1       8.814  -0.218  23.643  0.00  0.00    -0.283 OA
ATOM      9  C   UNL     1       6.844  -1.424  23.497  0.00  0.00    +0.109 A 
ATOM     10  C   UNL     1       7.225  -2.257  22.442  0.00  0.00    +0.135 A 
ATOM     11  C   UNL     1       6.599  -3.491  22.239  0.00  0.00    +0.092 A 
ENDROOT
BRANCH   5  12
ATOM     12  C   UNL     1       4.948   1.278  26.213  0.00  0.00    +0.025 A 
ATOM     13  C   UNL     1       3.816   0.735  26.864  0.00  0.00    +0.015 A 
ATOM     14  C   UNL     1       3.096   1.461  27.826  0.00  0.00    +0.050 A 
ATOM     15  C   UNL     1       3.479   2.758  28.122  0.00  0.00    +0.158 A 
ATOM     16  C   UNL     1       4.543   3.340  27.450  0.00  0.00    +0.159 A 
ATOM     17  C   UNL     1       5.294   2.602  26.536  0.00  0.00    +0.060 A 
BRANCH  16  18
ATOM     18  O   UNL     1       4.838   4.647  27.723  0.00  0.00    -0.503 OA
ATOM     19  H   UNL     1       5.560   4.657  28.378  0.00  0.00    +0.292 HD
ENDBRANCH  16  18
BRANCH  15  20
ATOM     20  O   UNL     1       2.815   3.457  29.087  0.00  0.00    -0.503 OA
ATOM     21  H   UNL     1       1.939   3.025  29.150  0.00  0.00    +0.292 HD
ENDBRANCH  15  20
ENDBRANCH   5  12
BRANCH  10  22
ATOM     22  O   UNL     1       8.182  -1.853  21.553  0.00  0.00    -0.506 OA
ATOM     23  H   UNL     1       8.012  -0.933  21.309  0.00  0.00    +0.292 HD
ENDBRANCH  10  22
BRANCH   6  24
ATOM     24  O   UNL     1       7.409   2.164  24.729  0.00  0.00    -0.453 OA
BRANCH  24  25
ATOM     25  C   UNL     1       7.759   2.885  23.515  0.00  0.00    +0.340 C 
ATOM     26  O   UNL     1       9.185   2.938  23.290  0.00  0.00    -0.331 OA
ATOM     27  C   UNL     1       9.959   3.919  24.014  0.00  0.00    +0.179 C 
ATOM     28  C   UNL     1       9.342   5.323  24.064  0.00  0.00    +0.177 C 
ATOM     29  C   UNL     1       7.896   5.206  24.478  0.00  0.00    +0.180 C 
ATOM     30  C   UNL     1       7.164   4.324  23.457  0.00  0.00    +0.221 C 
BRANCH  28  31
ATOM     31  O   UNL     1       9.407   5.983  22.792  0.00  0.00    -0.386 OA
ATOM     32  H   UNL     1       9.110   5.350  22.107  0.00  0.00    +0.210 HD
ENDBRANCH  28  31
BRANCH  29  33
ATOM     33  O   UNL     1       7.786   4.781  25.841  0.00  0.00    -0.386 OA
ATOM     34  H   UNL     1       8.398   4.029  25.968  0.00  0.00    +0.210 HD
ENDBRANCH  29  33
BRANCH  30  35
ATOM     35  O   UNL     1       5.728   4.400  23.576  0.00  0.00    -0.337 OA
BRANCH  35  36
ATOM     36  C   UNL     1       5.285   5.730  23.949  0.00  0.00    +0.282 C 
ATOM     37  O   UNL     1       4.243   5.737  24.922  0.00  0.00    -0.341 OA
ATOM     38  C   UNL     1       3.038   5.080  24.475  0.00  0.00    +0.178 C 
ATOM     39  C   UNL     1       2.447   5.809  23.255  0.00  0.00    +0.177 C 
ATOM     40  C   UNL     1       3.513   5.940  22.153  0.00  0.00    +0.179 C 
ATOM     41  C   UNL     1       4.818   6.530  22.715  0.00  0.00    +0.201 C 
BRANCH  41  42
ATOM     42  O   UNL     1       5.822   6.567  21.687  0.00  0.00    -0.384 OA
ATOM     43  H   UNL     1       6.660   6.270  22.091  0.00  0.00    +0.210 HD
ENDBRANCH  41  42
BRANCH  40  44
ATOM     44  O   UNL     1       3.738   4.653  21.563  0.00  0.00    -0.386 OA
ATOM     45  H   UNL     1       3.877   4.804  20.609  0.00  0.00    +0.210 HD
ENDBRANCH  40  44
BRANCH  39  46
ATOM     46  O   UNL     1       1.984   7.108  23.636  0.00  0.00    -0.386 OA
ATOM     47  H   UNL     1       2.538   7.765  23.178  0.00  0.00    +0.210 HD
ENDBRANCH  39  46
BRANCH  38  48
ATOM     48  C   UNL     1       2.056   5.010  25.661  0.00  0.00    +0.190 C 
BRANCH  48  49
ATOM     49  O   UNL     1       2.283   6.053  26.621  0.00  0.00    -0.392 OA
ATOM     50  H   UNL     1       2.284   5.642  27.506  0.00  0.00    +0.210 HD
ENDBRANCH  48  49
ENDBRANCH  38  48
ENDBRANCH  35  36
ENDBRANCH  30  35
BRANCH  27  51
ATOM     51  C   UNL     1      11.349   4.065  23.358  0.00  0.00    +0.190 C 
BRANCH  51  52
ATOM     52  O   UNL     1      12.018   5.263  23.735  0.00  0.00    -0.392 OA
ATOM     53  H   UNL     1      11.360   5.971  23.806  0.00  0.00    +0.210 HD
ENDBRANCH  51  52
ENDBRANCH  27  51
ENDBRANCH  24  25
ENDBRANCH   6  24
BRANCH   1  54
ATOM     54  O   UNL     1       4.995  -5.154  23.004  0.00  0.00    -0.461 OA
BRANCH  54  57
ATOM     55  C   UNL     1       3.737  -7.112  25.908  0.00  0.00    +0.191 C 
ATOM     56  O   UNL     1       4.574  -6.668  24.815  0.00  0.00    -0.330 OA
ATOM     57  C   UNL     1       4.083  -5.526  24.081  0.00  0.00    +0.339 C 
ATOM     58  C   UNL     1       2.697  -5.883  23.475  0.00  0.00    +0.214 C 
ATOM     59  C   UNL     1       1.739  -6.283  24.612  0.00  0.00    +0.180 C 
ATOM     60  C   UNL     1       2.316  -7.454  25.420  0.00  0.00    +0.178 C 
BRANCH  58  61
ATOM     61  O   UNL     1       2.814  -6.969  22.534  0.00  0.00    -0.383 OA
ATOM     62  H   UNL     1       2.923  -6.586  21.645  0.00  0.00    +0.210 HD
ENDBRANCH  58  61
BRANCH  59  63
ATOM     63  O   UNL     1       0.443  -6.641  24.115  0.00  0.00    -0.386 OA
ATOM     64  H   UNL     1       0.271  -7.547  24.436  0.00  0.00    +0.210 HD
ENDBRANCH  59  63
BRANCH  60  65
ATOM     65  O   UNL     1       1.426  -7.751  26.502  0.00  0.00    -0.386 OA
ATOM     66  H   UNL     1       1.248  -8.710  26.486  0.00  0.00    +0.210 HD
ENDBRANCH  60  65
BRANCH  55  67
ATOM     67  C   UNL     1       3.740  -6.132  27.105  0.00  0.00    +0.266 C 
BRANCH  67  68
ATOM     68  O   UNL     1       4.003  -6.805  28.351  0.00  0.00    -0.459 OA
BRANCH  68  69
ATOM     69  C   UNL     1       5.116  -6.399  29.011  0.00  0.00    +0.332 C 
ATOM     70  O   UNL     1       5.472  -6.764  30.120  0.00  0.00    -0.246 OA
BRANCH  69  72
ATOM     71  C   UNL     1       6.936  -5.907  27.459  0.00  0.00    +0.015 C 
ATOM     72  C   UNL     1       5.854  -5.478  28.125  0.00  0.00    +0.092 C 
BRANCH  71  74
ATOM     73  C   UNL     1       8.265  -5.642  25.326  0.00  0.00    +0.012 A 
ATOM     74  C   UNL     1       7.707  -5.102  26.499  0.00  0.00    -0.021 A 
ATOM     75  C   UNL     1       7.979  -3.764  26.818  0.00  0.00    +0.057 A 
ATOM     76  C   UNL     1       8.784  -3.001  25.979  0.00  0.00    +0.159 A 
ATOM     77  C   UNL     1       9.331  -3.546  24.823  0.00  0.00    +0.158 A 
ATOM     78  C   UNL     1       9.074  -4.867  24.485  0.00  0.00    +0.050 A 
BRANCH  76  79
ATOM     79  O   UNL     1       9.043  -1.702  26.312  0.00  0.00    -0.503 OA
ATOM     80  H   UNL     1       9.190  -1.722  27.279  0.00  0.00    +0.292 HD
ENDBRANCH  76  79
BRANCH  77  81
ATOM     81  O   UNL     1      10.133  -2.747  24.057  0.00  0.00    -0.503 OA
ATOM     82  H   UNL     1      11.056  -2.889  24.332  0.00  0.00    +0.292 HD
ENDBRANCH  77  81
ENDBRANCH  71  74
ENDBRANCH  69  72
ENDBRANCH  68  69
ENDBRANCH  67  68
ENDBRANCH  55  67
ENDBRANCH  54  57
ENDBRANCH   1  54
TORSDOF 29
ENDMDL
MODEL 2
REMARK VINA RESULT:      -6.6      1.806      3.992
REMARK  Name = 
REMARK  29 active torsions:
REMARK  status: ('A' for Active; 'I' for Inactive)
REMARK    1  A    between atoms: C_3  and  O_76
REMARK    2  A    between atoms: C_4  and  O_75
REMARK    3  A    between atoms: C_6  and  C_7
REMARK    4  A    between atoms: C_8  and  C_9
REMARK    5  A    between atoms: C_9  and  O_11
REMARK    6  A    between atoms: O_11  and  C_12
REMARK    7  A    between atoms: C_12  and  C_13
REMARK    8  A    between atoms: C_14  and  O_74
REMARK    9  A    between atoms: C_16  and  O_73
REMARK   10  A    between atoms: C_18  and  O_72
REMARK   11  A    between atoms: C_19  and  O_22
REMARK   12  A    between atoms: O_22  and  C_23
REMARK   13  A    between atoms: C_25  and  O_71
REMARK   14  A    between atoms: C_30  and  C_63
REMARK   15  A    between atoms: C_31  and  O_34
REMARK   16  A    between atoms: O_34  and  C_35
REMARK   17  A    between atoms: C_37  and  O_48
REMARK   18  A    between atoms: C_38  and  O_47
REMARK   19  A    between atoms: C_40  and  O_46
REMARK   20  A    between atoms: C_42  and  C_44
REMARK   21  A    between atoms: C_44  and  O_45
REMARK   22  A    between atoms: O_48  and  C_49
REMARK   23  A    between atoms: C_51  and  O_62
REMARK   24  A    between atoms: C_52  and  O_61
REMARK   25  A    between atoms: C_54  and  O_60
REMARK   26  A    between atoms: C_56  and  C_58
REMARK   27  A    between atoms: C_58  and  O_59
REMARK   28  A    between atoms: C_65  and  O_70
REMARK   29  A    between atoms: C_66  and  O_69
REMARK                            x       y       z     vdW  Elec       q    Type
REMARK                         _______ _______ _______ _____ _____    ______ ____
ROOT
ATOM      1  C   UNL     1       6.547  -5.359  27.564  0.00  0.00    +0.131 A 
ATOM      2  C   UNL     1       5.901  -4.128  27.820  0.00  0.00    +0.093 A 
ATOM      3  C   UNL     1       6.377  -2.931  27.242  0.00  0.00    +0.147 A 
ATOM      4  O   UNL     1       5.734  -1.740  27.493  0.00  0.00    -0.451 OA
ATOM      5  C   UNL     1       6.093  -0.574  26.773  0.00  0.00    +0.181 A 
ATOM      6  C   UNL     1       7.241  -0.456  26.040  0.00  0.00    +0.214 A 
ATOM      7  C   UNL     1       8.115  -1.680  26.070  0.00  0.00    +0.238 A 
ATOM      8  O   UNL     1       9.317  -1.640  25.880  0.00  0.00    -0.283 OA
ATOM      9  C   UNL     1       7.501  -2.962  26.438  0.00  0.00    +0.109 A 
ATOM     10  C   UNL     1       8.065  -4.192  26.091  0.00  0.00    +0.135 A 
ATOM     11  C   UNL     1       7.589  -5.383  26.647  0.00  0.00    +0.092 A 
ENDROOT
BRANCH   5  12
ATOM     12  C   UNL     1       5.086   0.524  26.979  0.00  0.00    +0.025 A 
ATOM     13  C   UNL     1       4.920   1.113  28.255  0.00  0.00    +0.015 A 
ATOM     14  C   UNL     1       4.096   2.232  28.451  0.00  0.00    +0.050 A 
ATOM     15  C   UNL     1       3.396   2.755  27.376  0.00  0.00    +0.158 A 
ATOM     16  C   UNL     1       3.488   2.157  26.129  0.00  0.00    +0.159 A 
ATOM     17  C   UNL     1       4.349   1.080  25.920  0.00  0.00    +0.060 A 
BRANCH  16  18
ATOM     18  O   UNL     1       2.722   2.664  25.116  0.00  0.00    -0.503 OA
ATOM     19  H   UNL     1       2.813   3.634  25.133  0.00  0.00    +0.292 HD
ENDBRANCH  16  18
BRANCH  15  20
ATOM     20  O   UNL     1       2.628   3.869  27.546  0.00  0.00    -0.503 OA
ATOM     21  H   UNL     1       1.866   3.568  28.081  0.00  0.00    +0.292 HD
ENDBRANCH  15  20
ENDBRANCH   5  12
BRANCH  10  22
ATOM     22  O   UNL     1       9.061  -4.257  25.156  0.00  0.00    -0.506 OA
ATOM     23  H   UNL     1       9.697  -3.548  25.328  0.00  0.00    +0.292 HD
ENDBRANCH  10  22
BRANCH   6  24
ATOM     24  O   UNL     1       7.581   0.704  25.310  0.00  0.00    -0.453 OA
BRANCH  24  25
ATOM     25  C   UNL     1       7.410   0.754  23.867  0.00  0.00    +0.340 C 
ATOM     26  O   UNL     1       8.287  -0.156  23.169  0.00  0.00    -0.331 OA
ATOM     27  C   UNL     1       9.658   0.242  22.950  0.00  0.00    +0.179 C 
ATOM     28  C   UNL     1       9.845   1.688  22.471  0.00  0.00    +0.177 C 
ATOM     29  C   UNL     1       9.038   2.604  23.355  0.00  0.00    +0.180 C 
ATOM     30  C   UNL     1       7.563   2.189  23.276  0.00  0.00    +0.221 C 
BRANCH  28  31
ATOM     31  O   UNL     1       9.416   1.861  21.112  0.00  0.00    -0.386 OA
ATOM     32  H   UNL     1      10.054   1.399  20.532  0.00  0.00    +0.210 HD
ENDBRANCH  28  31
BRANCH  29  33
ATOM     33  O   UNL     1       9.587   2.654  24.678  0.00  0.00    -0.386 OA
ATOM     34  H   UNL     1       9.465   1.772  25.083  0.00  0.00    +0.210 HD
ENDBRANCH  29  33
BRANCH  30  35
ATOM     35  O   UNL     1       6.670   3.178  23.828  0.00  0.00    -0.337 OA
BRANCH  35  36
ATOM     36  C   UNL     1       7.359   4.417  24.140  0.00  0.00    +0.282 C 
ATOM     37  O   UNL     1       7.590   4.611  25.533  0.00  0.00    -0.341 OA
ATOM     38  C   UNL     1       6.376   4.682  26.310  0.00  0.00    +0.178 C 
ATOM     39  C   UNL     1       5.528   5.891  25.876  0.00  0.00    +0.177 C 
ATOM     40  C   UNL     1       5.277   5.839  24.359  0.00  0.00    +0.179 C 
ATOM     41  C   UNL     1       6.593   5.636  23.588  0.00  0.00    +0.201 C 
BRANCH  41  42
ATOM     42  O   UNL     1       6.323   5.511  22.182  0.00  0.00    -0.384 OA
ATOM     43  H   UNL     1       6.907   4.808  21.837  0.00  0.00    +0.210 HD
ENDBRANCH  41  42
BRANCH  40  44
ATOM     44  O   UNL     1       4.343   4.790  24.073  0.00  0.00    -0.386 OA
ATOM     45  H   UNL     1       3.661   5.175  23.489  0.00  0.00    +0.210 HD
ENDBRANCH  40  44
BRANCH  39  46
ATOM     46  O   UNL     1       6.199   7.108  26.214  0.00  0.00    -0.386 OA
ATOM     47  H   UNL     1       7.128   6.888  26.407  0.00  0.00    +0.210 HD
ENDBRANCH  39  46
BRANCH  38  48
ATOM     48  C   UNL     1       6.758   4.727  27.803  0.00  0.00    +0.190 C 
BRANCH  48  49
ATOM     49  O   UNL     1       7.882   5.584  28.054  0.00  0.00    -0.392 OA
ATOM     50  H   UNL     1       7.749   5.994  28.929  0.00  0.00    +0.210 HD
ENDBRANCH  48  49
ENDBRANCH  38  48
ENDBRANCH  35  36
ENDBRANCH  30  35
BRANCH  27  51
ATOM     51  C   UNL     1      10.296  -0.671  21.881  0.00  0.00    +0.190 C 
BRANCH  51  52
ATOM     52  O   UNL     1       9.443  -0.894  20.763  0.00  0.00    -0.392 OA
ATOM     53  H   UNL     1       9.500  -1.830  20.517  0.00  0.00    +0.210 HD
ENDBRANCH  51  52
ENDBRANCH  27  51
ENDBRANCH  24  25
ENDBRANCH   6  24
BRANCH   1  54
ATOM     54  O   UNL     1       6.090  -6.485  28.217  0.00  0.00    -0.461 OA
BRANCH  54  57
ATOM     55  C   UNL     1       2.666  -6.245  26.779  0.00  0.00    +0.191 C 
ATOM     56  O   UNL     1       4.052  -5.953  27.071  0.00  0.00    -0.330 OA
ATOM     57  C   UNL     1       4.699  -6.860  27.989  0.00  0.00    +0.339 C 
ATOM     58  C   UNL     1       3.934  -6.829  29.341  0.00  0.00    +0.214 C 
ATOM     59  C   UNL     1       2.464  -7.217  29.097  0.00  0.00    +0.180 C 
ATOM     60  C   UNL     1       1.820  -6.280  28.066  0.00  0.00    +0.178 C 
BRANCH  58  61
ATOM     61  O   UNL     1       3.997  -5.516  29.934  0.00  0.00    -0.383 OA
ATOM     62  H   UNL     1       3.385  -4.936  29.447  0.00  0.00    +0.210 HD
ENDBRANCH  58  61
BRANCH  59  63
ATOM     63  O   UNL     1       1.699  -7.190  30.309  0.00  0.00    -0.386 OA
ATOM     64  H   UNL     1       1.140  -6.391  30.258  0.00  0.00    +0.210 HD
ENDBRANCH  59  63
BRANCH  60  65
ATOM     65  O   UNL     1       0.477  -6.714  27.824  0.00  0.00    -0.386 OA
ATOM     66  H   UNL     1       0.442  -7.084  26.921  0.00  0.00    +0.210 HD
ENDBRANCH  60  65
BRANCH  55  67
ATOM     67  C   UNL     1       2.488  -7.513  25.911  0.00  0.00    +0.266 C 
BRANCH  67  68
ATOM     68  O   UNL     1       1.425  -7.362  24.951  0.00  0.00    -0.459 OA
BRANCH  68  69
ATOM     69  C   UNL     1       1.760  -7.622  23.662  0.00  0.00    +0.332 C 
ATOM     70  O   UNL     1       1.053  -8.162  22.827  0.00  0.00    -0.246 OA
BRANCH  69  72
ATOM     71  C   UNL     1       3.272  -5.827  22.986  0.00  0.00    +0.015 C 
ATOM     72  C   UNL     1       3.114  -7.082  23.432  0.00  0.00    +0.092 C 
BRANCH  71  74
ATOM     73  C   UNL     1       5.750  -5.865  22.491  0.00  0.00    +0.012 A 
ATOM     74  C   UNL     1       4.568  -5.161  22.786  0.00  0.00    -0.021 A 
ATOM     75  C   UNL     1       4.645  -3.777  22.996  0.00  0.00    +0.057 A 
ATOM     76  C   UNL     1       5.872  -3.130  22.907  0.00  0.00    +0.159 A 
ATOM     77  C   UNL     1       7.035  -3.836  22.616  0.00  0.00    +0.158 A 
ATOM     78  C   UNL     1       6.983  -5.206  22.402  0.00  0.00    +0.050 A 
BRANCH  76  79
ATOM     79  O   UNL     1       5.927  -1.782  23.123  0.00  0.00    -0.503 OA
ATOM     80  H   UNL     1       5.640  -1.387  22.275  0.00  0.00    +0.292 HD
ENDBRANCH  76  79
BRANCH  77  81
ATOM     81  O   UNL     1       8.210  -3.140  22.569  0.00  0.00    -0.503 OA
ATOM     82  H   UNL     1       8.711  -3.334  23.381  0.00  0.00    +0.292 HD
ENDBRANCH  77  81
ENDBRANCH  71  74
ENDBRANCH  69  72
ENDBRANCH  68  69
ENDBRANCH  67  68
ENDBRANCH  55  67
ENDBRANCH  54  57
ENDBRANCH   1  54
TORSDOF 29
ENDMDL
MODEL 3
REMARK VINA RESULT:      -6.2      2.353     10.137
REMARK  Name = 
REMARK  29 active torsions:
REMARK  status: ('A' for Active; 'I' for Inactive)
REMARK    1  A    between atoms: C_3  and  O_76
REMARK    2  A    between atoms: C_4  and  O_75
REMARK    3  A    between atoms: C_6  and  C_7
REMARK    4  A    between atoms: C_8  and  C_9
REMARK    5  A    between atoms: C_9  and  O_11
REMARK    6  A    between atoms: O_11  and  C_12
REMARK    7  A    between atoms: C_12  and  C_13
REMARK    8  A    between atoms: C_14  and  O_74
REMARK    9  A    between atoms: C_16  and  O_73
REMARK   10  A    between atoms: C_18  and  O_72
REMARK   11  A    between atoms: C_19  and  O_22
REMARK   12  A    between atoms: O_22  and  C_23
REMARK   13  A    between atoms: C_25  and  O_71
REMARK   14  A    between atoms: C_30  and  C_63
REMARK   15  A    between atoms: C_31  and  O_34
REMARK   16  A    between atoms: O_34  and  C_35
REMARK   17  A    between atoms: C_37  and  O_48
REMARK   18  A    between atoms: C_38  and  O_47
REMARK   19  A    between atoms: C_40  and  O_46
REMARK   20  A    between atoms: C_42  and  C_44
REMARK   21  A    between atoms: C_44  and  O_45
REMARK   22  A    between atoms: O_48  and  C_49
REMARK   23  A    between atoms: C_51  and  O_62
REMARK   24  A    between atoms: C_52  and  O_61
REMARK   25  A    between atoms: C_54  and  O_60
REMARK   26  A    between atoms: C_56  and  C_58
REMARK   27  A    between atoms: C_58  and  O_59
REMARK   28  A    between atoms: C_65  and  O_70
REMARK   29  A    between atoms: C_66  and  O_69
REMARK                            x       y       z     vdW  Elec       q    Type
REMARK                         _______ _______ _______ _____ _____    ______ ____
ROOT
ATOM      1  C   UNL     1       7.805  -1.078  22.907  0.00  0.00    +0.131 A 
ATOM      2  C   UNL     1       6.800  -0.874  23.882  0.00  0.00    +0.093 A 
ATOM      3  C   UNL     1       5.801  -1.847  24.099  0.00  0.00    +0.147 A 
ATOM      4  O   UNL     1       4.834  -1.640  25.056  0.00  0.00    -0.451 OA
ATOM      5  C   UNL     1       3.945  -2.687  25.406  0.00  0.00    +0.181 A 
ATOM      6  C   UNL     1       3.771  -3.818  24.658  0.00  0.00    +0.214 A 
ATOM      7  C   UNL     1       4.604  -3.858  23.406  0.00  0.00    +0.238 A 
ATOM      8  O   UNL     1       4.292  -4.509  22.424  0.00  0.00    -0.283 OA
ATOM      9  C   UNL     1       5.791  -2.999  23.335  0.00  0.00    +0.109 A 
ATOM     10  C   UNL     1       6.850  -3.251  22.459  0.00  0.00    +0.135 A 
ATOM     11  C   UNL     1       7.852  -2.299  22.249  0.00  0.00    +0.092 A 
ENDROOT
BRANCH   5  12
ATOM     12  C   UNL     1       3.179  -2.356  26.657  0.00  0.00    +0.025 A 
ATOM     13  C   UNL     1       1.766  -2.422  26.671  0.00  0.00    +0.015 A 
ATOM     14  C   UNL     1       1.030  -2.260  27.855  0.00  0.00    +0.050 A 
ATOM     15  C   UNL     1       1.698  -1.990  29.037  0.00  0.00    +0.158 A 
ATOM     16  C   UNL     1       3.078  -1.852  29.040  0.00  0.00    +0.159 A 
ATOM     17  C   UNL     1       3.815  -2.069  27.877  0.00  0.00    +0.060 A 
BRANCH  16  18
ATOM     18  O   UNL     1       3.686  -1.513  30.217  0.00  0.00    -0.503 OA
ATOM     19  H   UNL     1       2.989  -1.252  30.846  0.00  0.00    +0.292 HD
ENDBRANCH  16  18
BRANCH  15  20
ATOM     20  O   UNL     1       0.996  -1.875  30.201  0.00  0.00    -0.503 OA
ATOM     21  H   UNL     1       0.110  -1.560  29.928  0.00  0.00    +0.292 HD
ENDBRANCH  15  20
ENDBRANCH   5  12
BRANCH  10  22
ATOM     22  O   UNL     1       6.954  -4.461  21.830  0.00  0.00    -0.506 OA
ATOM     23  H   UNL     1       6.527  -4.401  20.964  0.00  0.00    +0.292 HD
ENDBRANCH  10  22
BRANCH   6  24
ATOM     24  O   UNL     1       2.897  -4.865  25.024  0.00  0.00    -0.453 OA
BRANCH  24  25
ATOM     25  C   UNL     1       3.113  -6.219  24.543  0.00  0.00    +0.340 C 
ATOM     26  O   UNL     1       2.493  -6.462  23.261  0.00  0.00    -0.331 OA
ATOM     27  C   UNL     1       1.078  -6.749  23.224  0.00  0.00    +0.179 C 
ATOM     28  C   UNL     1       0.591  -7.745  24.286  0.00  0.00    +0.177 C 
ATOM     29  C   UNL     1       1.133  -7.330  25.630  0.00  0.00    +0.180 C 
ATOM     30  C   UNL     1       2.666  -7.315  25.557  0.00  0.00    +0.221 C 
BRANCH  28  31
ATOM     31  O   UNL     1       1.027  -9.083  24.005  0.00  0.00    -0.386 OA
ATOM     32  H   UNL     1       0.289  -9.692  24.211  0.00  0.00    +0.210 HD
ENDBRANCH  28  31
BRANCH  29  33
ATOM     33  O   UNL     1       0.532  -6.106  26.069  0.00  0.00    -0.386 OA
ATOM     34  H   UNL     1      -0.349  -6.041  25.649  0.00  0.00    +0.210 HD
ENDBRANCH  29  33
BRANCH  30  35
ATOM     35  O   UNL     1       3.290  -7.239  26.857  0.00  0.00    -0.337 OA
BRANCH  35  36
ATOM     36  C   UNL     1       3.522  -5.867  27.266  0.00  0.00    +0.282 C 
ATOM     37  O   UNL     1       4.895  -5.485  27.243  0.00  0.00    -0.341 OA
ATOM     38  C   UNL     1       5.721  -6.260  28.136  0.00  0.00    +0.178 C 
ATOM     39  C   UNL     1       5.277  -6.054  29.596  0.00  0.00    +0.177 C 
ATOM     40  C   UNL     1       3.776  -6.359  29.736  0.00  0.00    +0.179 C 
ATOM     41  C   UNL     1       2.957  -5.602  28.677  0.00  0.00    +0.201 C 
BRANCH  41  42
ATOM     42  O   UNL     1       1.570  -5.964  28.777  0.00  0.00    -0.384 OA
ATOM     43  H   UNL     1       1.079  -5.160  29.035  0.00  0.00    +0.210 HD
ENDBRANCH  41  42
BRANCH  40  44
ATOM     44  O   UNL     1       3.572  -7.774  29.633  0.00  0.00    -0.386 OA
ATOM     45  H   UNL     1       3.057  -8.041  30.419  0.00  0.00    +0.210 HD
ENDBRANCH  40  44
BRANCH  39  46
ATOM     46  O   UNL     1       5.538  -4.708  30.002  0.00  0.00    -0.386 OA
ATOM     47  H   UNL     1       5.892  -4.230  29.232  0.00  0.00    +0.210 HD
ENDBRANCH  39  46
BRANCH  38  48
ATOM     48  C   UNL     1       7.193  -5.868  27.900  0.00  0.00    +0.190 C 
BRANCH  48  49
ATOM     49  O   UNL     1       7.334  -4.502  27.478  0.00  0.00    -0.392 OA
ATOM     50  H   UNL     1       7.465  -3.960  28.279  0.00  0.00    +0.210 HD
ENDBRANCH  48  49
ENDBRANCH  38  48
ENDBRANCH  35  36
ENDBRANCH  30  35
BRANCH  27  51
ATOM     51  C   UNL     1       0.708  -7.344  21.849  0.00  0.00    +0.190 C 
BRANCH  51  52
ATOM     52  O   UNL     1       1.598  -8.375  21.432  0.00  0.00    -0.392 OA
ATOM     53  H   UNL     1       1.124  -9.219  21.463  0.00  0.00    +0.210 HD
ENDBRANCH  51  52
ENDBRANCH  27  51
ENDBRANCH  24  25
ENDBRANCH   6  24
BRANCH   1  54
ATOM     54  O   UNL     1       8.709  -0.061  22.678  0.00  0.00    -0.461 OA
BRANCH  54  57
ATOM     55  C   UNL     1       6.768   3.089  22.281  0.00  0.00    +0.191 C 
ATOM     56  O   UNL     1       7.270   1.752  22.053  0.00  0.00    -0.330 OA
ATOM     57  C   UNL     1       8.269   1.295  22.989  0.00  0.00    +0.339 C 
ATOM     58  C   UNL     1       9.489   2.255  22.922  0.00  0.00    +0.214 C 
ATOM     59  C   UNL     1       9.021   3.686  23.242  0.00  0.00    +0.180 C 
ATOM     60  C   UNL     1       7.911   4.122  22.277  0.00  0.00    +0.178 C 
BRANCH  58  61
ATOM     61  O   UNL     1      10.094   2.223  21.613  0.00  0.00    -0.383 OA
ATOM     62  H   UNL     1       9.822   1.396  21.176  0.00  0.00    +0.210 HD
ENDBRANCH  58  61
BRANCH  59  63
ATOM     63  O   UNL     1      10.102   4.626  23.180  0.00  0.00    -0.386 OA
ATOM     64  H   UNL     1      10.485   4.657  24.078  0.00  0.00    +0.210 HD
ENDBRANCH  59  63
BRANCH  60  65
ATOM     65  O   UNL     1       7.463   5.431  22.649  0.00  0.00    -0.386 OA
ATOM     66  H   UNL     1       6.712   5.664  22.071  0.00  0.00    +0.210 HD
ENDBRANCH  60  65
BRANCH  55  67
ATOM     67  C   UNL     1       5.874   3.190  23.540  0.00  0.00    +0.266 C 
BRANCH  67  68
ATOM     68  O   UNL     1       4.488   2.945  23.236  0.00  0.00    -0.459 OA
BRANCH  68  69
ATOM     69  C   UNL     1       3.669   2.806  24.309  0.00  0.00    +0.332 C 
ATOM     70  O   UNL     1       2.454   2.705  24.282  0.00  0.00    -0.246 OA
BRANCH  69  72
ATOM     71  C   UNL     1       4.639   1.587  26.190  0.00  0.00    +0.015 C 
ATOM     72  C   UNL     1       4.518   2.739  25.515  0.00  0.00    +0.092 C 
BRANCH  71  74
ATOM     73  C   UNL     1       5.221   1.932  28.625  0.00  0.00    +0.012 A 
ATOM     74  C   UNL     1       5.506   1.384  27.361  0.00  0.00    -0.021 A 
ATOM     75  C   UNL     1       6.716   0.699  27.183  0.00  0.00    +0.057 A 
ATOM     76  C   UNL     1       7.603   0.570  28.246  0.00  0.00    +0.159 A 
ATOM     77  C   UNL     1       7.311   1.117  29.491  0.00  0.00    +0.158 A 
ATOM     78  C   UNL     1       6.119   1.797  29.692  0.00  0.00    +0.050 A 
BRANCH  76  79
ATOM     79  O   UNL     1       8.780  -0.094  28.050  0.00  0.00    -0.503 OA
ATOM     80  H   UNL     1       9.377   0.256  28.741  0.00  0.00    +0.292 HD
ENDBRANCH  76  79
BRANCH  77  81
ATOM     81  O   UNL     1       8.239   0.975  30.485  0.00  0.00    -0.503 OA
ATOM     82  H   UNL     1       8.423   0.025  30.595  0.00  0.00    +0.292 HD
ENDBRANCH  77  81
ENDBRANCH  71  74
ENDBRANCH  69  72
ENDBRANCH  68  69
ENDBRANCH  67  68
ENDBRANCH  55  67
ENDBRANCH  54  57
ENDBRANCH   1  54
TORSDOF 29
ENDMDL
MODEL 4
REMARK VINA RESULT:      -5.9      1.647      3.408
REMARK  Name = 
REMARK  29 active torsions:
REMARK  status: ('A' for Active; 'I' for Inactive)
REMARK    1  A    between atoms: C_3  and  O_76
REMARK    2  A    between atoms: C_4  and  O_75
REMARK    3  A    between atoms: C_6  and  C_7
REMARK    4  A    between atoms: C_8  and  C_9
REMARK    5  A    between atoms: C_9  and  O_11
REMARK    6  A    between atoms: O_11  and  C_12
REMARK    7  A    between atoms: C_12  and  C_13
REMARK    8  A    between atoms: C_14  and  O_74
REMARK    9  A    between atoms: C_16  and  O_73
REMARK   10  A    between atoms: C_18  and  O_72
REMARK   11  A    between atoms: C_19  and  O_22
REMARK   12  A    between atoms: O_22  and  C_23
REMARK   13  A    between atoms: C_25  and  O_71
REMARK   14  A    between atoms: C_30  and  C_63
REMARK   15  A    between atoms: C_31  and  O_34
REMARK   16  A    between atoms: O_34  and  C_35
REMARK   17  A    between atoms: C_37  and  O_48
REMARK   18  A    between atoms: C_38  and  O_47
REMARK   19  A    between atoms: C_40  and  O_46
REMARK   20  A    between atoms: C_42  and  C_44
REMARK   21  A    between atoms: C_44  and  O_45
REMARK   22  A    between atoms: O_48  and  C_49
REMARK   23  A    between atoms: C_51  and  O_62
REMARK   24  A    between atoms: C_52  and  O_61
REMARK   25  A    between atoms: C_54  and  O_60
REMARK   26  A    between atoms: C_56  and  C_58
REMARK   27  A    between atoms: C_58  and  O_59
REMARK   28  A    between atoms: C_65  and  O_70
REMARK   29  A    between atoms: C_66  and  O_69
REMARK                            x       y       z     vdW  Elec       q    Type
REMARK                         _______ _______ _______ _____ _____    ______ ____
ROOT
ATOM      1  C   UNL     1       6.244  -3.599  26.999  0.00  0.00    +0.131 A 
ATOM      2  C   UNL     1       5.577  -2.424  27.418  0.00  0.00    +0.093 A 
ATOM      3  C   UNL     1       6.126  -1.151  27.148  0.00  0.00    +0.147 A 
ATOM      4  O   UNL     1       5.463  -0.015  27.554  0.00  0.00    -0.451 OA
ATOM      5  C   UNL     1       5.910   1.258  27.127  0.00  0.00    +0.181 A 
ATOM      6  C   UNL     1       7.138   1.486  26.570  0.00  0.00    +0.214 A 
ATOM      7  C   UNL     1       7.996   0.255  26.457  0.00  0.00    +0.238 A 
ATOM      8  O   UNL     1       9.213   0.298  26.420  0.00  0.00    -0.283 OA
ATOM      9  C   UNL     1       7.337  -1.055  26.489  0.00  0.00    +0.109 A 
ATOM     10  C   UNL     1       7.932  -2.209  25.973  0.00  0.00    +0.135 A 
ATOM     11  C   UNL     1       7.387  -3.472  26.222  0.00  0.00    +0.092 A 
ENDROOT
BRANCH   5  12
ATOM     12  C   UNL     1       4.892   2.323  27.429  0.00  0.00    +0.025 A 
ATOM     13  C   UNL     1       3.512   2.063  27.261  0.00  0.00    +0.015 A 
ATOM     14  C   UNL     1       2.531   2.981  27.668  0.00  0.00    +0.050 A 
ATOM     15  C   UNL     1       2.922   4.192  28.216  0.00  0.00    +0.158 A 
ATOM     16  C   UNL     1       4.269   4.501  28.330  0.00  0.00    +0.159 A 
ATOM     17  C   UNL     1       5.243   3.568  27.979  0.00  0.00    +0.060 A 
BRANCH  16  18
ATOM     18  O   UNL     1       4.605   5.737  28.809  0.00  0.00    -0.503 OA
ATOM     19  H   UNL     1       5.572   5.754  28.931  0.00  0.00    +0.292 HD
ENDBRANCH  16  18
BRANCH  15  20
ATOM     20  O   UNL     1       1.978   5.072  28.656  0.00  0.00    -0.503 OA
ATOM     21  H   UNL     1       2.246   5.935  28.281  0.00  0.00    +0.292 HD
ENDBRANCH  15  20
ENDBRANCH   5  12
BRANCH  10  22
ATOM     22  O   UNL     1       9.032  -2.117  25.165  0.00  0.00    -0.506 OA
ATOM     23  H   UNL     1       8.978  -1.295  24.658  0.00  0.00    +0.292 HD
ENDBRANCH  10  22
BRANCH   6  24
ATOM     24  O   UNL     1       7.569   2.756  26.129  0.00  0.00    -0.453 OA
BRANCH  24  25
ATOM     25  C   UNL     1       7.687   3.053  24.711  0.00  0.00    +0.340 C 
ATOM     26  O   UNL     1       9.054   3.014  24.245  0.00  0.00    -0.331 OA
ATOM     27  C   UNL     1       9.895   4.163  24.485  0.00  0.00    +0.179 C 
ATOM     28  C   UNL     1       9.238   5.520  24.197  0.00  0.00    +0.177 C 
ATOM     29  C   UNL     1       7.885   5.558  24.862  0.00  0.00    +0.180 C 
ATOM     30  C   UNL     1       7.033   4.409  24.306  0.00  0.00    +0.221 C 
BRANCH  28  31
ATOM     31  O   UNL     1       9.067   5.745  22.790  0.00  0.00    -0.386 OA
ATOM     32  H   UNL     1       9.601   5.080  22.310  0.00  0.00    +0.210 HD
ENDBRANCH  28  31
BRANCH  29  33
ATOM     33  O   UNL     1       8.016   5.585  26.288  0.00  0.00    -0.386 OA
ATOM     34  H   UNL     1       7.759   4.704  26.627  0.00  0.00    +0.210 HD
ENDBRANCH  29  33
BRANCH  30  35
ATOM     35  O   UNL     1       5.633   4.537  24.635  0.00  0.00    -0.337 OA
BRANCH  35  36
ATOM     36  C   UNL     1       4.909   5.295  23.632  0.00  0.00    +0.282 C 
ATOM     37  O   UNL     1       3.707   5.889  24.118  0.00  0.00    -0.341 OA
ATOM     38  C   UNL     1       2.743   4.926  24.591  0.00  0.00    +0.178 C 
ATOM     39  C   UNL     1       2.294   4.003  23.444  0.00  0.00    +0.177 C 
ATOM     40  C   UNL     1       3.521   3.358  22.777  0.00  0.00    +0.179 C 
ATOM     41  C   UNL     1       4.570   4.421  22.407  0.00  0.00    +0.201 C 
BRANCH  41  42
ATOM     42  O   UNL     1       5.739   3.787  21.860  0.00  0.00    -0.384 OA
ATOM     43  H   UNL     1       5.988   3.065  22.469  0.00  0.00    +0.210 HD
ENDBRANCH  41  42
BRANCH  40  44
ATOM     44  O   UNL     1       4.072   2.373  23.660  0.00  0.00    -0.386 OA
ATOM     45  H   UNL     1       3.498   1.586  23.594  0.00  0.00    +0.210 HD
ENDBRANCH  40  44
BRANCH  39  46
ATOM     46  O   UNL     1       1.554   4.751  22.474  0.00  0.00    -0.386 OA
ATOM     47  H   UNL     1       1.794   5.689  22.579  0.00  0.00    +0.210 HD
ENDBRANCH  39  46
BRANCH  38  48
ATOM     48  C   UNL     1       1.570   5.691  25.235  0.00  0.00    +0.190 C 
BRANCH  48  49
ATOM     49  O   UNL     1       1.199   6.857  24.484  0.00  0.00    -0.392 OA
ATOM     50  H   UNL     1       2.007   7.201  24.059  0.00  0.00    +0.210 HD
ENDBRANCH  48  49
ENDBRANCH  38  48
ENDBRANCH  35  36
ENDBRANCH  30  35
BRANCH  27  51
ATOM     51  C   UNL     1      11.152   4.077  23.593  0.00  0.00    +0.190 C 
BRANCH  51  52
ATOM     52  O   UNL     1      11.877   5.301  23.535  0.00  0.00    -0.392 OA
ATOM     53  H   UNL     1      11.428   5.949  24.099  0.00  0.00    +0.210 HD
ENDBRANCH  51  52
ENDBRANCH  27  51
ENDBRANCH  24  25
ENDBRANCH   6  24
BRANCH   1  54
ATOM     54  O   UNL     1       5.707  -4.818  27.358  0.00  0.00    -0.461 OA
BRANCH  54  57
ATOM     55  C   UNL     1       3.689  -5.389  24.283  0.00  0.00    +0.191 C 
ATOM     56  O   UNL     1       4.370  -4.720  25.369  0.00  0.00    -0.330 OA
ATOM     57  C   UNL     1       5.049  -5.585  26.304  0.00  0.00    +0.339 C 
ATOM     58  C   UNL     1       4.005  -6.541  26.945  0.00  0.00    +0.214 C 
ATOM     59  C   UNL     1       3.308  -7.343  25.831  0.00  0.00    +0.180 C 
ATOM     60  C   UNL     1       2.653  -6.400  24.812  0.00  0.00    +0.178 C 
BRANCH  58  61
ATOM     61  O   UNL     1       3.024  -5.798  27.696  0.00  0.00    -0.383 OA
ATOM     62  H   UNL     1       3.433  -4.961  27.980  0.00  0.00    +0.210 HD
ENDBRANCH  58  61
BRANCH  59  63
ATOM     63  O   UNL     1       2.317  -8.235  26.358  0.00  0.00    -0.386 OA
ATOM     64  H   UNL     1       2.769  -8.767  27.042  0.00  0.00    +0.210 HD
ENDBRANCH  59  63
BRANCH  60  65
ATOM     65  O   UNL     1       2.072  -7.184  23.764  0.00  0.00    -0.386 OA
ATOM     66  H   UNL     1       2.449  -6.875  22.918  0.00  0.00    +0.210 HD
ENDBRANCH  60  65
BRANCH  55  67
ATOM     67  C   UNL     1       4.663  -6.013  23.255  0.00  0.00    +0.266 C 
BRANCH  67  68
ATOM     68  O   UNL     1       6.021  -5.587  23.473  0.00  0.00    -0.459 OA
BRANCH  68  69
ATOM     69  C   UNL     1       6.785  -5.476  22.356  0.00  0.00    +0.332 C 
ATOM     70  O   UNL     1       7.254  -6.397  21.709  0.00  0.00    -0.246 OA
BRANCH  69  72
ATOM     71  C   UNL     1       7.945  -3.331  22.476  0.00  0.00    +0.015 C 
ATOM     72  C   UNL     1       6.899  -4.041  22.031  0.00  0.00    +0.092 C 
BRANCH  71  74
ATOM     73  C   UNL     1       9.439  -1.452  21.684  0.00  0.00    +0.012 A 
ATOM     74  C   UNL     1       8.199  -1.916  22.160  0.00  0.00    -0.021 A 
ATOM     75  C   UNL     1       7.193  -0.981  22.438  0.00  0.00    +0.057 A 
ATOM     76  C   UNL     1       7.433   0.375  22.239  0.00  0.00    +0.159 A 
ATOM     77  C   UNL     1       8.663   0.822  21.770  0.00  0.00    +0.158 A 
ATOM     78  C   UNL     1       9.672  -0.085  21.485  0.00  0.00    +0.050 A 
BRANCH  76  79
ATOM     79  O   UNL     1       6.441   1.271  22.523  0.00  0.00    -0.503 OA
ATOM     80  H   UNL     1       6.232   1.113  23.466  0.00  0.00    +0.292 HD
ENDBRANCH  76  79
BRANCH  77  81
ATOM     81  O   UNL     1       8.838   2.169  21.621  0.00  0.00    -0.503 OA
ATOM     82  H   UNL     1       8.055   2.620  21.984  0.00  0.00    +0.292 HD
ENDBRANCH  77  81
ENDBRANCH  71  74
ENDBRANCH  69  72
ENDBRANCH  68  69
ENDBRANCH  67  68
ENDBRANCH  55  67
ENDBRANCH  54  57
ENDBRANCH   1  54
TORSDOF 29
ENDMDL
MODEL 5
REMARK VINA RESULT:      -5.8      1.809      2.860
REMARK  Name = 
REMARK  29 active torsions:
REMARK  status: ('A' for Active; 'I' for Inactive)
REMARK    1  A    between atoms: C_3  and  O_76
REMARK    2  A    between atoms: C_4  and  O_75
REMARK    3  A    between atoms: C_6  and  C_7
REMARK    4  A    between atoms: C_8  and  C_9
REMARK    5  A    between atoms: C_9  and  O_11
REMARK    6  A    between atoms: O_11  and  C_12
REMARK    7  A    between atoms: C_12  and  C_13
REMARK    8  A    between atoms: C_14  and  O_74
REMARK    9  A    between atoms: C_16  and  O_73
REMARK   10  A    between atoms: C_18  and  O_72
REMARK   11  A    between atoms: C_19  and  O_22
REMARK   12  A    between atoms: O_22  and  C_23
REMARK   13  A    between atoms: C_25  and  O_71
REMARK   14  A    between atoms: C_30  and  C_63
REMARK   15  A    between atoms: C_31  and  O_34
REMARK   16  A    between atoms: O_34  and  C_35
REMARK   17  A    between atoms: C_37  and  O_48
REMARK   18  A    between atoms: C_38  and  O_47
REMARK   19  A    between atoms: C_40  and  O_46
REMARK   20  A    between atoms: C_42  and  C_44
REMARK   21  A    between atoms: C_44  and  O_45
REMARK   22  A    between atoms: O_48  and  C_49
REMARK   23  A    between atoms: C_51  and  O_62
REMARK   24  A    between atoms: C_52  and  O_61
REMARK   25  A    between atoms: C_54  and  O_60
REMARK   26  A    between atoms: C_56  and  C_58
REMARK   27  A    between atoms: C_58  and  O_59
REMARK   28  A    between atoms: C_65  and  O_70
REMARK   29  A    between atoms: C_66  and  O_69
REMARK                            x       y       z     vdW  Elec       q    Type
REMARK                         _______ _______ _______ _____ _____    ______ ____
ROOT
ATOM      1  C   UNL     1       3.530  -5.198  24.050  0.00  0.00    +0.131 A 
ATOM      2  C   UNL     1       3.617  -4.232  25.080  0.00  0.00    +0.093 A 
ATOM      3  C   UNL     1       4.421  -3.082  24.921  0.00  0.00    +0.147 A 
ATOM      4  O   UNL     1       4.490  -2.146  25.928  0.00  0.00    -0.451 OA
ATOM      5  C   UNL     1       5.142  -0.909  25.703  0.00  0.00    +0.181 A 
ATOM      6  C   UNL     1       5.977  -0.671  24.647  0.00  0.00    +0.214 A 
ATOM      7  C   UNL     1       6.161  -1.852  23.733  0.00  0.00    +0.238 A 
ATOM      8  O   UNL     1       7.149  -2.002  23.037  0.00  0.00    -0.283 OA
ATOM      9  C   UNL     1       5.147  -2.912  23.758  0.00  0.00    +0.109 A 
ATOM     10  C   UNL     1       4.967  -3.804  22.698  0.00  0.00    +0.135 A 
ATOM     11  C   UNL     1       4.160  -4.937  22.841  0.00  0.00    +0.092 A 
ENDROOT
BRANCH   5  12
ATOM     12  C   UNL     1       4.850   0.069  26.808  0.00  0.00    +0.025 A 
ATOM     13  C   UNL     1       5.845   0.394  27.759  0.00  0.00    +0.015 A 
ATOM     14  C   UNL     1       5.654   1.405  28.713  0.00  0.00    +0.050 A 
ATOM     15  C   UNL     1       4.446   2.081  28.752  0.00  0.00    +0.158 A 
ATOM     16  C   UNL     1       3.429   1.737  27.875  0.00  0.00    +0.159 A 
ATOM     17  C   UNL     1       3.636   0.772  26.891  0.00  0.00    +0.060 A 
BRANCH  16  18
ATOM     18  O   UNL     1       2.229   2.381  28.000  0.00  0.00    -0.503 OA
ATOM     19  H   UNL     1       2.382   3.328  27.826  0.00  0.00    +0.292 HD
ENDBRANCH  16  18
BRANCH  15  20
ATOM     20  O   UNL     1       4.266   3.095  29.646  0.00  0.00    -0.503 OA
ATOM     21  H   UNL     1       3.801   3.793  29.141  0.00  0.00    +0.292 HD
ENDBRANCH  15  20
ENDBRANCH   5  12
BRANCH  10  22
ATOM     22  O   UNL     1       5.535  -3.554  21.480  0.00  0.00    -0.506 OA
ATOM     23  H   UNL     1       5.213  -4.209  20.845  0.00  0.00    +0.292 HD
ENDBRANCH  10  22
BRANCH   6  24
ATOM     24  O   UNL     1       6.608   0.572  24.420  0.00  0.00    -0.453 OA
BRANCH  24  25
ATOM     25  C   UNL     1       6.951   1.000  23.074  0.00  0.00    +0.340 C 
ATOM     26  O   UNL     1       7.904   0.121  22.435  0.00  0.00    -0.331 OA
ATOM     27  C   UNL     1       9.302   0.268  22.764  0.00  0.00    +0.179 C 
ATOM     28  C   UNL     1       9.809   1.716  22.808  0.00  0.00    +0.177 C 
ATOM     29  C   UNL     1       8.859   2.541  23.639  0.00  0.00    +0.180 C 
ATOM     30  C   UNL     1       7.464   2.470  23.003  0.00  0.00    +0.221 C 
BRANCH  28  31
ATOM     31  O   UNL     1       9.897   2.293  21.497  0.00  0.00    -0.386 OA
ATOM     32  H   UNL     1      10.780   2.705  21.406  0.00  0.00    +0.210 HD
ENDBRANCH  28  31
BRANCH  29  33
ATOM     33  O   UNL     1       8.921   2.160  25.018  0.00  0.00    -0.386 OA
ATOM     34  H   UNL     1       8.865   2.976  25.554  0.00  0.00    +0.210 HD
ENDBRANCH  29  33
BRANCH  30  35
ATOM     35  O   UNL     1       6.556   3.462  23.528  0.00  0.00    -0.337 OA
BRANCH  35  36
ATOM     36  C   UNL     1       5.626   2.893  24.484  0.00  0.00    +0.282 C 
ATOM     37  O   UNL     1       4.286   2.814  24.006  0.00  0.00    -0.341 OA
ATOM     38  C   UNL     1       3.715   4.101  23.687  0.00  0.00    +0.178 C 
ATOM     39  C   UNL     1       3.635   4.983  24.946  0.00  0.00    +0.177 C 
ATOM     40  C   UNL     1       5.020   5.079  25.609  0.00  0.00    +0.179 C 
ATOM     41  C   UNL     1       5.634   3.682  25.810  0.00  0.00    +0.201 C 
BRANCH  41  42
ATOM     42  O   UNL     1       6.959   3.802  26.355  0.00  0.00    -0.384 OA
ATOM     43  H   UNL     1       7.201   4.747  26.320  0.00  0.00    +0.210 HD
ENDBRANCH  41  42
BRANCH  40  44
ATOM     44  O   UNL     1       5.870   5.906  24.804  0.00  0.00    -0.386 OA
ATOM     45  H   UNL     1       5.441   6.782  24.753  0.00  0.00    +0.210 HD
ENDBRANCH  40  44
BRANCH  39  46
ATOM     46  O   UNL     1       2.694   4.432  25.872  0.00  0.00    -0.386 OA
ATOM     47  H   UNL     1       2.526   3.510  25.608  0.00  0.00    +0.210 HD
ENDBRANCH  39  46
BRANCH  38  48
ATOM     48  C   UNL     1       2.339   3.872  23.031  0.00  0.00    +0.190 C 
BRANCH  48  49
ATOM     49  O   UNL     1       2.267   2.619  22.335  0.00  0.00    -0.392 OA
ATOM     50  H   UNL     1       1.779   2.772  21.504  0.00  0.00    +0.210 HD
ENDBRANCH  48  49
ENDBRANCH  38  48
ENDBRANCH  35  36
ENDBRANCH  30  35
BRANCH  27  51
ATOM     51  C   UNL     1      10.159  -0.474  21.715  0.00  0.00    +0.190 C 
BRANCH  51  52
ATOM     52  O   UNL     1      10.091  -1.890  21.845  0.00  0.00    -0.392 OA
ATOM     53  H   UNL     1      10.488  -2.139  22.693  0.00  0.00    +0.210 HD
ENDBRANCH  51  52
ENDBRANCH  27  51
ENDBRANCH  24  25
ENDBRANCH   6  24
BRANCH   1  54
ATOM     54  O   UNL     1       2.795  -6.342  24.287  0.00  0.00    -0.461 OA
BRANCH  54  57
ATOM     55  C   UNL     1       3.009  -6.707  27.984  0.00  0.00    +0.191 C 
ATOM     56  O   UNL     1       3.392  -6.518  26.602  0.00  0.00    -0.330 OA
ATOM     57  C   UNL     1       2.310  -6.543  25.648  0.00  0.00    +0.339 C 
ATOM     58  C   UNL     1       1.600  -7.923  25.737  0.00  0.00    +0.214 C 
ATOM     59  C   UNL     1       1.095  -8.136  27.176  0.00  0.00    +0.180 C 
ATOM     60  C   UNL     1       2.254  -8.036  28.178  0.00  0.00    +0.178 C 
BRANCH  58  61
ATOM     61  O   UNL     1       2.503  -8.987  25.376  0.00  0.00    -0.383 OA
ATOM     62  H   UNL     1       3.010  -8.699  24.596  0.00  0.00    +0.210 HD
ENDBRANCH  58  61
BRANCH  59  63
ATOM     63  O   UNL     1       0.443  -9.404  27.328  0.00  0.00    -0.386 OA
ATOM     64  H   UNL     1      -0.444  -9.300  26.933  0.00  0.00    +0.210 HD
ENDBRANCH  59  63
BRANCH  60  65
ATOM     65  O   UNL     1       1.732  -8.178  29.503  0.00  0.00    -0.386 OA
ATOM     66  H   UNL     1       2.186  -8.934  29.922  0.00  0.00    +0.210 HD
ENDBRANCH  60  65
BRANCH  55  67
ATOM     67  C   UNL     1       2.246  -5.495  28.568  0.00  0.00    +0.266 C 
BRANCH  67  68
ATOM     68  O   UNL     1       3.135  -4.416  28.917  0.00  0.00    -0.459 OA
BRANCH  68  69
ATOM     69  C   UNL     1       4.373  -4.790  29.328  0.00  0.00    +0.332 C 
ATOM     70  O   UNL     1       4.632  -5.487  30.295  0.00  0.00    -0.246 OA
BRANCH  69  72
ATOM     71  C   UNL     1       6.250  -5.061  27.790  0.00  0.00    +0.015 C 
ATOM     72  C   UNL     1       5.349  -4.249  28.363  0.00  0.00    +0.092 C 
BRANCH  71  74
ATOM     73  C   UNL     1       7.796  -5.552  25.852  0.00  0.00    +0.012 A 
ATOM     74  C   UNL     1       7.224  -4.650  26.767  0.00  0.00    -0.021 A 
ATOM     75  C   UNL     1       7.672  -3.321  26.770  0.00  0.00    +0.057 A 
ATOM     76  C   UNL     1       8.661  -2.921  25.878  0.00  0.00    +0.159 A 
ATOM     77  C   UNL     1       9.220  -3.822  24.979  0.00  0.00    +0.158 A 
ATOM     78  C   UNL     1       8.791  -5.141  24.956  0.00  0.00    +0.050 A 
BRANCH  76  79
ATOM     79  O   UNL     1       9.089  -1.624  25.903  0.00  0.00    -0.503 OA
ATOM     80  H   UNL     1       9.886  -1.619  25.336  0.00  0.00    +0.292 HD
ENDBRANCH  76  79
BRANCH  77  81
ATOM     81  O   UNL     1      10.205  -3.368  24.148  0.00  0.00    -0.503 OA
ATOM     82  H   UNL     1      10.958  -3.982  24.203  0.00  0.00    +0.292 HD
ENDBRANCH  77  81
ENDBRANCH  71  74
ENDBRANCH  69  72
ENDBRANCH  68  69
ENDBRANCH  67  68
ENDBRANCH  55  67
ENDBRANCH  54  57
ENDBRANCH   1  54
TORSDOF 29
ENDMDL
MODEL 6
REMARK VINA RESULT:      -5.6      1.665      3.812
REMARK  Name = 
REMARK  29 active torsions:
REMARK  status: ('A' for Active; 'I' for Inactive)
REMARK    1  A    between atoms: C_3  and  O_76
REMARK    2  A    between atoms: C_4  and  O_75
REMARK    3  A    between atoms: C_6  and  C_7
REMARK    4  A    between atoms: C_8  and  C_9
REMARK    5  A    between atoms: C_9  and  O_11
REMARK    6  A    between atoms: O_11  and  C_12
REMARK    7  A    between atoms: C_12  and  C_13
REMARK    8  A    between atoms: C_14  and  O_74
REMARK    9  A    between atoms: C_16  and  O_73
REMARK   10  A    between atoms: C_18  and  O_72
REMARK   11  A    between atoms: C_19  and  O_22
REMARK   12  A    between atoms: O_22  and  C_23
REMARK   13  A    between atoms: C_25  and  O_71
REMARK   14  A    between atoms: C_30  and  C_63
REMARK   15  A    between atoms: C_31  and  O_34
REMARK   16  A    between atoms: O_34  and  C_35
REMARK   17  A    between atoms: C_37  and  O_48
REMARK   18  A    between atoms: C_38  and  O_47
REMARK   19  A    between atoms: C_40  and  O_46
REMARK   20  A    between atoms: C_42  and  C_44
REMARK   21  A    between atoms: C_44  and  O_45
REMARK   22  A    between atoms: O_48  and  C_49
REMARK   23  A    between atoms: C_51  and  O_62
REMARK   24  A    between atoms: C_52  and  O_61
REMARK   25  A    between atoms: C_54  and  O_60
REMARK   26  A    between atoms: C_56  and  C_58
REMARK   27  A    between atoms: C_58  and  O_59
REMARK   28  A    between atoms: C_65  and  O_70
REMARK   29  A    between atoms: C_66  and  O_69
REMARK                            x       y       z     vdW  Elec       q    Type
REMARK                         _______ _______ _______ _____ _____    ______ ____
ROOT
ATOM      1  C   UNL     1       7.140  -4.204  26.390  0.00  0.00    +0.131 A 
ATOM      2  C   UNL     1       6.298  -3.251  27.010  0.00  0.00    +0.093 A 
ATOM      3  C   UNL     1       6.629  -1.879  26.991  0.00  0.00    +0.147 A 
ATOM      4  O   UNL     1       5.798  -0.961  27.592  0.00  0.00    -0.451 OA
ATOM      5  C   UNL     1       6.027   0.426  27.416  0.00  0.00    +0.181 A 
ATOM      6  C   UNL     1       7.193   0.948  26.932  0.00  0.00    +0.214 A 
ATOM      7  C   UNL     1       8.238  -0.084  26.605  0.00  0.00    +0.238 A 
ATOM      8  O   UNL     1       9.431   0.161  26.596  0.00  0.00    -0.283 OA
ATOM      9  C   UNL     1       7.799  -1.467  26.382  0.00  0.00    +0.109 A 
ATOM     10  C   UNL     1       8.566  -2.392  25.669  0.00  0.00    +0.135 A 
ATOM     11  C   UNL     1       8.236  -3.751  25.670  0.00  0.00    +0.092 A 
ENDROOT
BRANCH   5  12
ATOM     12  C   UNL     1       4.854   1.236  27.896  0.00  0.00    +0.025 A 
ATOM     13  C   UNL     1       5.027   2.228  28.890  0.00  0.00    +0.015 A 
ATOM     14  C   UNL     1       3.988   3.097  29.256  0.00  0.00    +0.050 A 
ATOM     15  C   UNL     1       2.747   2.959  28.658  0.00  0.00    +0.158 A 
ATOM     16  C   UNL     1       2.530   1.953  27.730  0.00  0.00    +0.159 A 
ATOM     17  C   UNL     1       3.575   1.125  27.323  0.00  0.00    +0.060 A 
BRANCH  16  18
ATOM     18  O   UNL     1       1.269   1.809  27.220  0.00  0.00    -0.503 OA
ATOM     19  H   UNL     1       0.982   0.894  27.393  0.00  0.00    +0.292 HD
ENDBRANCH  16  18
BRANCH  15  20
ATOM     20  O   UNL     1       1.743   3.827  28.974  0.00  0.00    -0.503 OA
ATOM     21  H   UNL     1       1.386   4.121  28.111  0.00  0.00    +0.292 HD
ENDBRANCH  15  20
ENDBRANCH   5  12
BRANCH  10  22
ATOM     22  O   UNL     1       9.624  -1.975  24.910  0.00  0.00    -0.506 OA
ATOM     23  H   UNL     1      10.339  -1.695  25.499  0.00  0.00    +0.292 HD
ENDBRANCH  10  22
BRANCH   6  24
ATOM     24  O   UNL     1       7.406   2.331  26.742  0.00  0.00    -0.453 OA
BRANCH  24  25
ATOM     25  C   UNL     1       7.288   2.931  25.423  0.00  0.00    +0.340 C 
ATOM     26  O   UNL     1       8.570   3.225  24.826  0.00  0.00    -0.331 OA
ATOM     27  C   UNL     1       9.259   4.427  25.235  0.00  0.00    +0.179 C 
ATOM     28  C   UNL     1       8.377   5.680  25.328  0.00  0.00    +0.177 C 
ATOM     29  C   UNL     1       7.136   5.346  26.115  0.00  0.00    +0.180 C 
ATOM     30  C   UNL     1       6.394   4.208  25.402  0.00  0.00    +0.221 C 
BRANCH  28  31
ATOM     31  O   UNL     1       7.988   6.158  24.032  0.00  0.00    -0.386 OA
ATOM     32  H   UNL     1       7.764   7.107  24.113  0.00  0.00    +0.210 HD
ENDBRANCH  28  31
BRANCH  29  33
ATOM     33  O   UNL     1       7.452   5.100  27.491  0.00  0.00    -0.386 OA
ATOM     34  H   UNL     1       8.413   5.241  27.604  0.00  0.00    +0.210 HD
ENDBRANCH  29  33
BRANCH  30  35
ATOM     35  O   UNL     1       5.047   4.022  25.888  0.00  0.00    -0.337 OA
BRANCH  35  36
ATOM     36  C   UNL     1       4.184   3.433  24.882  0.00  0.00    +0.282 C 
ATOM     37  O   UNL     1       4.831   3.203  23.633  0.00  0.00    -0.341 OA
ATOM     38  C   UNL     1       5.319   4.410  23.010  0.00  0.00    +0.178 C 
ATOM     39  C   UNL     1       4.152   5.358  22.684  0.00  0.00    +0.177 C 
ATOM     40  C   UNL     1       3.319   5.621  23.950  0.00  0.00    +0.179 C 
ATOM     41  C   UNL     1       2.933   4.302  24.641  0.00  0.00    +0.201 C 
BRANCH  41  42
ATOM     42  O   UNL     1       2.225   4.576  25.862  0.00  0.00    -0.384 OA
ATOM     43  H   UNL     1       1.731   5.407  25.729  0.00  0.00    +0.210 HD
ENDBRANCH  41  42
BRANCH  40  44
ATOM     44  O   UNL     1       4.063   6.470  24.834  0.00  0.00    -0.386 OA
ATOM     45  H   UNL     1       5.000   6.391  24.574  0.00  0.00    +0.210 HD
ENDBRANCH  40  44
BRANCH  39  46
ATOM     46  O   UNL     1       3.323   4.785  21.670  0.00  0.00    -0.386 OA
ATOM     47  H   UNL     1       2.788   4.085  22.086  0.00  0.00    +0.210 HD
ENDBRANCH  39  46
BRANCH  38  48
ATOM     48  C   UNL     1       6.135   4.016  21.763  0.00  0.00    +0.190 C 
BRANCH  48  49
ATOM     49  O   UNL     1       7.550   4.129  21.976  0.00  0.00    -0.392 OA
ATOM     50  H   UNL     1       7.856   3.291  22.369  0.00  0.00    +0.210 HD
ENDBRANCH  48  49
ENDBRANCH  38  48
ENDBRANCH  35  36
ENDBRANCH  30  35
BRANCH  27  51
ATOM     51  C   UNL     1      10.383   4.745  24.226  0.00  0.00    +0.190 C 
BRANCH  51  52
ATOM     52  O   UNL     1      10.224   4.065  22.985  0.00  0.00    -0.392 OA
ATOM     53  H   UNL     1       9.900   3.170  23.166  0.00  0.00    +0.210 HD
ENDBRANCH  51  52
ENDBRANCH  27  51
ENDBRANCH  24  25
ENDBRANCH   6  24
BRANCH   1  54
ATOM     54  O   UNL     1       6.812  -5.539  26.507  0.00  0.00    -0.461 OA
BRANCH  54  57
ATOM     55  C   UNL     1       3.835  -5.279  24.289  0.00  0.00    +0.191 C 
ATOM     56  O   UNL     1       4.983  -4.912  25.089  0.00  0.00    -0.330 OA
ATOM     57  C   UNL     1       5.670  -6.008  25.729  0.00  0.00    +0.339 C 
ATOM     58  C   UNL     1       4.674  -6.736  26.673  0.00  0.00    +0.214 C 
ATOM     59  C   UNL     1       3.467  -7.223  25.851  0.00  0.00    +0.180 C 
ATOM     60  C   UNL     1       2.796  -6.049  25.125  0.00  0.00    +0.178 C 
BRANCH  58  61
ATOM     61  O   UNL     1       4.224  -5.853  27.721  0.00  0.00    -0.383 OA
ATOM     62  H   UNL     1       3.261  -5.962  27.813  0.00  0.00    +0.210 HD
ENDBRANCH  58  61
BRANCH  59  63
ATOM     63  O   UNL     1       2.499  -7.891  26.672  0.00  0.00    -0.386 OA
ATOM     64  H   UNL     1       2.813  -8.812  26.764  0.00  0.00    +0.210 HD
ENDBRANCH  59  63
BRANCH  60  65
ATOM     65  O   UNL     1       1.720  -6.555  24.327  0.00  0.00    -0.386 OA
ATOM     66  H   UNL     1       1.073  -5.834  24.208  0.00  0.00    +0.210 HD
ENDBRANCH  60  65
BRANCH  55  67
ATOM     67  C   UNL     1       4.220  -6.017  22.985  0.00  0.00    +0.266 C 
BRANCH  67  68
ATOM     68  O   UNL     1       5.640  -5.981  22.746  0.00  0.00    -0.459 OA
BRANCH  68  69
ATOM     69  C   UNL     1       6.012  -5.642  21.485  0.00  0.00    +0.332 C 
ATOM     70  O   UNL     1       6.068  -6.392  20.524  0.00  0.00    -0.246 OA
BRANCH  69  72
ATOM     71  C   UNL     1       7.302  -3.689  22.181  0.00  0.00    +0.015 C 
ATOM     72  C   UNL     1       6.282  -4.192  21.470  0.00  0.00    +0.092 C 
BRANCH  71  74
ATOM     73  C   UNL     1       8.980  -1.844  21.777  0.00  0.00    +0.012 A 
ATOM     74  C   UNL     1       7.706  -2.275  22.189  0.00  0.00    -0.021 A 
ATOM     75  C   UNL     1       6.818  -1.331  22.723  0.00  0.00    +0.057 A 
ATOM     76  C   UNL     1       7.204   0.001  22.832  0.00  0.00    +0.159 A 
ATOM     77  C   UNL     1       8.466   0.415  22.423  0.00  0.00    +0.158 A 
ATOM     78  C   UNL     1       9.362  -0.500  21.889  0.00  0.00    +0.050 A 
BRANCH  76  79
ATOM     79  O   UNL     1       6.326   0.903  23.362  0.00  0.00    -0.503 OA
ATOM     80  H   UNL     1       5.954   1.367  22.586  0.00  0.00    +0.292 HD
ENDBRANCH  76  79
BRANCH  77  81
ATOM     81  O   UNL     1       8.789   1.734  22.582  0.00  0.00    -0.503 OA
ATOM     82  H   UNL     1       9.735   1.842  22.382  0.00  0.00    +0.292 HD
ENDBRANCH  77  81
ENDBRANCH  71  74
ENDBRANCH  69  72
ENDBRANCH  68  69
ENDBRANCH  67  68
ENDBRANCH  55  67
ENDBRANCH  54  57
ENDBRANCH   1  54
TORSDOF 29
ENDMDL
MODEL 7
REMARK VINA RESULT:      -5.5      1.407      2.235
REMARK  Name = 
REMARK  29 active torsions:
REMARK  status: ('A' for Active; 'I' for Inactive)
REMARK    1  A    between atoms: C_3  and  O_76
REMARK    2  A    between atoms: C_4  and  O_75
REMARK    3  A    between atoms: C_6  and  C_7
REMARK    4  A    between atoms: C_8  and  C_9
REMARK    5  A    between atoms: C_9  and  O_11
REMARK    6  A    between atoms: O_11  and  C_12
REMARK    7  A    between atoms: C_12  and  C_13
REMARK    8  A    between atoms: C_14  and  O_74
REMARK    9  A    between atoms: C_16  and  O_73
REMARK   10  A    between atoms: C_18  and  O_72
REMARK   11  A    between atoms: C_19  and  O_22
REMARK   12  A    between atoms: O_22  and  C_23
REMARK   13  A    between atoms: C_25  and  O_71
REMARK   14  A    between atoms: C_30  and  C_63
REMARK   15  A    between atoms: C_31  and  O_34
REMARK   16  A    between atoms: O_34  and  C_35
REMARK   17  A    between atoms: C_37  and  O_48
REMARK   18  A    between atoms: C_38  and  O_47
REMARK   19  A    between atoms: C_40  and  O_46
REMARK   20  A    between atoms: C_42  and  C_44
REMARK   21  A    between atoms: C_44  and  O_45
REMARK   22  A    between atoms: O_48  and  C_49
REMARK   23  A    between atoms: C_51  and  O_62
REMARK   24  A    between atoms: C_52  and  O_61
REMARK   25  A    between atoms: C_54  and  O_60
REMARK   26  A    between atoms: C_56  and  C_58
REMARK   27  A    between atoms: C_58  and  O_59
REMARK   28  A    between atoms: C_65  and  O_70
REMARK   29  A    between atoms: C_66  and  O_69
REMARK                            x       y       z     vdW  Elec       q    Type
REMARK                         _______ _______ _______ _____ _____    ______ ____
ROOT
ATOM      1  C   UNL     1       5.783  -3.648  23.295  0.00  0.00    +0.131 A 
ATOM      2  C   UNL     1       5.315  -2.809  24.334  0.00  0.00    +0.093 A 
ATOM      3  C   UNL     1       5.642  -1.436  24.353  0.00  0.00    +0.147 A 
ATOM      4  O   UNL     1       5.174  -0.630  25.365  0.00  0.00    -0.451 OA
ATOM      5  C   UNL     1       5.342   0.774  25.290  0.00  0.00    +0.181 A 
ATOM      6  C   UNL     1       6.200   1.392  24.423  0.00  0.00    +0.214 A 
ATOM      7  C   UNL     1       6.975   0.444  23.549  0.00  0.00    +0.238 A 
ATOM      8  O   UNL     1       8.055   0.726  23.060  0.00  0.00    -0.283 OA
ATOM      9  C   UNL     1       6.447  -0.912  23.359  0.00  0.00    +0.109 A 
ATOM     10  C   UNL     1       6.808  -1.714  22.273  0.00  0.00    +0.135 A 
ATOM     11  C   UNL     1       6.474  -3.071  22.239  0.00  0.00    +0.092 A 
ENDROOT
BRANCH   5  12
ATOM     12  C   UNL     1       4.512   1.479  26.327  0.00  0.00    +0.025 A 
ATOM     13  C   UNL     1       3.108   1.305  26.361  0.00  0.00    +0.015 A 
ATOM     14  C   UNL     1       2.322   1.831  27.398  0.00  0.00    +0.050 A 
ATOM     15  C   UNL     1       2.928   2.573  28.398  0.00  0.00    +0.158 A 
ATOM     16  C   UNL     1       4.293   2.817  28.353  0.00  0.00    +0.159 A 
ATOM     17  C   UNL     1       5.083   2.248  27.356  0.00  0.00    +0.060 A 
BRANCH  16  18
ATOM     18  O   UNL     1       4.834   3.616  29.322  0.00  0.00    -0.503 OA
ATOM     19  H   UNL     1       5.373   3.051  29.904  0.00  0.00    +0.292 HD
ENDBRANCH  16  18
BRANCH  15  20
ATOM     20  O   UNL     1       2.181   3.051  29.434  0.00  0.00    -0.503 OA
ATOM     21  H   UNL     1       1.317   3.279  29.034  0.00  0.00    +0.292 HD
ENDBRANCH  15  20
ENDBRANCH   5  12
BRANCH  10  22
ATOM     22  O   UNL     1       7.448  -1.169  21.194  0.00  0.00    -0.506 OA
ATOM     23  H   UNL     1       8.290  -0.793  21.488  0.00  0.00    +0.292 HD
ENDBRANCH  10  22
BRANCH   6  24
ATOM     24  O   UNL     1       6.348   2.794  24.342  0.00  0.00    -0.453 OA
BRANCH  24  25
ATOM     25  C   UNL     1       6.962   3.413  23.178  0.00  0.00    +0.340 C 
ATOM     26  O   UNL     1       8.405   3.369  23.218  0.00  0.00    -0.331 OA
ATOM     27  C   UNL     1       9.101   4.348  24.020  0.00  0.00    +0.179 C 
ATOM     28  C   UNL     1       8.582   5.786  23.882  0.00  0.00    +0.177 C 
ATOM     29  C   UNL     1       7.081   5.780  24.025  0.00  0.00    +0.180 C 
ATOM     30  C   UNL     1       6.488   4.878  22.934  0.00  0.00    +0.221 C 
BRANCH  28  31
ATOM     31  O   UNL     1       8.923   6.358  22.610  0.00  0.00    -0.386 OA
ATOM     32  H   UNL     1       9.033   7.323  22.731  0.00  0.00    +0.210 HD
ENDBRANCH  28  31
BRANCH  29  33
ATOM     33  O   UNL     1       6.696   5.451  25.365  0.00  0.00    -0.386 OA
ATOM     34  H   UNL     1       6.191   6.209  25.723  0.00  0.00    +0.210 HD
ENDBRANCH  29  33
BRANCH  30  35
ATOM     35  O   UNL     1       5.063   5.044  22.781  0.00  0.00    -0.337 OA
BRANCH  35  36
ATOM     36  C   UNL     1       4.329   3.883  23.248  0.00  0.00    +0.282 C 
ATOM     37  O   UNL     1       3.645   3.181  22.213  0.00  0.00    -0.341 OA
ATOM     38  C   UNL     1       2.647   3.979  21.543  0.00  0.00    +0.178 C 
ATOM     39  C   UNL     1       1.544   4.403  22.529  0.00  0.00    +0.177 C 
ATOM     40  C   UNL     1       2.170   5.108  23.745  0.00  0.00    +0.179 C 
ATOM     41  C   UNL     1       3.312   4.268  24.342  0.00  0.00    +0.201 C 
BRANCH  41  42
ATOM     42  O   UNL     1       3.932   4.982  25.425  0.00  0.00    -0.384 OA
ATOM     43  H   UNL     1       3.420   5.801  25.562  0.00  0.00    +0.210 HD
ENDBRANCH  41  42
BRANCH  40  44
ATOM     44  O   UNL     1       2.634   6.405  23.349  0.00  0.00    -0.386 OA
ATOM     45  H   UNL     1       2.866   6.342  22.402  0.00  0.00    +0.210 HD
ENDBRANCH  40  44
BRANCH  39  46
ATOM     46  O   UNL     1       0.805   3.257  22.962  0.00  0.00    -0.386 OA
ATOM     47  H   UNL     1      -0.130   3.405  22.732  0.00  0.00    +0.210 HD
ENDBRANCH  39  46
BRANCH  38  48
ATOM     48  C   UNL     1       2.100   3.169  20.350  0.00  0.00    +0.190 C 
BRANCH  48  49
ATOM     49  O   UNL     1       1.659   1.858  20.735  0.00  0.00    -0.392 OA
ATOM     50  H   UNL     1       1.450   1.368  19.918  0.00  0.00    +0.210 HD
ENDBRANCH  48  49
ENDBRANCH  38  48
ENDBRANCH  35  36
ENDBRANCH  30  35
BRANCH  27  51
ATOM     51  C   UNL     1      10.593   4.371  23.627  0.00  0.00    +0.190 C 
BRANCH  51  52
ATOM     52  O   UNL     1      11.003   3.195  22.936  0.00  0.00    -0.392 OA
ATOM     53  H   UNL     1      11.802   3.401  22.429  0.00  0.00    +0.210 HD
ENDBRANCH  51  52
ENDBRANCH  27  51
ENDBRANCH  24  25
ENDBRANCH   6  24
BRANCH   1  54
ATOM     54  O   UNL     1       5.502  -4.997  23.367  0.00  0.00    -0.461 OA
BRANCH  54  57
ATOM     55  C   UNL     1       4.446  -7.142  26.218  0.00  0.00    +0.191 C 
ATOM     56  O   UNL     1       5.203  -6.629  25.098  0.00  0.00    -0.330 OA
ATOM     57  C   UNL     1       4.669  -5.438  24.481  0.00  0.00    +0.339 C 
ATOM     58  C   UNL     1       3.239  -5.747  23.958  0.00  0.00    +0.214 C 
ATOM     59  C   UNL     1       2.365  -6.220  25.135  0.00  0.00    +0.180 C 
ATOM     60  C   UNL     1       2.990  -7.445  25.816  0.00  0.00    +0.178 C 
BRANCH  58  61
ATOM     61  O   UNL     1       3.276  -6.767  22.940  0.00  0.00    -0.383 OA
ATOM     62  H   UNL     1       4.210  -6.964  22.746  0.00  0.00    +0.210 HD
ENDBRANCH  58  61
BRANCH  59  63
ATOM     63  O   UNL     1       1.032  -6.538  24.712  0.00  0.00    -0.386 OA
ATOM     64  H   UNL     1       0.456  -6.362  25.481  0.00  0.00    +0.210 HD
ENDBRANCH  59  63
BRANCH  60  65
ATOM     65  O   UNL     1       2.179  -7.811  26.939  0.00  0.00    -0.386 OA
ATOM     66  H   UNL     1       1.423  -7.195  26.973  0.00  0.00    +0.210 HD
ENDBRANCH  60  65
BRANCH  55  67
ATOM     67  C   UNL     1       4.547  -6.246  27.475  0.00  0.00    +0.266 C 
BRANCH  67  68
ATOM     68  O   UNL     1       5.570  -5.241  27.339  0.00  0.00    -0.459 OA
BRANCH  68  69
ATOM     69  C   UNL     1       6.813  -5.616  27.732  0.00  0.00    +0.332 C 
ATOM     70  O   UNL     1       7.082  -6.500  28.530  0.00  0.00    -0.246 OA
BRANCH  69  72
ATOM     71  C   UNL     1       7.541  -3.507  26.740  0.00  0.00    +0.015 C 
ATOM     72  C   UNL     1       7.787  -4.804  26.978  0.00  0.00    +0.092 C 
BRANCH  71  74
ATOM     73  C   UNL     1       8.693  -1.270  26.506  0.00  0.00    +0.012 A 
ATOM     74  C   UNL     1       8.465  -2.585  26.062  0.00  0.00    -0.021 A 
ATOM     75  C   UNL     1       9.067  -3.006  24.867  0.00  0.00    +0.057 A 
ATOM     76  C   UNL     1       9.872  -2.127  24.150  0.00  0.00    +0.159 A 
ATOM     77  C   UNL     1      10.090  -0.829  24.598  0.00  0.00    +0.158 A 
ATOM     78  C   UNL     1       9.507  -0.392  25.779  0.00  0.00    +0.050 A 
BRANCH  76  79
ATOM     79  O   UNL     1      10.443  -2.553  22.984  0.00  0.00    -0.503 OA
ATOM     80  H   UNL     1      10.134  -3.476  22.884  0.00  0.00    +0.292 HD
ENDBRANCH  76  79
BRANCH  77  81
ATOM     81  O   UNL     1      10.871  -0.011  23.831  0.00  0.00    -0.503 OA
ATOM     82  H   UNL     1      11.082  -0.479  23.005  0.00  0.00    +0.292 HD
ENDBRANCH  77  81
ENDBRANCH  71  74
ENDBRANCH  69  72
ENDBRANCH  68  69
ENDBRANCH  67  68
ENDBRANCH  55  67
ENDBRANCH  54  57
ENDBRANCH   1  54
TORSDOF 29
ENDMDL
MODEL 8
REMARK VINA RESULT:      -5.4      2.215     10.595
REMARK  Name = 
REMARK  29 active torsions:
REMARK  status: ('A' for Active; 'I' for Inactive)
REMARK    1  A    between atoms: C_3  and  O_76
REMARK    2  A    between atoms: C_4  and  O_75
REMARK    3  A    between atoms: C_6  and  C_7
REMARK    4  A    between atoms: C_8  and  C_9
REMARK    5  A    between atoms: C_9  and  O_11
REMARK    6  A    between atoms: O_11  and  C_12
REMARK    7  A    between atoms: C_12  and  C_13
REMARK    8  A    between atoms: C_14  and  O_74
REMARK    9  A    between atoms: C_16  and  O_73
REMARK   10  A    between atoms: C_18  and  O_72
REMARK   11  A    between atoms: C_19  and  O_22
REMARK   12  A    between atoms: O_22  and  C_23
REMARK   13  A    between atoms: C_25  and  O_71
REMARK   14  A    between atoms: C_30  and  C_63
REMARK   15  A    between atoms: C_31  and  O_34
REMARK   16  A    between atoms: O_34  and  C_35
REMARK   17  A    between atoms: C_37  and  O_48
REMARK   18  A    between atoms: C_38  and  O_47
REMARK   19  A    between atoms: C_40  and  O_46
REMARK   20  A    between atoms: C_42  and  C_44
REMARK   21  A    between atoms: C_44  and  O_45
REMARK   22  A    between atoms: O_48  and  C_49
REMARK   23  A    between atoms: C_51  and  O_62
REMARK   24  A    between atoms: C_52  and  O_61
REMARK   25  A    between atoms: C_54  and  O_60
REMARK   26  A    between atoms: C_56  and  C_58
REMARK   27  A    between atoms: C_58  and  O_59
REMARK   28  A    between atoms: C_65  and  O_70
REMARK   29  A    between atoms: C_66  and  O_69
REMARK                            x       y       z     vdW  Elec       q    Type
REMARK                         _______ _______ _______ _____ _____    ______ ____
ROOT
ATOM      1  C   UNL     1       5.881   3.034  24.108  0.00  0.00    +0.131 A 
ATOM      2  C   UNL     1       6.698   1.889  24.256  0.00  0.00    +0.093 A 
ATOM      3  C   UNL     1       6.259   0.786  25.021  0.00  0.00    +0.147 A 
ATOM      4  O   UNL     1       7.061  -0.326  25.150  0.00  0.00    -0.451 OA
ATOM      5  C   UNL     1       6.553  -1.500  25.756  0.00  0.00    +0.181 A 
ATOM      6  C   UNL     1       5.407  -1.537  26.500  0.00  0.00    +0.214 A 
ATOM      7  C   UNL     1       4.722  -0.205  26.636  0.00  0.00    +0.238 A 
ATOM      8  O   UNL     1       3.988   0.070  27.569  0.00  0.00    -0.283 OA
ATOM      9  C   UNL     1       5.030   0.837  25.650  0.00  0.00    +0.109 A 
ATOM     10  C   UNL     1       4.176   1.916  25.405  0.00  0.00    +0.135 A 
ATOM     11  C   UNL     1       4.597   3.005  24.636  0.00  0.00    +0.092 A 
ENDROOT
BRANCH   5  12
ATOM     12  C   UNL     1       7.472  -2.670  25.532  0.00  0.00    +0.025 A 
ATOM     13  C   UNL     1       8.399  -3.055  26.529  0.00  0.00    +0.015 A 
ATOM     14  C   UNL     1       9.168  -4.223  26.413  0.00  0.00    +0.050 A 
ATOM     15  C   UNL     1       9.047  -5.003  25.275  0.00  0.00    +0.158 A 
ATOM     16  C   UNL     1       8.196  -4.614  24.252  0.00  0.00    +0.159 A 
ATOM     17  C   UNL     1       7.390  -3.485  24.390  0.00  0.00    +0.060 A 
BRANCH  16  18
ATOM     18  O   UNL     1       8.165  -5.377  23.118  0.00  0.00    -0.503 OA
ATOM     19  H   UNL     1       8.022  -4.779  22.362  0.00  0.00    +0.292 HD
ENDBRANCH  16  18
BRANCH  15  20
ATOM     20  O   UNL     1       9.756  -6.163  25.172  0.00  0.00    -0.503 OA
ATOM     21  H   UNL     1      10.579  -5.999  25.676  0.00  0.00    +0.292 HD
ENDBRANCH  15  20
ENDBRANCH   5  12
BRANCH  10  22
ATOM     22  O   UNL     1       2.891   1.899  25.869  0.00  0.00    -0.506 OA
ATOM     23  H   UNL     1       2.902   1.673  26.810  0.00  0.00    +0.292 HD
ENDBRANCH  10  22
BRANCH   6  24
ATOM     24  O   UNL     1       4.897  -2.717  27.086  0.00  0.00    -0.453 OA
BRANCH  24  25
ATOM     25  C   UNL     1       3.473  -3.006  27.065  0.00  0.00    +0.340 C 
ATOM     26  O   UNL     1       2.816  -2.667  28.307  0.00  0.00    -0.331 OA
ATOM     27  C   UNL     1       2.917  -3.592  29.412  0.00  0.00    +0.179 C 
ATOM     28  C   UNL     1       2.706  -5.068  29.043  0.00  0.00    +0.177 C 
ATOM     29  C   UNL     1       3.557  -5.398  27.843  0.00  0.00    +0.180 C 
ATOM     30  C   UNL     1       3.145  -4.481  26.683  0.00  0.00    +0.221 C 
BRANCH  28  31
ATOM     31  O   UNL     1       1.335  -5.350  28.730  0.00  0.00    -0.386 OA
ATOM     32  H   UNL     1       1.074  -6.161  29.212  0.00  0.00    +0.210 HD
ENDBRANCH  28  31
BRANCH  29  33
ATOM     33  O   UNL     1       4.949  -5.369  28.178  0.00  0.00    -0.386 OA
ATOM     34  H   UNL     1       5.431  -4.997  27.412  0.00  0.00    +0.210 HD
ENDBRANCH  29  33
BRANCH  30  35
ATOM     35  O   UNL     1       3.668  -4.916  25.410  0.00  0.00    -0.337 OA
BRANCH  35  36
ATOM     36  C   UNL     1       2.633  -4.992  24.396  0.00  0.00    +0.282 C 
ATOM     37  O   UNL     1       1.470  -5.703  24.814  0.00  0.00    -0.341 OA
ATOM     38  C   UNL     1       1.732  -7.082  25.150  0.00  0.00    +0.178 C 
ATOM     39  C   UNL     1       2.244  -7.849  23.917  0.00  0.00    +0.177 C 
ATOM     40  C   UNL     1       3.463  -7.126  23.318  0.00  0.00    +0.179 C 
ATOM     41  C   UNL     1       3.167  -5.632  23.099  0.00  0.00    +0.201 C 
BRANCH  41  42
ATOM     42  O   UNL     1       4.345  -4.964  22.615  0.00  0.00    -0.384 OA
ATOM     43  H   UNL     1       4.918  -4.795  23.386  0.00  0.00    +0.210 HD
ENDBRANCH  41  42
BRANCH  40  44
ATOM     44  O   UNL     1       4.590  -7.308  24.185  0.00  0.00    -0.386 OA
ATOM     45  H   UNL     1       4.615  -8.257  24.416  0.00  0.00    +0.210 HD
ENDBRANCH  40  44
BRANCH  39  46
ATOM     46  O   UNL     1       1.209  -7.946  22.935  0.00  0.00    -0.386 OA
ATOM     47  H   UNL     1       0.632  -7.169  23.037  0.00  0.00    +0.210 HD
ENDBRANCH  39  46
BRANCH  38  48
ATOM     48  C   UNL     1       0.444  -7.690  25.738  0.00  0.00    +0.190 C 
BRANCH  48  49
ATOM     49  O   UNL     1       0.470  -7.745  27.172  0.00  0.00    -0.392 OA
ATOM     50  H   UNL     1       0.675  -6.849  27.497  0.00  0.00    +0.210 HD
ENDBRANCH  48  49
ENDBRANCH  38  48
ENDBRANCH  35  36
ENDBRANCH  30  35
BRANCH  27  51
ATOM     51  C   UNL     1       1.856  -3.241  30.476  0.00  0.00    +0.190 C 
BRANCH  51  52
ATOM     52  O   UNL     1       0.865  -2.339  29.996  0.00  0.00    -0.392 OA
ATOM     53  H   UNL     1       0.047  -2.489  30.494  0.00  0.00    +0.210 HD
ENDBRANCH  51  52
ENDBRANCH  27  51
ENDBRANCH  24  25
ENDBRANCH   6  24
BRANCH   1  54
ATOM     54  O   UNL     1       6.389   4.115  23.418  0.00  0.00    -0.461 OA
BRANCH  54  57
ATOM     55  C   UNL     1       9.163   5.444  25.512  0.00  0.00    +0.191 C 
ATOM     56  O   UNL     1       8.352   4.539  24.728  0.00  0.00    -0.330 OA
ATOM     57  C   UNL     1       7.134   5.100  24.194  0.00  0.00    +0.339 C 
ATOM     58  C   UNL     1       6.252   5.592  25.375  0.00  0.00    +0.214 C 
ATOM     59  C   UNL     1       7.044   6.626  26.197  0.00  0.00    +0.180 C 
ATOM     60  C   UNL     1       8.366   6.027  26.695  0.00  0.00    +0.178 C 
BRANCH  58  61
ATOM     61  O   UNL     1       5.871   4.489  26.222  0.00  0.00    -0.383 OA
ATOM     62  H   UNL     1       6.499   3.761  26.069  0.00  0.00    +0.210 HD
ENDBRANCH  58  61
BRANCH  59  63
ATOM     63  O   UNL     1       6.287   7.107  27.316  0.00  0.00    -0.386 OA
ATOM     64  H   UNL     1       5.517   7.576  26.940  0.00  0.00    +0.210 HD
ENDBRANCH  59  63
BRANCH  60  65
ATOM     65  O   UNL     1       9.095   7.038  27.398  0.00  0.00    -0.386 OA
ATOM     66  H   UNL     1       8.466   7.745  27.639  0.00  0.00    +0.210 HD
ENDBRANCH  60  65
BRANCH  55  67
ATOM     67  C   UNL     1       9.846   6.537  24.655  0.00  0.00    +0.266 C 
BRANCH  67  68
ATOM     68  O   UNL     1      10.409   5.996  23.445  0.00  0.00    -0.459 OA
BRANCH  68  69
ATOM     69  C   UNL     1      11.535   5.256  23.603  0.00  0.00    +0.332 C 
ATOM     70  O   UNL     1      12.529   5.579  24.233  0.00  0.00    -0.246 OA
BRANCH  69  72
ATOM     71  C   UNL     1      10.683   2.968  23.561  0.00  0.00    +0.015 C 
ATOM     72  C   UNL     1      11.321   3.962  22.926  0.00  0.00    +0.092 C 
BRANCH  71  74
ATOM     73  C   UNL     1       9.711   1.534  21.720  0.00  0.00    +0.012 A 
ATOM     74  C   UNL     1      10.353   1.664  22.965  0.00  0.00    -0.021 A 
ATOM     75  C   UNL     1      10.602   0.507  23.716  0.00  0.00    +0.057 A 
ATOM     76  C   UNL     1      10.217  -0.736  23.224  0.00  0.00    +0.159 A 
ATOM     77  C   UNL     1       9.582  -0.852  21.993  0.00  0.00    +0.158 A 
ATOM     78  C   UNL     1       9.327   0.279  21.230  0.00  0.00    +0.050 A 
BRANCH  76  79
ATOM     79  O   UNL     1      10.462  -1.850  23.975  0.00  0.00    -0.503 OA
ATOM     80  H   UNL     1      10.660  -1.505  24.868  0.00  0.00    +0.292 HD
ENDBRANCH  76  79
BRANCH  77  81
ATOM     81  O   UNL     1       9.209  -2.100  21.581  0.00  0.00    -0.503 OA
ATOM     82  H   UNL     1       9.588  -2.255  20.698  0.00  0.00    +0.292 HD
ENDBRANCH  77  81
ENDBRANCH  71  74
ENDBRANCH  69  72
ENDBRANCH  68  69
ENDBRANCH  67  68
ENDBRANCH  55  67
ENDBRANCH  54  57
ENDBRANCH   1  54
TORSDOF 29
ENDMDL
MODEL 9
REMARK VINA RESULT:      -5.1      2.023     10.615
REMARK  Name = 
REMARK  29 active torsions:
REMARK  status: ('A' for Active; 'I' for Inactive)
REMARK    1  A    between atoms: C_3  and  O_76
REMARK    2  A    between atoms: C_4  and  O_75
REMARK    3  A    between atoms: C_6  and  C_7
REMARK    4  A    between atoms: C_8  and  C_9
REMARK    5  A    between atoms: C_9  and  O_11
REMARK    6  A    between atoms: O_11  and  C_12
REMARK    7  A    between atoms: C_12  and  C_13
REMARK    8  A    between atoms: C_14  and  O_74
REMARK    9  A    between atoms: C_16  and  O_73
REMARK   10  A    between atoms: C_18  and  O_72
REMARK   11  A    between atoms: C_19  and  O_22
REMARK   12  A    between atoms: O_22  and  C_23
REMARK   13  A    between atoms: C_25  and  O_71
REMARK   14  A    between atoms: C_30  and  C_63
REMARK   15  A    between atoms: C_31  and  O_34
REMARK   16  A    between atoms: O_34  and  C_35
REMARK   17  A    between atoms: C_37  and  O_48
REMARK   18  A    between atoms: C_38  and  O_47
REMARK   19  A    between atoms: C_40  and  O_46
REMARK   20  A    between atoms: C_42  and  C_44
REMARK   21  A    between atoms: C_44  and  O_45
REMARK   22  A    between atoms: O_48  and  C_49
REMARK   23  A    between atoms: C_51  and  O_62
REMARK   24  A    between atoms: C_52  and  O_61
REMARK   25  A    between atoms: C_54  and  O_60
REMARK   26  A    between atoms: C_56  and  C_58
REMARK   27  A    between atoms: C_58  and  O_59
REMARK   28  A    between atoms: C_65  and  O_70
REMARK   29  A    between atoms: C_66  and  O_69
REMARK                            x       y       z     vdW  Elec       q    Type
REMARK                         _______ _______ _______ _____ _____    ______ ____
ROOT
ATOM      1  C   UNL     1       8.226   0.152  23.214  0.00  0.00    +0.131 A 
ATOM      2  C   UNL     1       7.134   0.177  24.113  0.00  0.00    +0.093 A 
ATOM      3  C   UNL     1       6.222  -0.899  24.166  0.00  0.00    +0.147 A 
ATOM      4  O   UNL     1       5.168  -0.866  25.051  0.00  0.00    -0.451 OA
ATOM      5  C   UNL     1       4.363  -2.016  25.240  0.00  0.00    +0.181 A 
ATOM      6  C   UNL     1       4.359  -3.089  24.393  0.00  0.00    +0.214 A 
ATOM      7  C   UNL     1       5.286  -2.944  23.217  0.00  0.00    +0.238 A 
ATOM      8  O   UNL     1       5.117  -3.533  22.164  0.00  0.00    -0.283 OA
ATOM      9  C   UNL     1       6.385  -1.976  23.316  0.00  0.00    +0.109 A 
ATOM     10  C   UNL     1       7.528  -2.053  22.516  0.00  0.00    +0.135 A 
ATOM     11  C   UNL     1       8.445  -0.998  22.468  0.00  0.00    +0.092 A 
ENDROOT
BRANCH   5  12
ATOM     12  C   UNL     1       3.473  -1.866  26.443  0.00  0.00    +0.025 A 
ATOM     13  C   UNL     1       2.280  -2.618  26.550  0.00  0.00    +0.015 A 
ATOM     14  C   UNL     1       1.503  -2.610  27.719  0.00  0.00    +0.050 A 
ATOM     15  C   UNL     1       1.891  -1.817  28.786  0.00  0.00    +0.158 A 
ATOM     16  C   UNL     1       3.020  -1.018  28.684  0.00  0.00    +0.159 A 
ATOM     17  C   UNL     1       3.824  -1.067  27.546  0.00  0.00    +0.060 A 
BRANCH  16  18
ATOM     18  O   UNL     1       3.323  -0.198  29.735  0.00  0.00    -0.503 OA
ATOM     19  H   UNL     1       3.608   0.659  29.369  0.00  0.00    +0.292 HD
ENDBRANCH  16  18
BRANCH  15  20
ATOM     20  O   UNL     1       1.168  -1.836  29.942  0.00  0.00    -0.503 OA
ATOM     21  H   UNL     1       0.248  -1.654  29.664  0.00  0.00    +0.292 HD
ENDBRANCH  15  20
ENDBRANCH   5  12
BRANCH  10  22
ATOM     22  O   UNL     1       7.799  -3.189  21.805  0.00  0.00    -0.506 OA
ATOM     23  H   UNL     1       7.013  -3.753  21.807  0.00  0.00    +0.292 HD
ENDBRANCH  10  22
BRANCH   6  24
ATOM     24  O   UNL     1       3.567  -4.239  24.599  0.00  0.00    -0.453 OA
BRANCH  24  25
ATOM     25  C   UNL     1       3.848  -5.476  23.888  0.00  0.00    +0.340 C 
ATOM     26  O   UNL     1       2.810  -5.825  22.945  0.00  0.00    -0.331 OA
ATOM     27  C   UNL     1       1.615  -6.465  23.445  0.00  0.00    +0.179 C 
ATOM     28  C   UNL     1       1.859  -7.589  24.462  0.00  0.00    +0.177 C 
ATOM     29  C   UNL     1       2.817  -7.095  25.516  0.00  0.00    +0.180 C 
ATOM     30  C   UNL     1       4.128  -6.684  24.832  0.00  0.00    +0.221 C 
BRANCH  28  31
ATOM     31  O   UNL     1       2.414  -8.759  23.844  0.00  0.00    -0.386 OA
ATOM     32  H   UNL     1       3.334  -8.862  24.163  0.00  0.00    +0.210 HD
ENDBRANCH  28  31
BRANCH  29  33
ATOM     33  O   UNL     1       2.209  -6.083  26.327  0.00  0.00    -0.386 OA
ATOM     34  H   UNL     1       1.693  -6.533  27.026  0.00  0.00    +0.210 HD
ENDBRANCH  29  33
BRANCH  30  35
ATOM     35  O   UNL     1       5.213  -6.494  25.765  0.00  0.00    -0.337 OA
BRANCH  35  36
ATOM     36  C   UNL     1       5.677  -5.120  25.784  0.00  0.00    +0.282 C 
ATOM     37  O   UNL     1       6.906  -4.918  25.091  0.00  0.00    -0.341 OA
ATOM     38  C   UNL     1       8.007  -5.666  25.649  0.00  0.00    +0.178 C 
ATOM     39  C   UNL     1       8.288  -5.216  27.094  0.00  0.00    +0.177 C 
ATOM     40  C   UNL     1       7.002  -5.310  27.933  0.00  0.00    +0.179 C 
ATOM     41  C   UNL     1       5.831  -4.602  27.229  0.00  0.00    +0.201 C 
BRANCH  41  42
ATOM     42  O   UNL     1       4.625  -4.773  27.992  0.00  0.00    -0.384 OA
ATOM     43  H   UNL     1       3.888  -4.847  27.356  0.00  0.00    +0.210 HD
ENDBRANCH  41  42
BRANCH  40  44
ATOM     44  O   UNL     1       6.701  -6.690  28.178  0.00  0.00    -0.386 OA
ATOM     45  H   UNL     1       6.980  -6.878  29.094  0.00  0.00    +0.210 HD
ENDBRANCH  40  44
BRANCH  39  46
ATOM     46  O   UNL     1       8.774  -3.871  27.103  0.00  0.00    -0.386 OA
ATOM     47  H   UNL     1       8.850  -3.578  26.177  0.00  0.00    +0.210 HD
ENDBRANCH  39  46
BRANCH  38  48
ATOM     48  C   UNL     1       9.228  -5.495  24.723  0.00  0.00    +0.190 C 
BRANCH  48  49
ATOM     49  O   UNL     1      10.470  -5.545  25.441  0.00  0.00    -0.392 OA
ATOM     50  H   UNL     1      10.561  -4.706  25.929  0.00  0.00    +0.210 HD
ENDBRANCH  48  49
ENDBRANCH  38  48
ENDBRANCH  35  36
ENDBRANCH  30  35
BRANCH  27  51
ATOM     51  C   UNL     1       0.834  -7.088  22.268  0.00  0.00    +0.190 C 
BRANCH  51  52
ATOM     52  O   UNL     1       1.655  -7.875  21.412  0.00  0.00    -0.392 OA
ATOM     53  H   UNL     1       2.425  -7.346  21.155  0.00  0.00    +0.210 HD
ENDBRANCH  51  52
ENDBRANCH  27  51
ENDBRANCH  24  25
ENDBRANCH   6  24
BRANCH   1  54
ATOM     54  O   UNL     1       9.041   1.263  23.144  0.00  0.00    -0.461 OA
BRANCH  54  57
ATOM     55  C   UNL     1       7.197   4.412  22.411  0.00  0.00    +0.191 C 
ATOM     56  O   UNL     1       7.840   3.129  22.234  0.00  0.00    -0.330 OA
ATOM     57  C   UNL     1       8.420   2.554  23.424  0.00  0.00    +0.339 C 
ATOM     58  C   UNL     1       9.498   3.530  23.973  0.00  0.00    +0.214 C 
ATOM     59  C   UNL     1       8.842   4.893  24.260  0.00  0.00    +0.180 C 
ATOM     60  C   UNL     1       8.174   5.450  22.996  0.00  0.00    +0.178 C 
BRANCH  58  61
ATOM     61  O   UNL     1      10.569   3.696  23.022  0.00  0.00    -0.383 OA
ATOM     62  H   UNL     1      11.404   3.465  23.466  0.00  0.00    +0.210 HD
ENDBRANCH  58  61
BRANCH  59  63
ATOM     63  O   UNL     1       9.793   5.846  24.755  0.00  0.00    -0.386 OA
ATOM     64  H   UNL     1       9.758   6.606  24.143  0.00  0.00    +0.210 HD
ENDBRANCH  59  63
BRANCH  60  65
ATOM     65  O   UNL     1       7.526   6.684  23.323  0.00  0.00    -0.386 OA
ATOM     66  H   UNL     1       7.487   7.224  22.511  0.00  0.00    +0.210 HD
ENDBRANCH  60  65
BRANCH  55  67
ATOM     67  C   UNL     1       5.875   4.317  23.210  0.00  0.00    +0.266 C 
BRANCH  67  68
ATOM     68  O   UNL     1       5.087   5.516  23.089  0.00  0.00    -0.459 OA
BRANCH  68  69
ATOM     69  C   UNL     1       3.772   5.326  22.814  0.00  0.00    +0.332 C 
ATOM     70  O   UNL     1       3.157   5.797  21.871  0.00  0.00    -0.246 OA
BRANCH  69  72
ATOM     71  C   UNL     1       2.842   4.861  25.023  0.00  0.00    +0.015 C 
ATOM     72  C   UNL     1       3.230   4.399  23.826  0.00  0.00    +0.092 C 
BRANCH  71  74
ATOM     73  C   UNL     1       2.146   4.468  27.421  0.00  0.00    +0.012 A 
ATOM     74  C   UNL     1       2.226   4.045  26.082  0.00  0.00    -0.021 A 
ATOM     75  C   UNL     1       1.791   2.753  25.757  0.00  0.00    +0.057 A 
ATOM     76  C   UNL     1       1.290   1.920  26.753  0.00  0.00    +0.159 A 
ATOM     77  C   UNL     1       1.217   2.348  28.074  0.00  0.00    +0.158 A 
ATOM     78  C   UNL     1       1.639   3.624  28.417  0.00  0.00    +0.050 A 
BRANCH  76  79
ATOM     79  O   UNL     1       0.878   0.661  26.417  0.00  0.00    -0.503 OA
ATOM     80  H   UNL     1       1.377   0.073  27.019  0.00  0.00    +0.292 HD
ENDBRANCH  76  79
BRANCH  77  81
ATOM     81  O   UNL     1       0.737   1.470  29.004  0.00  0.00    -0.503 OA
ATOM     82  H   UNL     1       1.489   0.965  29.361  0.00  0.00    +0.292 HD
ENDBRANCH  77  81
ENDBRANCH  71  74
ENDBRANCH  69  72
ENDBRANCH  68  69
ENDBRANCH  67  68
ENDBRANCH  55  67
ENDBRANCH  54  57
ENDBRANCH   1  54
TORSDOF 29
ENDMDL
