MODEL 1
REMARK VINA RESULT:      -7.3      0.000      0.000
REMARK  Name = 
REMARK  23 active torsions:
REMARK  status: ('A' for Active; 'I' for Inactive)
REMARK    1  A    between atoms: C_1  and  C_2
REMARK    2  A    between atoms: C_3  and  O_62
REMARK    3  A    between atoms: C_5  and  O_61
REMARK    4  A    between atoms: C_6  and  O_60
REMARK    5  A    between atoms: C_8  and  O_11
REMARK    6  A    between atoms: O_11  and  C_12
REMARK    7  A    between atoms: C_13  and  O_24
REMARK    8  A    between atoms: C_16  and  C_22
REMARK    9  A    between atoms: C_17  and  O_21
REMARK   10  A    between atoms: C_19  and  O_20
REMARK   11  A    between atoms: C_22  and  O_23
REMARK   12  A    between atoms: O_24  and  C_25
REMARK   13  A    between atoms: C_26  and  C_52
REMARK   14  A    between atoms: C_30  and  O_37
REMARK   15  A    between atoms: C_32  and  O_36
REMARK   16  A    between atoms: O_37  and  C_38
REMARK   17  A    between atoms: C_40  and  O_51
REMARK   18  A    between atoms: C_41  and  O_50
REMARK   19  A    between atoms: C_43  and  O_49
REMARK   20  A    between atoms: C_45  and  C_47
REMARK   21  A    between atoms: C_47  and  O_48
REMARK   22  A    between atoms: C_54  and  O_59
REMARK   23  A    between atoms: C_55  and  O_58
REMARK                            x       y       z     vdW  Elec       q    Type
REMARK                         _______ _______ _______ _____ _____    ______ ____
ROOT
ATOM      1  C   UNL     1       5.373  -1.897  26.458  0.00  0.00    +0.214 A 
ATOM      2  C   UNL     1       4.332  -0.801  26.543  0.00  0.00    +0.238 A 
ATOM      3  O   UNL     1       3.222  -0.986  27.023  0.00  0.00    -0.283 OA
ATOM      4  C   UNL     1       4.666   0.523  25.961  0.00  0.00    +0.109 A 
ATOM      5  C   UNL     1       5.902   0.657  25.369  0.00  0.00    +0.147 A 
ATOM      6  C   UNL     1       6.328   1.875  24.837  0.00  0.00    +0.093 A 
ATOM      7  C   UNL     1       5.483   2.978  24.817  0.00  0.00    +0.131 A 
ATOM      8  C   UNL     1       4.207   2.855  25.373  0.00  0.00    +0.092 A 
ATOM      9  O   UNL     1       6.786  -0.365  25.224  0.00  0.00    -0.451 OA
ATOM     10  C   UNL     1       3.805   1.636  25.957  0.00  0.00    +0.135 A 
ATOM     11  C   UNL     1       6.482  -1.597  25.749  0.00  0.00    +0.181 A 
ENDROOT
BRANCH  11  12
ATOM     12  C   UNL     1       7.547  -2.546  25.385  0.00  0.00    +0.025 A 
ATOM     13  C   UNL     1       7.543  -3.123  24.105  0.00  0.00    +0.015 A 
ATOM     14  C   UNL     1       8.337  -4.238  23.829  0.00  0.00    +0.050 A 
ATOM     15  C   UNL     1       9.119  -4.784  24.834  0.00  0.00    +0.158 A 
ATOM     16  C   UNL     1       9.138  -4.211  26.101  0.00  0.00    +0.159 A 
ATOM     17  C   UNL     1       8.379  -3.080  26.386  0.00  0.00    +0.060 A 
BRANCH  16  18
ATOM     18  O   UNL     1       9.881  -4.849  27.061  0.00  0.00    -0.503 OA
ATOM     19  H   UNL     1      10.782  -4.480  27.055  0.00  0.00    +0.292 HD
ENDBRANCH  16  18
BRANCH  15  20
ATOM     20  O   UNL     1       9.822  -5.927  24.588  0.00  0.00    -0.503 OA
ATOM     21  H   UNL     1      10.648  -5.826  25.103  0.00  0.00    +0.292 HD
ENDBRANCH  15  20
ENDBRANCH  11  12
BRANCH  10  22
ATOM     22  O   UNL     1       2.555   1.558  26.511  0.00  0.00    -0.506 OA
ATOM     23  H   UNL     1       1.975   1.012  25.955  0.00  0.00    +0.292 HD
ENDBRANCH  10  22
BRANCH   7  24
ATOM     24  O   UNL     1       5.808   4.202  24.290  0.00  0.00    -0.461 OA
BRANCH  24  25
ATOM     25  C   UNL     1       6.561   4.205  23.055  0.00  0.00    +0.339 C 
ATOM     26  O   UNL     1       7.905   3.736  23.195  0.00  0.00    -0.331 OA
ATOM     27  C   UNL     1       8.688   4.512  24.119  0.00  0.00    +0.179 C 
ATOM     28  C   UNL     1       8.759   6.008  23.736  0.00  0.00    +0.177 C 
ATOM     29  C   UNL     1       7.374   6.580  23.390  0.00  0.00    +0.180 C 
ATOM     30  C   UNL     1       6.598   5.625  22.465  0.00  0.00    +0.214 C 
BRANCH  30  31
ATOM     31  O   UNL     1       5.293   6.142  22.172  0.00  0.00    -0.383 OA
ATOM     32  H   UNL     1       4.993   5.796  21.316  0.00  0.00    +0.210 HD
ENDBRANCH  30  31
BRANCH  29  33
ATOM     33  O   UNL     1       6.690   6.875  24.614  0.00  0.00    -0.386 OA
ATOM     34  H   UNL     1       6.385   6.046  25.017  0.00  0.00    +0.210 HD
ENDBRANCH  29  33
BRANCH  28  35
ATOM     35  O   UNL     1       9.629   6.208  22.618  0.00  0.00    -0.386 OA
ATOM     36  H   UNL     1      10.514   6.413  22.971  0.00  0.00    +0.210 HD
ENDBRANCH  28  35
BRANCH  27  37
ATOM     37  C   UNL     1      10.098   3.882  24.198  0.00  0.00    +0.190 C 
BRANCH  37  38
ATOM     38  O   UNL     1      10.560   3.388  22.938  0.00  0.00    -0.392 OA
ATOM     39  H   UNL     1      11.109   2.606  23.099  0.00  0.00    +0.210 HD
ENDBRANCH  37  38
ENDBRANCH  27  37
ENDBRANCH  24  25
ENDBRANCH   7  24
BRANCH   1  40
ATOM     40  O   UNL     1       5.275  -3.158  27.041  0.00  0.00    -0.453 OA
BRANCH  40  46
ATOM     41  C   UNL     1       5.540  -5.411  26.176  0.00  0.00    +0.221 C 
ATOM     42  C   UNL     1       5.654  -6.324  27.411  0.00  0.00    +0.180 C 
ATOM     43  C   UNL     1       4.267  -6.624  27.999  0.00  0.00    +0.177 C 
ATOM     44  C   UNL     1       3.489  -5.345  28.308  0.00  0.00    +0.179 C 
ATOM     45  O   UNL     1       3.360  -4.539  27.138  0.00  0.00    -0.331 OA
ATOM     46  C   UNL     1       4.560  -4.227  26.421  0.00  0.00    +0.340 C 
BRANCH  43  47
ATOM     47  O   UNL     1       4.354  -7.470  29.143  0.00  0.00    -0.386 OA
ATOM     48  H   UNL     1       4.948  -8.209  28.920  0.00  0.00    +0.210 HD
ENDBRANCH  43  47
BRANCH  42  49
ATOM     49  O   UNL     1       6.547  -5.772  28.391  0.00  0.00    -0.386 OA
ATOM     50  H   UNL     1       6.095  -5.661  29.244  0.00  0.00    +0.210 HD
ENDBRANCH  42  49
BRANCH  44  51
ATOM     51  C   UNL     1       3.973  -4.505  29.500  0.00  0.00    +0.190 C 
BRANCH  51  52
ATOM     52  O   UNL     1       3.496  -3.162  29.352  0.00  0.00    -0.392 OA
ATOM     53  H   UNL     1       3.387  -3.019  28.393  0.00  0.00    +0.210 HD
ENDBRANCH  51  52
ENDBRANCH  44  51
BRANCH  41  54
ATOM     54  O   UNL     1       5.182  -6.217  25.039  0.00  0.00    -0.337 OA
BRANCH  54  58
ATOM     55  C   UNL     1       1.459  -7.923  26.123  0.00  0.00    +0.041 C 
ATOM     56  C   UNL     1       2.150  -8.227  24.792  0.00  0.00    +0.149 C 
ATOM     57  O   UNL     1       3.539  -7.857  24.821  0.00  0.00    -0.343 OA
ATOM     58  C   UNL     1       3.771  -6.441  24.865  0.00  0.00    +0.282 C 
ATOM     59  C   UNL     1       3.170  -5.762  23.608  0.00  0.00    +0.201 C 
ATOM     60  C   UNL     1       1.678  -6.087  23.504  0.00  0.00    +0.179 C 
ATOM     61  C   UNL     1       1.435  -7.599  23.585  0.00  0.00    +0.174 C 
BRANCH  59  62
ATOM     62  O   UNL     1       3.848  -6.208  22.414  0.00  0.00    -0.384 OA
ATOM     63  H   UNL     1       4.768  -6.392  22.682  0.00  0.00    +0.210 HD
ENDBRANCH  59  62
BRANCH  60  64
ATOM     64  O   UNL     1       1.187  -5.575  22.253  0.00  0.00    -0.386 OA
ATOM     65  H   UNL     1       0.819  -4.691  22.467  0.00  0.00    +0.210 HD
ENDBRANCH  60  64
BRANCH  61  66
ATOM     66  O   UNL     1       1.929  -8.182  22.363  0.00  0.00    -0.387 OA
ATOM     67  H   UNL     1       2.868  -7.900  22.288  0.00  0.00    +0.210 HD
ENDBRANCH  61  66
ENDBRANCH  54  58
ENDBRANCH  41  54
ENDBRANCH  40  46
ENDBRANCH   1  40
TORSDOF 22
ENDMDL
MODEL 2
REMARK VINA RESULT:      -6.8      2.553     10.560
REMARK  Name = 
REMARK  23 active torsions:
REMARK  status: ('A' for Active; 'I' for Inactive)
REMARK    1  A    between atoms: C_1  and  C_2
REMARK    2  A    between atoms: C_3  and  O_62
REMARK    3  A    between atoms: C_5  and  O_61
REMARK    4  A    between atoms: C_6  and  O_60
REMARK    5  A    between atoms: C_8  and  O_11
REMARK    6  A    between atoms: O_11  and  C_12
REMARK    7  A    between atoms: C_13  and  O_24
REMARK    8  A    between atoms: C_16  and  C_22
REMARK    9  A    between atoms: C_17  and  O_21
REMARK   10  A    between atoms: C_19  and  O_20
REMARK   11  A    between atoms: C_22  and  O_23
REMARK   12  A    between atoms: O_24  and  C_25
REMARK   13  A    between atoms: C_26  and  C_52
REMARK   14  A    between atoms: C_30  and  O_37
REMARK   15  A    between atoms: C_32  and  O_36
REMARK   16  A    between atoms: O_37  and  C_38
REMARK   17  A    between atoms: C_40  and  O_51
REMARK   18  A    between atoms: C_41  and  O_50
REMARK   19  A    between atoms: C_43  and  O_49
REMARK   20  A    between atoms: C_45  and  C_47
REMARK   21  A    between atoms: C_47  and  O_48
REMARK   22  A    between atoms: C_54  and  O_59
REMARK   23  A    between atoms: C_55  and  O_58
REMARK                            x       y       z     vdW  Elec       q    Type
REMARK                         _______ _______ _______ _____ _____    ______ ____
ROOT
ATOM      1  C   UNL     1       6.818  -0.782  24.175  0.00  0.00    +0.214 A 
ATOM      2  C   UNL     1       6.471  -1.839  23.147  0.00  0.00    +0.238 A 
ATOM      3  O   UNL     1       6.931  -1.827  22.013  0.00  0.00    -0.283 OA
ATOM      4  C   UNL     1       5.488  -2.885  23.527  0.00  0.00    +0.109 A 
ATOM      5  C   UNL     1       4.947  -2.810  24.791  0.00  0.00    +0.147 A 
ATOM      6  C   UNL     1       4.051  -3.773  25.259  0.00  0.00    +0.093 A 
ATOM      7  C   UNL     1       3.614  -4.800  24.431  0.00  0.00    +0.131 A 
ATOM      8  C   UNL     1       4.116  -4.872  23.130  0.00  0.00    +0.092 A 
ATOM      9  O   UNL     1       5.204  -1.803  25.666  0.00  0.00    -0.451 OA
ATOM     10  C   UNL     1       5.061  -3.926  22.683  0.00  0.00    +0.135 A 
ATOM     11  C   UNL     1       6.104  -0.824  25.320  0.00  0.00    +0.181 A 
ENDROOT
BRANCH  11  12
ATOM     12  C   UNL     1       6.139   0.189  26.388  0.00  0.00    +0.025 A 
ATOM     13  C   UNL     1       5.555   1.445  26.160  0.00  0.00    +0.015 A 
ATOM     14  C   UNL     1       5.831   2.519  27.008  0.00  0.00    +0.050 A 
ATOM     15  C   UNL     1       6.701   2.340  28.072  0.00  0.00    +0.158 A 
ATOM     16  C   UNL     1       7.274   1.096  28.311  0.00  0.00    +0.159 A 
ATOM     17  C   UNL     1       6.985   0.007  27.496  0.00  0.00    +0.060 A 
BRANCH  16  18
ATOM     18  O   UNL     1       8.179   1.017  29.340  0.00  0.00    -0.503 OA
ATOM     19  H   UNL     1       8.858   0.360  29.108  0.00  0.00    +0.292 HD
ENDBRANCH  16  18
BRANCH  15  20
ATOM     20  O   UNL     1       7.041   3.412  28.845  0.00  0.00    -0.503 OA
ATOM     21  H   UNL     1       7.601   3.039  29.555  0.00  0.00    +0.292 HD
ENDBRANCH  15  20
ENDBRANCH  11  12
BRANCH  10  22
ATOM     22  O   UNL     1       5.547  -4.040  21.407  0.00  0.00    -0.506 OA
ATOM     23  H   UNL     1       6.506  -3.880  21.397  0.00  0.00    +0.292 HD
ENDBRANCH  10  22
BRANCH   7  24
ATOM     24  O   UNL     1       2.716  -5.770  24.798  0.00  0.00    -0.461 OA
BRANCH  24  25
ATOM     25  C   UNL     1       3.178  -7.141  24.755  0.00  0.00    +0.339 C 
ATOM     26  O   UNL     1       2.568  -7.926  23.727  0.00  0.00    -0.331 OA
ATOM     27  C   UNL     1       1.137  -8.011  23.847  0.00  0.00    +0.179 C 
ATOM     28  C   UNL     1       0.683  -8.595  25.205  0.00  0.00    +0.177 C 
ATOM     29  C   UNL     1       1.413  -7.937  26.387  0.00  0.00    +0.180 C 
ATOM     30  C   UNL     1       2.924  -7.825  26.109  0.00  0.00    +0.214 C 
BRANCH  30  31
ATOM     31  O   UNL     1       3.599  -7.179  27.197  0.00  0.00    -0.383 OA
ATOM     32  H   UNL     1       3.471  -6.219  27.132  0.00  0.00    +0.210 HD
ENDBRANCH  30  31
BRANCH  29  33
ATOM     33  O   UNL     1       0.785  -6.679  26.661  0.00  0.00    -0.386 OA
ATOM     34  H   UNL     1       0.560  -6.244  25.823  0.00  0.00    +0.210 HD
ENDBRANCH  29  33
BRANCH  28  35
ATOM     35  O   UNL     1       0.908 -10.006  25.254  0.00  0.00    -0.386 OA
ATOM     36  H   UNL     1       1.506 -10.232  24.517  0.00  0.00    +0.210 HD
ENDBRANCH  28  35
BRANCH  27  37
ATOM     37  C   UNL     1       0.607  -8.854  22.664  0.00  0.00    +0.190 C 
BRANCH  37  38
ATOM     38  O   UNL     1       1.399  -8.713  21.480  0.00  0.00    -0.392 OA
ATOM     39  H   UNL     1       1.686  -7.790  21.413  0.00  0.00    +0.210 HD
ENDBRANCH  37  38
ENDBRANCH  27  37
ENDBRANCH  24  25
ENDBRANCH   7  24
BRANCH   1  40
ATOM     40  O   UNL     1       7.792   0.202  24.032  0.00  0.00    -0.453 OA
BRANCH  40  46
ATOM     41  C   UNL     1       7.441   2.503  23.338  0.00  0.00    +0.221 C 
ATOM     42  C   UNL     1       8.653   3.290  23.870  0.00  0.00    +0.180 C 
ATOM     43  C   UNL     1       9.869   3.112  22.950  0.00  0.00    +0.177 C 
ATOM     44  C   UNL     1      10.204   1.636  22.728  0.00  0.00    +0.179 C 
ATOM     45  O   UNL     1       9.081   0.940  22.193  0.00  0.00    -0.331 OA
ATOM     46  C   UNL     1       7.837   1.064  22.894  0.00  0.00    +0.340 C 
BRANCH  43  47
ATOM     47  O   UNL     1      11.000   3.836  23.428  0.00  0.00    -0.386 OA
ATOM     48  H   UNL     1      11.120   3.610  24.368  0.00  0.00    +0.210 HD
ENDBRANCH  43  47
BRANCH  42  49
ATOM     49  O   UNL     1       8.950   2.939  25.232  0.00  0.00    -0.386 OA
ATOM     50  H   UNL     1       8.148   2.638  25.691  0.00  0.00    +0.210 HD
ENDBRANCH  42  49
BRANCH  44  51
ATOM     51  C   UNL     1      10.808   0.872  23.916  0.00  0.00    +0.190 C 
BRANCH  51  52
ATOM     52  O   UNL     1      10.557  -0.530  23.747  0.00  0.00    -0.392 OA
ATOM     53  H   UNL     1      11.414  -0.929  23.504  0.00  0.00    +0.210 HD
ENDBRANCH  51  52
ENDBRANCH  44  51
BRANCH  41  54
ATOM     54  O   UNL     1       6.819   3.268  22.290  0.00  0.00    -0.337 OA
BRANCH  54  58
ATOM     55  C   UNL     1       5.459   6.773  24.242  0.00  0.00    +0.041 C 
ATOM     56  C   UNL     1       5.049   5.369  24.688  0.00  0.00    +0.149 C 
ATOM     57  O   UNL     1       5.921   4.365  24.142  0.00  0.00    -0.343 OA
ATOM     58  C   UNL     1       5.797   4.184  22.723  0.00  0.00    +0.282 C 
ATOM     59  C   UNL     1       4.355   3.743  22.365  0.00  0.00    +0.201 C 
ATOM     60  C   UNL     1       3.351   4.770  22.894  0.00  0.00    +0.179 C 
ATOM     61  C   UNL     1       3.576   5.046  24.385  0.00  0.00    +0.174 C 
BRANCH  59  62
ATOM     62  O   UNL     1       4.064   2.446  22.926  0.00  0.00    -0.384 OA
ATOM     63  H   UNL     1       4.239   1.801  22.215  0.00  0.00    +0.210 HD
ENDBRANCH  59  62
BRANCH  60  64
ATOM     64  O   UNL     1       2.022   4.258  22.684  0.00  0.00    -0.386 OA
ATOM     65  H   UNL     1       1.797   3.788  23.515  0.00  0.00    +0.210 HD
ENDBRANCH  60  64
BRANCH  61  66
ATOM     66  O   UNL     1       3.172   3.868  25.109  0.00  0.00    -0.387 OA
ATOM     67  H   UNL     1       2.452   3.457  24.579  0.00  0.00    +0.210 HD
ENDBRANCH  61  66
ENDBRANCH  54  58
ENDBRANCH  41  54
ENDBRANCH  40  46
ENDBRANCH   1  40
TORSDOF 22
ENDMDL
MODEL 3
REMARK VINA RESULT:      -6.7      2.711      9.157
REMARK  Name = 
REMARK  23 active torsions:
REMARK  status: ('A' for Active; 'I' for Inactive)
REMARK    1  A    between atoms: C_1  and  C_2
REMARK    2  A    between atoms: C_3  and  O_62
REMARK    3  A    between atoms: C_5  and  O_61
REMARK    4  A    between atoms: C_6  and  O_60
REMARK    5  A    between atoms: C_8  and  O_11
REMARK    6  A    between atoms: O_11  and  C_12
REMARK    7  A    between atoms: C_13  and  O_24
REMARK    8  A    between atoms: C_16  and  C_22
REMARK    9  A    between atoms: C_17  and  O_21
REMARK   10  A    between atoms: C_19  and  O_20
REMARK   11  A    between atoms: C_22  and  O_23
REMARK   12  A    between atoms: O_24  and  C_25
REMARK   13  A    between atoms: C_26  and  C_52
REMARK   14  A    between atoms: C_30  and  O_37
REMARK   15  A    between atoms: C_32  and  O_36
REMARK   16  A    between atoms: O_37  and  C_38
REMARK   17  A    between atoms: C_40  and  O_51
REMARK   18  A    between atoms: C_41  and  O_50
REMARK   19  A    between atoms: C_43  and  O_49
REMARK   20  A    between atoms: C_45  and  C_47
REMARK   21  A    between atoms: C_47  and  O_48
REMARK   22  A    between atoms: C_54  and  O_59
REMARK   23  A    between atoms: C_55  and  O_58
REMARK                            x       y       z     vdW  Elec       q    Type
REMARK                         _______ _______ _______ _____ _____    ______ ____
ROOT
ATOM      1  C   UNL     1       6.396   0.064  25.901  0.00  0.00    +0.214 A 
ATOM      2  C   UNL     1       5.539  -1.022  25.285  0.00  0.00    +0.238 A 
ATOM      3  O   UNL     1       5.563  -1.277  24.089  0.00  0.00    -0.283 OA
ATOM      4  C   UNL     1       4.594  -1.749  26.170  0.00  0.00    +0.109 A 
ATOM      5  C   UNL     1       4.555  -1.373  27.495  0.00  0.00    +0.147 A 
ATOM      6  C   UNL     1       3.737  -2.029  28.415  0.00  0.00    +0.093 A 
ATOM      7  C   UNL     1       2.872  -3.036  28.007  0.00  0.00    +0.131 A 
ATOM      8  C   UNL     1       2.861  -3.407  26.660  0.00  0.00    +0.092 A 
ATOM      9  O   UNL     1       5.269  -0.336  28.007  0.00  0.00    -0.451 OA
ATOM     10  C   UNL     1       3.731  -2.776  25.747  0.00  0.00    +0.135 A 
ATOM     11  C   UNL     1       6.137   0.352  27.195  0.00  0.00    +0.181 A 
ENDROOT
BRANCH  11  12
ATOM     12  C   UNL     1       6.714   1.472  27.955  0.00  0.00    +0.025 A 
ATOM     13  C   UNL     1       7.114   1.265  29.285  0.00  0.00    +0.015 A 
ATOM     14  C   UNL     1       7.372   2.350  30.124  0.00  0.00    +0.050 A 
ATOM     15  C   UNL     1       7.216   3.639  29.639  0.00  0.00    +0.158 A 
ATOM     16  C   UNL     1       6.833   3.852  28.319  0.00  0.00    +0.159 A 
ATOM     17  C   UNL     1       6.603   2.784  27.459  0.00  0.00    +0.060 A 
BRANCH  16  18
ATOM     18  O   UNL     1       6.631   5.153  27.934  0.00  0.00    -0.503 OA
ATOM     19  H   UNL     1       7.284   5.381  27.249  0.00  0.00    +0.292 HD
ENDBRANCH  16  18
BRANCH  15  20
ATOM     20  O   UNL     1       7.380   4.697  30.485  0.00  0.00    -0.503 OA
ATOM     21  H   UNL     1       8.140   5.192  30.119  0.00  0.00    +0.292 HD
ENDBRANCH  15  20
ENDBRANCH  11  12
BRANCH  10  22
ATOM     22  O   UNL     1       3.708  -3.179  24.438  0.00  0.00    -0.506 OA
ATOM     23  H   UNL     1       2.793  -3.205  24.110  0.00  0.00    +0.292 HD
ENDBRANCH  10  22
BRANCH   7  24
ATOM     24  O   UNL     1       2.014  -3.713  28.836  0.00  0.00    -0.461 OA
BRANCH  24  25
ATOM     25  C   UNL     1       2.608  -4.479  29.910  0.00  0.00    +0.339 C 
ATOM     26  O   UNL     1       3.980  -4.818  29.691  0.00  0.00    -0.331 OA
ATOM     27  C   UNL     1       4.192  -5.602  28.502  0.00  0.00    +0.179 C 
ATOM     28  C   UNL     1       3.385  -6.920  28.503  0.00  0.00    +0.177 C 
ATOM     29  C   UNL     1       1.917  -6.697  28.902  0.00  0.00    +0.180 C 
ATOM     30  C   UNL     1       1.813  -5.777  30.133  0.00  0.00    +0.214 C 
BRANCH  30  31
ATOM     31  O   UNL     1       0.443  -5.540  30.483  0.00  0.00    -0.383 OA
ATOM     32  H   UNL     1      -0.019  -5.147  29.726  0.00  0.00    +0.210 HD
ENDBRANCH  30  31
BRANCH  29  33
ATOM     33  O   UNL     1       1.208  -6.206  27.758  0.00  0.00    -0.386 OA
ATOM     34  H   UNL     1       0.438  -5.695  28.054  0.00  0.00    +0.210 HD
ENDBRANCH  29  33
BRANCH  28  35
ATOM     35  O   UNL     1       3.964  -7.872  29.400  0.00  0.00    -0.386 OA
ATOM     36  H   UNL     1       4.704  -7.430  29.856  0.00  0.00    +0.210 HD
ENDBRANCH  28  35
BRANCH  27  37
ATOM     37  C   UNL     1       5.709  -5.867  28.369  0.00  0.00    +0.190 C 
BRANCH  37  38
ATOM     38  O   UNL     1       6.469  -4.672  28.165  0.00  0.00    -0.392 OA
ATOM     39  H   UNL     1       7.162  -4.859  27.513  0.00  0.00    +0.210 HD
ENDBRANCH  37  38
ENDBRANCH  27  37
ENDBRANCH  24  25
ENDBRANCH   7  24
BRANCH   1  40
ATOM     40  O   UNL     1       7.405   0.769  25.251  0.00  0.00    -0.453 OA
BRANCH  40  46
ATOM     41  C   UNL     1       8.726  -0.630  23.769  0.00  0.00    +0.221 C 
ATOM     42  C   UNL     1       9.006   0.228  22.522  0.00  0.00    +0.180 C 
ATOM     43  C   UNL     1      10.168   1.198  22.775  0.00  0.00    +0.177 C 
ATOM     44  C   UNL     1       9.931   2.061  24.015  0.00  0.00    +0.179 C 
ATOM     45  O   UNL     1       9.720   1.243  25.164  0.00  0.00    -0.331 OA
ATOM     46  C   UNL     1       8.714   0.226  25.069  0.00  0.00    +0.340 C 
BRANCH  43  47
ATOM     47  O   UNL     1      10.443   2.000  21.629  0.00  0.00    -0.386 OA
ATOM     48  H   UNL     1      11.333   1.767  21.311  0.00  0.00    +0.210 HD
ENDBRANCH  43  47
BRANCH  42  49
ATOM     49  O   UNL     1       7.822   0.908  22.076  0.00  0.00    -0.386 OA
ATOM     50  H   UNL     1       7.192   1.017  22.808  0.00  0.00    +0.210 HD
ENDBRANCH  42  49
BRANCH  44  51
ATOM     51  C   UNL     1       8.853   3.150  23.912  0.00  0.00    +0.190 C 
BRANCH  51  52
ATOM     52  O   UNL     1       9.318   4.187  23.039  0.00  0.00    -0.392 OA
ATOM     53  H   UNL     1       9.120   5.029  23.491  0.00  0.00    +0.210 HD
ENDBRANCH  51  52
ENDBRANCH  44  51
BRANCH  41  54
ATOM     54  O   UNL     1       9.677  -1.708  23.810  0.00  0.00    -0.337 OA
BRANCH  54  58
ATOM     55  C   UNL     1       7.624  -4.894  21.917  0.00  0.00    +0.041 C 
ATOM     56  C   UNL     1       7.082  -4.185  23.159  0.00  0.00    +0.149 C 
ATOM     57  O   UNL     1       7.735  -2.923  23.375  0.00  0.00    -0.343 OA
ATOM     58  C   UNL     1       9.110  -3.030  23.773  0.00  0.00    +0.282 C 
ATOM     59  C   UNL     1       9.220  -3.807  25.110  0.00  0.00    +0.201 C 
ATOM     60  C   UNL     1       8.564  -5.182  24.968  0.00  0.00    +0.179 C 
ATOM     61  C   UNL     1       7.136  -5.059  24.423  0.00  0.00    +0.174 C 
BRANCH  59  62
ATOM     62  O   UNL     1       8.586  -3.074  26.179  0.00  0.00    -0.384 OA
ATOM     63  H   UNL     1       8.353  -2.204  25.805  0.00  0.00    +0.210 HD
ENDBRANCH  59  62
BRANCH  60  64
ATOM     64  O   UNL     1       8.544  -5.813  26.261  0.00  0.00    -0.386 OA
ATOM     65  H   UNL     1       7.671  -5.582  26.643  0.00  0.00    +0.210 HD
ENDBRANCH  60  64
BRANCH  61  66
ATOM     66  O   UNL     1       6.325  -4.474  25.461  0.00  0.00    -0.387 OA
ATOM     67  H   UNL     1       5.846  -3.724  25.041  0.00  0.00    +0.210 HD
ENDBRANCH  61  66
ENDBRANCH  54  58
ENDBRANCH  41  54
ENDBRANCH  40  46
ENDBRANCH   1  40
TORSDOF 22
ENDMDL
MODEL 4
REMARK VINA RESULT:      -6.6      2.119      4.789
REMARK  Name = 
REMARK  23 active torsions:
REMARK  status: ('A' for Active; 'I' for Inactive)
REMARK    1  A    between atoms: C_1  and  C_2
REMARK    2  A    between atoms: C_3  and  O_62
REMARK    3  A    between atoms: C_5  and  O_61
REMARK    4  A    between atoms: C_6  and  O_60
REMARK    5  A    between atoms: C_8  and  O_11
REMARK    6  A    between atoms: O_11  and  C_12
REMARK    7  A    between atoms: C_13  and  O_24
REMARK    8  A    between atoms: C_16  and  C_22
REMARK    9  A    between atoms: C_17  and  O_21
REMARK   10  A    between atoms: C_19  and  O_20
REMARK   11  A    between atoms: C_22  and  O_23
REMARK   12  A    between atoms: O_24  and  C_25
REMARK   13  A    between atoms: C_26  and  C_52
REMARK   14  A    between atoms: C_30  and  O_37
REMARK   15  A    between atoms: C_32  and  O_36
REMARK   16  A    between atoms: O_37  and  C_38
REMARK   17  A    between atoms: C_40  and  O_51
REMARK   18  A    between atoms: C_41  and  O_50
REMARK   19  A    between atoms: C_43  and  O_49
REMARK   20  A    between atoms: C_45  and  C_47
REMARK   21  A    between atoms: C_47  and  O_48
REMARK   22  A    between atoms: C_54  and  O_59
REMARK   23  A    between atoms: C_55  and  O_58
REMARK                            x       y       z     vdW  Elec       q    Type
REMARK                         _______ _______ _______ _____ _____    ______ ____
ROOT
ATOM      1  C   UNL     1       6.219  -1.877  26.912  0.00  0.00    +0.214 A 
ATOM      2  C   UNL     1       7.583  -1.681  26.283  0.00  0.00    +0.238 A 
ATOM      3  O   UNL     1       8.465  -2.526  26.352  0.00  0.00    -0.283 OA
ATOM      4  C   UNL     1       7.863  -0.385  25.616  0.00  0.00    +0.109 A 
ATOM      5  C   UNL     1       6.860   0.560  25.629  0.00  0.00    +0.147 A 
ATOM      6  C   UNL     1       7.008   1.790  24.987  0.00  0.00    +0.093 A 
ATOM      7  C   UNL     1       8.208   2.135  24.379  0.00  0.00    +0.131 A 
ATOM      8  C   UNL     1       9.256   1.211  24.389  0.00  0.00    +0.092 A 
ATOM      9  O   UNL     1       5.676   0.396  26.277  0.00  0.00    -0.451 OA
ATOM     10  C   UNL     1       9.079  -0.051  24.993  0.00  0.00    +0.135 A 
ATOM     11  C   UNL     1       5.411  -0.795  26.907  0.00  0.00    +0.181 A 
ENDROOT
BRANCH  11  12
ATOM     12  C   UNL     1       4.118  -0.689  27.602  0.00  0.00    +0.025 A 
ATOM     13  C   UNL     1       4.102  -0.487  28.991  0.00  0.00    +0.015 A 
ATOM     14  C   UNL     1       2.929  -0.687  29.721  0.00  0.00    +0.050 A 
ATOM     15  C   UNL     1       1.781  -1.104  29.067  0.00  0.00    +0.158 A 
ATOM     16  C   UNL     1       1.786  -1.295  27.690  0.00  0.00    +0.159 A 
ATOM     17  C   UNL     1       2.936  -1.069  26.940  0.00  0.00    +0.060 A 
BRANCH  16  18
ATOM     18  O   UNL     1       0.633  -1.776  27.125  0.00  0.00    -0.503 OA
ATOM     19  H   UNL     1      -0.025  -1.059  27.098  0.00  0.00    +0.292 HD
ENDBRANCH  16  18
BRANCH  15  20
ATOM     20  O   UNL     1       0.662  -1.388  29.794  0.00  0.00    -0.503 OA
ATOM     21  H   UNL     1       0.951  -2.063  30.441  0.00  0.00    +0.292 HD
ENDBRANCH  15  20
ENDBRANCH  11  12
BRANCH  10  22
ATOM     22  O   UNL     1      10.121  -0.940  24.967  0.00  0.00    -0.506 OA
ATOM     23  H   UNL     1      10.864  -0.602  25.494  0.00  0.00    +0.292 HD
ENDBRANCH  10  22
BRANCH   7  24
ATOM     24  O   UNL     1       8.451   3.331  23.752  0.00  0.00    -0.461 OA
BRANCH  24  25
ATOM     25  C   UNL     1       8.391   4.524  24.568  0.00  0.00    +0.339 C 
ATOM     26  O   UNL     1       7.182   4.651  25.320  0.00  0.00    -0.331 OA
ATOM     27  C   UNL     1       6.000   4.693  24.499  0.00  0.00    +0.179 C 
ATOM     28  C   UNL     1       6.028   5.846  23.469  0.00  0.00    +0.177 C 
ATOM     29  C   UNL     1       7.366   5.913  22.716  0.00  0.00    +0.180 C 
ATOM     30  C   UNL     1       8.554   5.774  23.687  0.00  0.00    +0.214 C 
BRANCH  30  31
ATOM     31  O   UNL     1       9.801   5.800  22.980  0.00  0.00    -0.383 OA
ATOM     32  H   UNL     1       9.879   5.002  22.433  0.00  0.00    +0.210 HD
ENDBRANCH  30  31
BRANCH  29  33
ATOM     33  O   UNL     1       7.352   4.923  21.681  0.00  0.00    -0.386 OA
ATOM     34  H   UNL     1       6.648   4.279  21.864  0.00  0.00    +0.210 HD
ENDBRANCH  29  33
BRANCH  28  35
ATOM     35  O   UNL     1       5.796   7.105  24.107  0.00  0.00    -0.386 OA
ATOM     36  H   UNL     1       4.900   7.398  23.857  0.00  0.00    +0.210 HD
ENDBRANCH  28  35
BRANCH  27  37
ATOM     37  C   UNL     1       4.773   4.799  25.433  0.00  0.00    +0.190 C 
BRANCH  37  38
ATOM     38  O   UNL     1       3.689   5.528  24.850  0.00  0.00    -0.392 OA
ATOM     39  H   UNL     1       3.909   6.473  24.873  0.00  0.00    +0.210 HD
ENDBRANCH  37  38
ENDBRANCH  27  37
ENDBRANCH  24  25
ENDBRANCH   7  24
BRANCH   1  40
ATOM     40  O   UNL     1       5.749  -3.058  27.479  0.00  0.00    -0.453 OA
BRANCH  40  46
ATOM     41  C   UNL     1       6.002  -5.208  26.380  0.00  0.00    +0.221 C 
ATOM     42  C   UNL     1       6.049  -6.254  27.509  0.00  0.00    +0.180 C 
ATOM     43  C   UNL     1       4.635  -6.583  28.008  0.00  0.00    +0.177 C 
ATOM     44  C   UNL     1       3.871  -5.327  28.429  0.00  0.00    +0.179 C 
ATOM     45  O   UNL     1       3.804  -4.395  27.352  0.00  0.00    -0.331 OA
ATOM     46  C   UNL     1       5.037  -4.035  26.718  0.00  0.00    +0.340 C 
BRANCH  43  47
ATOM     47  O   UNL     1       4.659  -7.552  29.054  0.00  0.00    -0.386 OA
ATOM     48  H   UNL     1       5.003  -7.115  29.853  0.00  0.00    +0.210 HD
ENDBRANCH  43  47
BRANCH  42  49
ATOM     49  O   UNL     1       6.914  -5.835  28.577  0.00  0.00    -0.386 OA
ATOM     50  H   UNL     1       6.796  -4.889  28.763  0.00  0.00    +0.210 HD
ENDBRANCH  42  49
BRANCH  44  51
ATOM     51  C   UNL     1       4.324  -4.636  29.724  0.00  0.00    +0.190 C 
BRANCH  51  52
ATOM     52  O   UNL     1       3.177  -4.102  30.396  0.00  0.00    -0.392 OA
ATOM     53  H   UNL     1       2.597  -3.744  29.697  0.00  0.00    +0.210 HD
ENDBRANCH  51  52
ENDBRANCH  44  51
BRANCH  41  54
ATOM     54  O   UNL     1       5.673  -5.875  25.148  0.00  0.00    -0.337 OA
BRANCH  54  58
ATOM     55  C   UNL     1       8.567  -3.482  23.186  0.00  0.00    +0.041 C 
ATOM     56  C   UNL     1       7.065  -3.320  22.949  0.00  0.00    +0.149 C 
ATOM     57  O   UNL     1       6.294  -3.950  23.987  0.00  0.00    -0.343 OA
ATOM     58  C   UNL     1       6.359  -5.384  23.982  0.00  0.00    +0.282 C 
ATOM     59  C   UNL     1       5.812  -5.940  22.642  0.00  0.00    +0.201 C 
ATOM     60  C   UNL     1       6.591  -5.335  21.472  0.00  0.00    +0.179 C 
ATOM     61  C   UNL     1       6.619  -3.804  21.559  0.00  0.00    +0.174 C 
BRANCH  59  62
ATOM     62  O   UNL     1       4.408  -5.636  22.500  0.00  0.00    -0.384 OA
ATOM     63  H   UNL     1       4.266  -5.467  21.550  0.00  0.00    +0.210 HD
ENDBRANCH  59  62
BRANCH  60  64
ATOM     64  O   UNL     1       5.962  -5.746  20.245  0.00  0.00    -0.386 OA
ATOM     65  H   UNL     1       6.317  -6.643  20.066  0.00  0.00    +0.210 HD
ENDBRANCH  60  64
BRANCH  61  66
ATOM     66  O   UNL     1       5.287  -3.330  21.277  0.00  0.00    -0.387 OA
ATOM     67  H   UNL     1       4.800  -3.367  22.131  0.00  0.00    +0.210 HD
ENDBRANCH  61  66
ENDBRANCH  54  58
ENDBRANCH  41  54
ENDBRANCH  40  46
ENDBRANCH   1  40
TORSDOF 22
ENDMDL
MODEL 5
REMARK VINA RESULT:      -6.6      2.692      5.256
REMARK  Name = 
REMARK  23 active torsions:
REMARK  status: ('A' for Active; 'I' for Inactive)
REMARK    1  A    between atoms: C_1  and  C_2
REMARK    2  A    between atoms: C_3  and  O_62
REMARK    3  A    between atoms: C_5  and  O_61
REMARK    4  A    between atoms: C_6  and  O_60
REMARK    5  A    between atoms: C_8  and  O_11
REMARK    6  A    between atoms: O_11  and  C_12
REMARK    7  A    between atoms: C_13  and  O_24
REMARK    8  A    between atoms: C_16  and  C_22
REMARK    9  A    between atoms: C_17  and  O_21
REMARK   10  A    between atoms: C_19  and  O_20
REMARK   11  A    between atoms: C_22  and  O_23
REMARK   12  A    between atoms: O_24  and  C_25
REMARK   13  A    between atoms: C_26  and  C_52
REMARK   14  A    between atoms: C_30  and  O_37
REMARK   15  A    between atoms: C_32  and  O_36
REMARK   16  A    between atoms: O_37  and  C_38
REMARK   17  A    between atoms: C_40  and  O_51
REMARK   18  A    between atoms: C_41  and  O_50
REMARK   19  A    between atoms: C_43  and  O_49
REMARK   20  A    between atoms: C_45  and  C_47
REMARK   21  A    between atoms: C_47  and  O_48
REMARK   22  A    between atoms: C_54  and  O_59
REMARK   23  A    between atoms: C_55  and  O_58
REMARK                            x       y       z     vdW  Elec       q    Type
REMARK                         _______ _______ _______ _____ _____    ______ ____
ROOT
ATOM      1  C   UNL     1       6.574  -0.976  24.941  0.00  0.00    +0.214 A 
ATOM      2  C   UNL     1       7.144  -0.147  23.809  0.00  0.00    +0.238 A 
ATOM      3  O   UNL     1       8.164  -0.463  23.213  0.00  0.00    -0.283 OA
ATOM      4  C   UNL     1       6.460   1.125  23.465  0.00  0.00    +0.109 A 
ATOM      5  C   UNL     1       5.357   1.470  24.215  0.00  0.00    +0.147 A 
ATOM      6  C   UNL     1       4.618   2.621  23.938  0.00  0.00    +0.093 A 
ATOM      7  C   UNL     1       5.020   3.502  22.942  0.00  0.00    +0.131 A 
ATOM      8  C   UNL     1       6.161   3.197  22.196  0.00  0.00    +0.092 A 
ATOM      9  O   UNL     1       4.916   0.756  25.283  0.00  0.00    -0.451 OA
ATOM     10  C   UNL     1       6.871   2.005  22.446  0.00  0.00    +0.135 A 
ATOM     11  C   UNL     1       5.548  -0.417  25.617  0.00  0.00    +0.181 A 
ENDROOT
BRANCH  11  12
ATOM     12  C   UNL     1       4.946  -0.948  26.851  0.00  0.00    +0.025 A 
ATOM     13  C   UNL     1       3.854  -1.825  26.758  0.00  0.00    +0.015 A 
ATOM     14  C   UNL     1       3.071  -2.102  27.880  0.00  0.00    +0.050 A 
ATOM     15  C   UNL     1       3.371  -1.492  29.088  0.00  0.00    +0.158 A 
ATOM     16  C   UNL     1       4.458  -0.632  29.191  0.00  0.00    +0.159 A 
ATOM     17  C   UNL     1       5.269  -0.369  28.092  0.00  0.00    +0.060 A 
BRANCH  16  18
ATOM     18  O   UNL     1       4.648  -0.012  30.400  0.00  0.00    -0.503 OA
ATOM     19  H   UNL     1       4.685   0.950  30.256  0.00  0.00    +0.292 HD
ENDBRANCH  16  18
BRANCH  15  20
ATOM     20  O   UNL     1       2.551  -1.692  30.160  0.00  0.00    -0.503 OA
ATOM     21  H   UNL     1       1.904  -2.361  29.857  0.00  0.00    +0.292 HD
ENDBRANCH  15  20
ENDBRANCH  11  12
BRANCH  10  22
ATOM     22  O   UNL     1       7.973   1.727  21.682  0.00  0.00    -0.506 OA
ATOM     23  H   UNL     1       8.581   1.145  22.169  0.00  0.00    +0.292 HD
ENDBRANCH  10  22
BRANCH   7  24
ATOM     24  O   UNL     1       4.372   4.668  22.622  0.00  0.00    -0.461 OA
BRANCH  24  25
ATOM     25  C   UNL     1       2.959   4.738  22.926  0.00  0.00    +0.339 C 
ATOM     26  O   UNL     1       2.149   3.881  22.116  0.00  0.00    -0.331 OA
ATOM     27  C   UNL     1       2.249   4.162  20.709  0.00  0.00    +0.179 C 
ATOM     28  C   UNL     1       1.870   5.620  20.361  0.00  0.00    +0.177 C 
ATOM     29  C   UNL     1       2.555   6.631  21.294  0.00  0.00    +0.180 C 
ATOM     30  C   UNL     1       2.456   6.182  22.764  0.00  0.00    +0.214 C 
BRANCH  30  31
ATOM     31  O   UNL     1       3.126   7.108  23.630  0.00  0.00    -0.383 OA
ATOM     32  H   UNL     1       3.447   6.639  24.416  0.00  0.00    +0.210 HD
ENDBRANCH  30  31
BRANCH  29  33
ATOM     33  O   UNL     1       3.901   6.822  20.842  0.00  0.00    -0.386 OA
ATOM     34  H   UNL     1       4.168   7.740  21.010  0.00  0.00    +0.210 HD
ENDBRANCH  29  33
BRANCH  28  35
ATOM     35  O   UNL     1       0.454   5.811  20.438  0.00  0.00    -0.386 OA
ATOM     36  H   UNL     1       0.169   6.218  19.600  0.00  0.00    +0.210 HD
ENDBRANCH  28  35
BRANCH  27  37
ATOM     37  C   UNL     1       1.357   3.150  19.954  0.00  0.00    +0.190 C 
BRANCH  37  38
ATOM     38  O   UNL     1       1.576   1.798  20.366  0.00  0.00    -0.392 OA
ATOM     39  H   UNL     1       0.717   1.351  20.416  0.00  0.00    +0.210 HD
ENDBRANCH  37  38
ENDBRANCH  27  37
ENDBRANCH  24  25
ENDBRANCH   7  24
BRANCH   1  40
ATOM     40  O   UNL     1       7.017  -2.239  25.325  0.00  0.00    -0.453 OA
BRANCH  40  46
ATOM     41  C   UNL     1       5.862  -3.475  23.583  0.00  0.00    +0.221 C 
ATOM     42  C   UNL     1       6.966  -4.139  22.738  0.00  0.00    +0.180 C 
ATOM     43  C   UNL     1       7.481  -5.416  23.417  0.00  0.00    +0.177 C 
ATOM     44  C   UNL     1       7.944  -5.152  24.851  0.00  0.00    +0.179 C 
ATOM     45  O   UNL     1       6.891  -4.580  25.623  0.00  0.00    -0.331 OA
ATOM     46  C   UNL     1       6.245  -3.417  25.091  0.00  0.00    +0.340 C 
BRANCH  43  47
ATOM     47  O   UNL     1       8.503  -6.044  22.647  0.00  0.00    -0.386 OA
ATOM     48  H   UNL     1       9.164  -6.401  23.268  0.00  0.00    +0.210 HD
ENDBRANCH  43  47
BRANCH  42  49
ATOM     49  O   UNL     1       8.028  -3.217  22.445  0.00  0.00    -0.386 OA
ATOM     50  H   UNL     1       8.049  -3.007  21.497  0.00  0.00    +0.210 HD
ENDBRANCH  42  49
BRANCH  44  51
ATOM     51  C   UNL     1       9.247  -4.358  25.028  0.00  0.00    +0.190 C 
BRANCH  51  52
ATOM     52  O   UNL     1      10.359  -5.261  24.963  0.00  0.00    -0.392 OA
ATOM     53  H   UNL     1      10.056  -6.092  25.375  0.00  0.00    +0.210 HD
ENDBRANCH  51  52
ENDBRANCH  44  51
BRANCH  41  54
ATOM     54  O   UNL     1       4.621  -4.161  23.339  0.00  0.00    -0.337 OA
BRANCH  54  58
ATOM     55  C   UNL     1       4.800  -6.737  26.697  0.00  0.00    +0.041 C 
ATOM     56  C   UNL     1       3.892  -7.009  25.496  0.00  0.00    +0.149 C 
ATOM     57  O   UNL     1       4.285  -6.235  24.350  0.00  0.00    -0.343 OA
ATOM     58  C   UNL     1       4.052  -4.825  24.482  0.00  0.00    +0.282 C 
ATOM     59  C   UNL     1       2.540  -4.550  24.688  0.00  0.00    +0.201 C 
ATOM     60  C   UNL     1       2.033  -5.323  25.908  0.00  0.00    +0.179 C 
ATOM     61  C   UNL     1       2.400  -6.809  25.812  0.00  0.00    +0.174 C 
BRANCH  59  62
ATOM     62  O   UNL     1       1.787  -4.939  23.520  0.00  0.00    -0.384 OA
ATOM     63  H   UNL     1       1.028  -4.328  23.475  0.00  0.00    +0.210 HD
ENDBRANCH  59  62
BRANCH  60  64
ATOM     64  O   UNL     1       0.604  -5.173  25.981  0.00  0.00    -0.386 OA
ATOM     65  H   UNL     1       0.271  -5.496  25.117  0.00  0.00    +0.210 HD
ENDBRANCH  60  64
BRANCH  61  66
ATOM     66  O   UNL     1       1.594  -7.387  24.766  0.00  0.00    -0.387 OA
ATOM     67  H   UNL     1       2.227  -7.750  24.106  0.00  0.00    +0.210 HD
ENDBRANCH  61  66
ENDBRANCH  54  58
ENDBRANCH  41  54
ENDBRANCH  40  46
ENDBRANCH   1  40
TORSDOF 22
ENDMDL
MODEL 6
REMARK VINA RESULT:      -6.6      1.613      2.221
REMARK  Name = 
REMARK  23 active torsions:
REMARK  status: ('A' for Active; 'I' for Inactive)
REMARK    1  A    between atoms: C_1  and  C_2
REMARK    2  A    between atoms: C_3  and  O_62
REMARK    3  A    between atoms: C_5  and  O_61
REMARK    4  A    between atoms: C_6  and  O_60
REMARK    5  A    between atoms: C_8  and  O_11
REMARK    6  A    between atoms: O_11  and  C_12
REMARK    7  A    between atoms: C_13  and  O_24
REMARK    8  A    between atoms: C_16  and  C_22
REMARK    9  A    between atoms: C_17  and  O_21
REMARK   10  A    between atoms: C_19  and  O_20
REMARK   11  A    between atoms: C_22  and  O_23
REMARK   12  A    between atoms: O_24  and  C_25
REMARK   13  A    between atoms: C_26  and  C_52
REMARK   14  A    between atoms: C_30  and  O_37
REMARK   15  A    between atoms: C_32  and  O_36
REMARK   16  A    between atoms: O_37  and  C_38
REMARK   17  A    between atoms: C_40  and  O_51
REMARK   18  A    between atoms: C_41  and  O_50
REMARK   19  A    between atoms: C_43  and  O_49
REMARK   20  A    between atoms: C_45  and  C_47
REMARK   21  A    between atoms: C_47  and  O_48
REMARK   22  A    between atoms: C_54  and  O_59
REMARK   23  A    between atoms: C_55  and  O_58
REMARK                            x       y       z     vdW  Elec       q    Type
REMARK                         _______ _______ _______ _____ _____    ______ ____
ROOT
ATOM      1  C   UNL     1       5.163  -1.795  26.692  0.00  0.00    +0.214 A 
ATOM      2  C   UNL     1       3.938  -1.018  27.129  0.00  0.00    +0.238 A 
ATOM      3  O   UNL     1       3.008  -1.541  27.726  0.00  0.00    -0.283 OA
ATOM      4  C   UNL     1       3.855   0.417  26.755  0.00  0.00    +0.109 A 
ATOM      5  C   UNL     1       4.897   0.938  26.020  0.00  0.00    +0.147 A 
ATOM      6  C   UNL     1       4.934   2.287  25.662  0.00  0.00    +0.093 A 
ATOM      7  C   UNL     1       3.876   3.133  25.969  0.00  0.00    +0.131 A 
ATOM      8  C   UNL     1       2.787   2.618  26.677  0.00  0.00    +0.092 A 
ATOM      9  O   UNL     1       5.942   0.201  25.562  0.00  0.00    -0.451 OA
ATOM     10  C   UNL     1       2.783   1.267  27.081  0.00  0.00    +0.135 A 
ATOM     11  C   UNL     1       6.025  -1.130  25.892  0.00  0.00    +0.181 A 
ENDROOT
BRANCH  11  12
ATOM     12  C   UNL     1       7.186  -1.720  25.208  0.00  0.00    +0.025 A 
ATOM     13  C   UNL     1       8.479  -1.371  25.628  0.00  0.00    +0.015 A 
ATOM     14  C   UNL     1       9.586  -1.658  24.827  0.00  0.00    +0.050 A 
ATOM     15  C   UNL     1       9.397  -2.276  23.601  0.00  0.00    +0.158 A 
ATOM     16  C   UNL     1       8.121  -2.635  23.183  0.00  0.00    +0.159 A 
ATOM     17  C   UNL     1       7.010  -2.388  23.983  0.00  0.00    +0.060 A 
BRANCH  16  18
ATOM     18  O   UNL     1       8.008  -3.179  21.928  0.00  0.00    -0.503 OA
ATOM     19  H   UNL     1       7.103  -3.029  21.603  0.00  0.00    +0.292 HD
ENDBRANCH  16  18
BRANCH  15  20
ATOM     20  O   UNL     1      10.469  -2.472  22.779  0.00  0.00    -0.503 OA
ATOM     21  H   UNL     1      10.132  -2.274  21.881  0.00  0.00    +0.292 HD
ENDBRANCH  15  20
ENDBRANCH  11  12
BRANCH  10  22
ATOM     22  O   UNL     1       1.708   0.801  27.791  0.00  0.00    -0.506 OA
ATOM     23  H   UNL     1       1.090   0.340  27.199  0.00  0.00    +0.292 HD
ENDBRANCH  10  22
BRANCH   7  24
ATOM     24  O   UNL     1       3.815   4.462  25.632  0.00  0.00    -0.461 OA
BRANCH  24  25
ATOM     25  C   UNL     1       3.382   4.778  24.288  0.00  0.00    +0.339 C 
ATOM     26  O   UNL     1       4.264   4.303  23.268  0.00  0.00    -0.331 OA
ATOM     27  C   UNL     1       5.597   4.834  23.372  0.00  0.00    +0.179 C 
ATOM     28  C   UNL     1       5.632   6.379  23.329  0.00  0.00    +0.177 C 
ATOM     29  C   UNL     1       4.589   7.004  24.270  0.00  0.00    +0.180 C 
ATOM     30  C   UNL     1       3.227   6.301  24.131  0.00  0.00    +0.214 C 
BRANCH  30  31
ATOM     31  O   UNL     1       2.265   6.860  25.034  0.00  0.00    -0.383 OA
ATOM     32  H   UNL     1       2.331   6.414  25.893  0.00  0.00    +0.210 HD
ENDBRANCH  30  31
BRANCH  29  33
ATOM     33  O   UNL     1       5.113   6.980  25.603  0.00  0.00    -0.386 OA
ATOM     34  H   UNL     1       5.203   7.891  25.928  0.00  0.00    +0.210 HD
ENDBRANCH  29  33
BRANCH  28  35
ATOM     35  O   UNL     1       5.397   6.858  22.002  0.00  0.00    -0.386 OA
ATOM     36  H   UNL     1       5.418   7.832  22.035  0.00  0.00    +0.210 HD
ENDBRANCH  28  35
BRANCH  27  37
ATOM     37  C   UNL     1       6.447   4.218  22.237  0.00  0.00    +0.190 C 
BRANCH  37  38
ATOM     38  O   UNL     1       7.607   4.995  21.923  0.00  0.00    -0.392 OA
ATOM     39  H   UNL     1       8.387   4.527  22.257  0.00  0.00    +0.210 HD
ENDBRANCH  37  38
ENDBRANCH  27  37
ENDBRANCH  24  25
ENDBRANCH   7  24
BRANCH   1  40
ATOM     40  O   UNL     1       5.459  -3.109  27.043  0.00  0.00    -0.453 OA
BRANCH  40  46
ATOM     41  C   UNL     1       5.853  -5.227  25.921  0.00  0.00    +0.221 C 
ATOM     42  C   UNL     1       6.313  -6.204  27.019  0.00  0.00    +0.180 C 
ATOM     43  C   UNL     1       5.111  -6.749  27.804  0.00  0.00    +0.177 C 
ATOM     44  C   UNL     1       4.243  -5.626  28.372  0.00  0.00    +0.179 C 
ATOM     45  O   UNL     1       3.793  -4.762  27.330  0.00  0.00    -0.331 OA
ATOM     46  C   UNL     1       4.788  -4.222  26.450  0.00  0.00    +0.340 C 
BRANCH  43  47
ATOM     47  O   UNL     1       5.519  -7.657  28.825  0.00  0.00    -0.386 OA
ATOM     48  H   UNL     1       5.368  -7.224  29.684  0.00  0.00    +0.210 HD
ENDBRANCH  43  47
BRANCH  42  49
ATOM     49  O   UNL     1       7.292  -5.602  27.881  0.00  0.00    -0.386 OA
ATOM     50  H   UNL     1       7.631  -4.778  27.492  0.00  0.00    +0.210 HD
ENDBRANCH  42  49
BRANCH  44  51
ATOM     51  C   UNL     1       4.825  -4.817  29.541  0.00  0.00    +0.190 C 
BRANCH  51  52
ATOM     52  O   UNL     1       4.068  -3.611  29.699  0.00  0.00    -0.392 OA
ATOM     53  H   UNL     1       3.146  -3.889  29.856  0.00  0.00    +0.210 HD
ENDBRANCH  51  52
ENDBRANCH  44  51
BRANCH  41  54
ATOM     54  O   UNL     1       5.399  -5.988  24.788  0.00  0.00    -0.337 OA
BRANCH  54  58
ATOM     55  C   UNL     1       1.779  -7.635  26.248  0.00  0.00    +0.041 C 
ATOM     56  C   UNL     1       2.369  -8.014  24.889  0.00  0.00    +0.149 C 
ATOM     57  O   UNL     1       3.754  -7.641  24.790  0.00  0.00    -0.343 OA
ATOM     58  C   UNL     1       3.980  -6.224  24.735  0.00  0.00    +0.282 C 
ATOM     59  C   UNL     1       3.282  -5.620  23.490  0.00  0.00    +0.201 C 
ATOM     60  C   UNL     1       1.788  -5.952  23.519  0.00  0.00    +0.179 C 
ATOM     61  C   UNL     1       1.561  -7.457  23.705  0.00  0.00    +0.174 C 
BRANCH  59  62
ATOM     62  O   UNL     1       3.870  -6.133  22.276  0.00  0.00    -0.384 OA
ATOM     63  H   UNL     1       3.952  -5.369  21.675  0.00  0.00    +0.210 HD
ENDBRANCH  59  62
BRANCH  60  64
ATOM     64  O   UNL     1       1.199  -5.515  22.282  0.00  0.00    -0.386 OA
ATOM     65  H   UNL     1       0.236  -5.465  22.462  0.00  0.00    +0.210 HD
ENDBRANCH  60  64
BRANCH  61  66
ATOM     66  O   UNL     1       1.963  -8.110  22.484  0.00  0.00    -0.387 OA
ATOM     67  H   UNL     1       1.987  -7.407  21.796  0.00  0.00    +0.210 HD
ENDBRANCH  61  66
ENDBRANCH  54  58
ENDBRANCH  41  54
ENDBRANCH  40  46
ENDBRANCH   1  40
TORSDOF 22
ENDMDL
MODEL 7
REMARK VINA RESULT:      -6.6      1.737      3.902
REMARK  Name = 
REMARK  23 active torsions:
REMARK  status: ('A' for Active; 'I' for Inactive)
REMARK    1  A    between atoms: C_1  and  C_2
REMARK    2  A    between atoms: C_3  and  O_62
REMARK    3  A    between atoms: C_5  and  O_61
REMARK    4  A    between atoms: C_6  and  O_60
REMARK    5  A    between atoms: C_8  and  O_11
REMARK    6  A    between atoms: O_11  and  C_12
REMARK    7  A    between atoms: C_13  and  O_24
REMARK    8  A    between atoms: C_16  and  C_22
REMARK    9  A    between atoms: C_17  and  O_21
REMARK   10  A    between atoms: C_19  and  O_20
REMARK   11  A    between atoms: C_22  and  O_23
REMARK   12  A    between atoms: O_24  and  C_25
REMARK   13  A    between atoms: C_26  and  C_52
REMARK   14  A    between atoms: C_30  and  O_37
REMARK   15  A    between atoms: C_32  and  O_36
REMARK   16  A    between atoms: O_37  and  C_38
REMARK   17  A    between atoms: C_40  and  O_51
REMARK   18  A    between atoms: C_41  and  O_50
REMARK   19  A    between atoms: C_43  and  O_49
REMARK   20  A    between atoms: C_45  and  C_47
REMARK   21  A    between atoms: C_47  and  O_48
REMARK   22  A    between atoms: C_54  and  O_59
REMARK   23  A    between atoms: C_55  and  O_58
REMARK                            x       y       z     vdW  Elec       q    Type
REMARK                         _______ _______ _______ _____ _____    ______ ____
ROOT
ATOM      1  C   UNL     1       6.048  -1.906  26.354  0.00  0.00    +0.214 A 
ATOM      2  C   UNL     1       7.226  -1.628  25.444  0.00  0.00    +0.238 A 
ATOM      3  O   UNL     1       8.162  -2.407  25.326  0.00  0.00    -0.283 OA
ATOM      4  C   UNL     1       7.259  -0.330  24.724  0.00  0.00    +0.109 A 
ATOM      5  C   UNL     1       6.216   0.541  24.948  0.00  0.00    +0.147 A 
ATOM      6  C   UNL     1       6.131   1.765  24.281  0.00  0.00    +0.093 A 
ATOM      7  C   UNL     1       7.144   2.180  23.425  0.00  0.00    +0.131 A 
ATOM      8  C   UNL     1       8.235   1.333  23.215  0.00  0.00    +0.092 A 
ATOM      9  O   UNL     1       5.215   0.309  25.837  0.00  0.00    -0.451 OA
ATOM     10  C   UNL     1       8.285   0.075  23.851  0.00  0.00    +0.135 A 
ATOM     11  C   UNL     1       5.180  -0.883  26.517  0.00  0.00    +0.181 A 
ENDROOT
BRANCH  11  12
ATOM     12  C   UNL     1       4.063  -0.854  27.475  0.00  0.00    +0.025 A 
ATOM     13  C   UNL     1       4.326  -0.578  28.826  0.00  0.00    +0.015 A 
ATOM     14  C   UNL     1       3.363  -0.841  29.802  0.00  0.00    +0.050 A 
ATOM     15  C   UNL     1       2.147  -1.391  29.430  0.00  0.00    +0.158 A 
ATOM     16  C   UNL     1       1.875  -1.656  28.092  0.00  0.00    +0.159 A 
ATOM     17  C   UNL     1       2.809  -1.371  27.102  0.00  0.00    +0.060 A 
BRANCH  16  18
ATOM     18  O   UNL     1       0.679  -2.266  27.811  0.00  0.00    -0.503 OA
ATOM     19  H   UNL     1       0.754  -2.720  26.953  0.00  0.00    +0.292 HD
ENDBRANCH  16  18
BRANCH  15  20
ATOM     20  O   UNL     1       1.244  -1.733  30.394  0.00  0.00    -0.503 OA
ATOM     21  H   UNL     1       0.462  -2.053  29.900  0.00  0.00    +0.292 HD
ENDBRANCH  15  20
ENDBRANCH  11  12
BRANCH  10  22
ATOM     22  O   UNL     1       9.360  -0.739  23.606  0.00  0.00    -0.506 OA
ATOM     23  H   UNL     1       9.704  -0.580  22.711  0.00  0.00    +0.292 HD
ENDBRANCH  10  22
BRANCH   7  24
ATOM     24  O   UNL     1       7.157   3.375  22.753  0.00  0.00    -0.461 OA
BRANCH  24  25
ATOM     25  C   UNL     1       8.058   4.395  23.246  0.00  0.00    +0.339 C 
ATOM     26  O   UNL     1       8.179   4.422  24.670  0.00  0.00    -0.331 OA
ATOM     27  C   UNL     1       6.931   4.659  25.346  0.00  0.00    +0.179 C 
ATOM     28  C   UNL     1       6.258   5.983  24.914  0.00  0.00    +0.177 C 
ATOM     29  C   UNL     1       6.231   6.143  23.386  0.00  0.00    +0.180 C 
ATOM     30  C   UNL     1       7.595   5.782  22.768  0.00  0.00    +0.214 C 
BRANCH  30  31
ATOM     31  O   UNL     1       7.558   5.897  21.339  0.00  0.00    -0.383 OA
ATOM     32  H   UNL     1       6.673   5.658  21.019  0.00  0.00    +0.210 HD
ENDBRANCH  30  31
BRANCH  29  33
ATOM     33  O   UNL     1       5.144   5.366  22.870  0.00  0.00    -0.386 OA
ATOM     34  H   UNL     1       5.482   4.745  22.204  0.00  0.00    +0.210 HD
ENDBRANCH  29  33
BRANCH  28  35
ATOM     35  O   UNL     1       6.937   7.108  25.481  0.00  0.00    -0.386 OA
ATOM     36  H   UNL     1       6.344   7.878  25.398  0.00  0.00    +0.210 HD
ENDBRANCH  28  35
BRANCH  27  37
ATOM     37  C   UNL     1       7.198   4.631  26.868  0.00  0.00    +0.190 C 
BRANCH  37  38
ATOM     38  O   UNL     1       7.558   3.332  27.347  0.00  0.00    -0.392 OA
ATOM     39  H   UNL     1       6.766   2.773  27.338  0.00  0.00    +0.210 HD
ENDBRANCH  37  38
ENDBRANCH  27  37
ENDBRANCH  24  25
ENDBRANCH   7  24
BRANCH   1  40
ATOM     40  O   UNL     1       5.799  -3.103  27.018  0.00  0.00    -0.453 OA
BRANCH  40  46
ATOM     41  C   UNL     1       6.074  -5.204  25.831  0.00  0.00    +0.221 C 
ATOM     42  C   UNL     1       6.513  -6.231  26.891  0.00  0.00    +0.180 C 
ATOM     43  C   UNL     1       5.305  -6.745  27.688  0.00  0.00    +0.177 C 
ATOM     44  C   UNL     1       4.500  -5.600  28.305  0.00  0.00    +0.179 C 
ATOM     45  O   UNL     1       4.068  -4.689  27.297  0.00  0.00    -0.331 OA
ATOM     46  C   UNL     1       5.066  -4.169  26.411  0.00  0.00    +0.340 C 
BRANCH  43  47
ATOM     47  O   UNL     1       5.694  -7.698  28.674  0.00  0.00    -0.386 OA
ATOM     48  H   UNL     1       5.489  -8.584  28.326  0.00  0.00    +0.210 HD
ENDBRANCH  43  47
BRANCH  42  49
ATOM     49  O   UNL     1       7.537  -5.696  27.747  0.00  0.00    -0.386 OA
ATOM     50  H   UNL     1       7.565  -4.727  27.684  0.00  0.00    +0.210 HD
ENDBRANCH  42  49
BRANCH  44  51
ATOM     51  C   UNL     1       5.142  -4.851  29.482  0.00  0.00    +0.190 C 
BRANCH  51  52
ATOM     52  O   UNL     1       5.991  -5.752  30.205  0.00  0.00    -0.392 OA
ATOM     53  H   UNL     1       6.701  -5.204  30.589  0.00  0.00    +0.210 HD
ENDBRANCH  51  52
ENDBRANCH  44  51
BRANCH  41  54
ATOM     54  O   UNL     1       5.563  -5.913  24.688  0.00  0.00    -0.337 OA
BRANCH  54  58
ATOM     55  C   UNL     1       1.972  -7.484  26.294  0.00  0.00    +0.041 C 
ATOM     56  C   UNL     1       2.511  -7.895  24.923  0.00  0.00    +0.149 C 
ATOM     57  O   UNL     1       3.897  -7.542  24.772  0.00  0.00    -0.343 OA
ATOM     58  C   UNL     1       4.140  -6.130  24.685  0.00  0.00    +0.282 C 
ATOM     59  C   UNL     1       3.409  -5.536  23.454  0.00  0.00    +0.201 C 
ATOM     60  C   UNL     1       1.913  -5.848  23.538  0.00  0.00    +0.179 C 
ATOM     61  C   UNL     1       1.672  -7.346  23.757  0.00  0.00    +0.174 C 
BRANCH  59  62
ATOM     62  O   UNL     1       3.950  -6.077  22.231  0.00  0.00    -0.384 OA
ATOM     63  H   UNL     1       3.788  -5.403  21.545  0.00  0.00    +0.210 HD
ENDBRANCH  59  62
BRANCH  60  64
ATOM     64  O   UNL     1       1.290  -5.423  22.313  0.00  0.00    -0.386 OA
ATOM     65  H   UNL     1       1.942  -4.823  21.892  0.00  0.00    +0.210 HD
ENDBRANCH  60  64
BRANCH  61  66
ATOM     66  O   UNL     1       2.025  -8.024  22.535  0.00  0.00    -0.387 OA
ATOM     67  H   UNL     1       2.996  -7.903  22.429  0.00  0.00    +0.210 HD
ENDBRANCH  61  66
ENDBRANCH  54  58
ENDBRANCH  41  54
ENDBRANCH  40  46
ENDBRANCH   1  40
TORSDOF 22
ENDMDL
MODEL 8
REMARK VINA RESULT:      -6.5      2.493      6.394
REMARK  Name = 
REMARK  23 active torsions:
REMARK  status: ('A' for Active; 'I' for Inactive)
REMARK    1  A    between atoms: C_1  and  C_2
REMARK    2  A    between atoms: C_3  and  O_62
REMARK    3  A    between atoms: C_5  and  O_61
REMARK    4  A    between atoms: C_6  and  O_60
REMARK    5  A    between atoms: C_8  and  O_11
REMARK    6  A    between atoms: O_11  and  C_12
REMARK    7  A    between atoms: C_13  and  O_24
REMARK    8  A    between atoms: C_16  and  C_22
REMARK    9  A    between atoms: C_17  and  O_21
REMARK   10  A    between atoms: C_19  and  O_20
REMARK   11  A    between atoms: C_22  and  O_23
REMARK   12  A    between atoms: O_24  and  C_25
REMARK   13  A    between atoms: C_26  and  C_52
REMARK   14  A    between atoms: C_30  and  O_37
REMARK   15  A    between atoms: C_32  and  O_36
REMARK   16  A    between atoms: O_37  and  C_38
REMARK   17  A    between atoms: C_40  and  O_51
REMARK   18  A    between atoms: C_41  and  O_50
REMARK   19  A    between atoms: C_43  and  O_49
REMARK   20  A    between atoms: C_45  and  C_47
REMARK   21  A    between atoms: C_47  and  O_48
REMARK   22  A    between atoms: C_54  and  O_59
REMARK   23  A    between atoms: C_55  and  O_58
REMARK                            x       y       z     vdW  Elec       q    Type
REMARK                         _______ _______ _______ _____ _____    ______ ____
ROOT
ATOM      1  C   UNL     1       6.076  -1.177  26.319  0.00  0.00    +0.214 A 
ATOM      2  C   UNL     1       6.691   0.205  26.398  0.00  0.00    +0.238 A 
ATOM      3  O   UNL     1       7.896   0.381  26.514  0.00  0.00    -0.283 OA
ATOM      4  C   UNL     1       5.777   1.375  26.395  0.00  0.00    +0.109 A 
ATOM      5  C   UNL     1       4.425   1.118  26.335  0.00  0.00    +0.147 A 
ATOM      6  C   UNL     1       3.488   2.151  26.278  0.00  0.00    +0.093 A 
ATOM      7  C   UNL     1       3.888   3.479  26.361  0.00  0.00    +0.131 A 
ATOM      8  C   UNL     1       5.251   3.765  26.466  0.00  0.00    +0.092 A 
ATOM      9  O   UNL     1       3.891  -0.131  26.355  0.00  0.00    -0.451 OA
ATOM     10  C   UNL     1       6.194   2.716  26.468  0.00  0.00    +0.135 A 
ATOM     11  C   UNL     1       4.727  -1.221  26.370  0.00  0.00    +0.181 A 
ENDROOT
BRANCH  11  12
ATOM     12  C   UNL     1       3.915  -2.444  26.481  0.00  0.00    +0.025 A 
ATOM     13  C   UNL     1       3.752  -3.046  27.738  0.00  0.00    +0.015 A 
ATOM     14  C   UNL     1       3.260  -4.349  27.840  0.00  0.00    +0.050 A 
ATOM     15  C   UNL     1       2.947  -5.052  26.688  0.00  0.00    +0.158 A 
ATOM     16  C   UNL     1       3.095  -4.457  25.439  0.00  0.00    +0.159 A 
ATOM     17  C   UNL     1       3.552  -3.149  25.319  0.00  0.00    +0.060 A 
BRANCH  16  18
ATOM     18  O   UNL     1       2.832  -5.240  24.343  0.00  0.00    -0.503 OA
ATOM     19  H   UNL     1       3.677  -5.503  23.937  0.00  0.00    +0.292 HD
ENDBRANCH  16  18
BRANCH  15  20
ATOM     20  O   UNL     1       2.555  -6.355  26.784  0.00  0.00    -0.503 OA
ATOM     21  H   UNL     1       1.972  -6.497  26.011  0.00  0.00    +0.292 HD
ENDBRANCH  15  20
ENDBRANCH  11  12
BRANCH  10  22
ATOM     22  O   UNL     1       7.524   3.034  26.552  0.00  0.00    -0.506 OA
ATOM     23  H   UNL     1       7.947   2.943  25.681  0.00  0.00    +0.292 HD
ENDBRANCH  10  22
BRANCH   7  24
ATOM     24  O   UNL     1       3.036   4.554  26.342  0.00  0.00    -0.461 OA
BRANCH  24  25
ATOM     25  C   UNL     1       2.011   4.561  25.319  0.00  0.00    +0.339 C 
ATOM     26  O   UNL     1       2.385   3.877  24.120  0.00  0.00    -0.331 OA
ATOM     27  C   UNL     1       3.555   4.428  23.489  0.00  0.00    +0.179 C 
ATOM     28  C   UNL     1       3.398   5.925  23.137  0.00  0.00    +0.177 C 
ATOM     29  C   UNL     1       2.829   6.736  24.313  0.00  0.00    +0.180 C 
ATOM     30  C   UNL     1       1.636   6.009  24.960  0.00  0.00    +0.214 C 
BRANCH  30  31
ATOM     31  O   UNL     1       1.130   6.748  26.079  0.00  0.00    -0.383 OA
ATOM     32  H   UNL     1       1.532   6.413  26.896  0.00  0.00    +0.210 HD
ENDBRANCH  30  31
BRANCH  29  33
ATOM     33  O   UNL     1       3.897   7.013  25.228  0.00  0.00    -0.386 OA
ATOM     34  H   UNL     1       3.561   7.563  25.954  0.00  0.00    +0.210 HD
ENDBRANCH  29  33
BRANCH  28  35
ATOM     35  O   UNL     1       2.539   6.095  22.006  0.00  0.00    -0.386 OA
ATOM     36  H   UNL     1       2.941   6.777  21.435  0.00  0.00    +0.210 HD
ENDBRANCH  28  35
BRANCH  27  37
ATOM     37  C   UNL     1       3.864   3.581  22.233  0.00  0.00    +0.190 C 
BRANCH  37  38
ATOM     38  O   UNL     1       2.694   3.002  21.649  0.00  0.00    -0.392 OA
ATOM     39  H   UNL     1       2.971   2.410  20.933  0.00  0.00    +0.210 HD
ENDBRANCH  37  38
ENDBRANCH  27  37
ENDBRANCH  24  25
ENDBRANCH   7  24
BRANCH   1  40
ATOM     40  O   UNL     1       6.778  -2.373  26.202  0.00  0.00    -0.453 OA
BRANCH  40  46
ATOM     41  C   UNL     1       8.838  -2.728  24.965  0.00  0.00    +0.221 C 
ATOM     42  C   UNL     1       9.492  -3.975  25.588  0.00  0.00    +0.180 C 
ATOM     43  C   UNL     1       8.848  -5.259  25.045  0.00  0.00    +0.177 C 
ATOM     44  C   UNL     1       7.330  -5.260  25.233  0.00  0.00    +0.179 C 
ATOM     45  O   UNL     1       6.745  -4.119  24.609  0.00  0.00    -0.331 OA
ATOM     46  C   UNL     1       7.285  -2.836  24.949  0.00  0.00    +0.340 C 
BRANCH  43  47
ATOM     47  O   UNL     1       9.443  -6.425  25.610  0.00  0.00    -0.386 OA
ATOM     48  H   UNL     1      10.159  -6.709  25.015  0.00  0.00    +0.210 HD
ENDBRANCH  43  47
BRANCH  42  49
ATOM     49  O   UNL     1       9.462  -3.922  27.023  0.00  0.00    -0.386 OA
ATOM     50  H   UNL     1      10.360  -3.821  27.381  0.00  0.00    +0.210 HD
ENDBRANCH  42  49
BRANCH  44  51
ATOM     51  C   UNL     1       6.805  -5.430  26.666  0.00  0.00    +0.190 C 
BRANCH  51  52
ATOM     52  O   UNL     1       7.831  -6.020  27.474  0.00  0.00    -0.392 OA
ATOM     53  H   UNL     1       8.006  -6.899  27.088  0.00  0.00    +0.210 HD
ENDBRANCH  51  52
ENDBRANCH  44  51
BRANCH  41  54
ATOM     54  O   UNL     1       9.404  -2.514  23.660  0.00  0.00    -0.337 OA
BRANCH  54  58
ATOM     55  C   UNL     1      11.997   0.733  24.485  0.00  0.00    +0.041 C 
ATOM     56  C   UNL     1      10.475   0.843  24.598  0.00  0.00    +0.149 C 
ATOM     57  O   UNL     1       9.854  -0.453  24.653  0.00  0.00    -0.343 OA
ATOM     58  C   UNL     1       9.925  -1.193  23.425  0.00  0.00    +0.282 C 
ATOM     59  C   UNL     1       9.206  -0.419  22.291  0.00  0.00    +0.201 C 
ATOM     60  C   UNL     1       9.818   0.977  22.146  0.00  0.00    +0.179 C 
ATOM     61  C   UNL     1       9.850   1.709  23.492  0.00  0.00    +0.174 C 
BRANCH  59  62
ATOM     62  O   UNL     1       7.795  -0.303  22.568  0.00  0.00    -0.384 OA
ATOM     63  H   UNL     1       7.610   0.653  22.624  0.00  0.00    +0.210 HD
ENDBRANCH  59  62
BRANCH  60  64
ATOM     64  O   UNL     1       9.033   1.722  21.198  0.00  0.00    -0.386 OA
ATOM     65  H   UNL     1       9.223   1.308  20.329  0.00  0.00    +0.210 HD
ENDBRANCH  60  64
BRANCH  61  66
ATOM     66  O   UNL     1       8.490   2.040  23.837  0.00  0.00    -0.387 OA
ATOM     67  H   UNL     1       8.046   1.186  24.039  0.00  0.00    +0.210 HD
ENDBRANCH  61  66
ENDBRANCH  54  58
ENDBRANCH  41  54
ENDBRANCH  40  46
ENDBRANCH   1  40
TORSDOF 22
ENDMDL
MODEL 9
REMARK VINA RESULT:      -6.4      2.288      9.603
REMARK  Name = 
REMARK  23 active torsions:
REMARK  status: ('A' for Active; 'I' for Inactive)
REMARK    1  A    between atoms: C_1  and  C_2
REMARK    2  A    between atoms: C_3  and  O_62
REMARK    3  A    between atoms: C_5  and  O_61
REMARK    4  A    between atoms: C_6  and  O_60
REMARK    5  A    between atoms: C_8  and  O_11
REMARK    6  A    between atoms: O_11  and  C_12
REMARK    7  A    between atoms: C_13  and  O_24
REMARK    8  A    between atoms: C_16  and  C_22
REMARK    9  A    between atoms: C_17  and  O_21
REMARK   10  A    between atoms: C_19  and  O_20
REMARK   11  A    between atoms: C_22  and  O_23
REMARK   12  A    between atoms: O_24  and  C_25
REMARK   13  A    between atoms: C_26  and  C_52
REMARK   14  A    between atoms: C_30  and  O_37
REMARK   15  A    between atoms: C_32  and  O_36
REMARK   16  A    between atoms: O_37  and  C_38
REMARK   17  A    between atoms: C_40  and  O_51
REMARK   18  A    between atoms: C_41  and  O_50
REMARK   19  A    between atoms: C_43  and  O_49
REMARK   20  A    between atoms: C_45  and  C_47
REMARK   21  A    between atoms: C_47  and  O_48
REMARK   22  A    between atoms: C_54  and  O_59
REMARK   23  A    between atoms: C_55  and  O_58
REMARK                            x       y       z     vdW  Elec       q    Type
REMARK                         _______ _______ _______ _____ _____    ______ ____
ROOT
ATOM      1  C   UNL     1       6.147   1.359  25.330  0.00  0.00    +0.214 A 
ATOM      2  C   UNL     1       5.061   1.298  26.384  0.00  0.00    +0.238 A 
ATOM      3  O   UNL     1       4.710   2.280  27.021  0.00  0.00    -0.283 OA
ATOM      4  C   UNL     1       4.457  -0.025  26.684  0.00  0.00    +0.109 A 
ATOM      5  C   UNL     1       4.940  -1.111  25.988  0.00  0.00    +0.147 A 
ATOM      6  C   UNL     1       4.402  -2.387  26.163  0.00  0.00    +0.093 A 
ATOM      7  C   UNL     1       3.411  -2.618  27.109  0.00  0.00    +0.131 A 
ATOM      8  C   UNL     1       2.935  -1.540  27.859  0.00  0.00    +0.092 A 
ATOM      9  O   UNL     1       5.976  -1.047  25.111  0.00  0.00    -0.451 OA
ATOM     10  C   UNL     1       3.445  -0.244  27.637  0.00  0.00    +0.135 A 
ATOM     11  C   UNL     1       6.551   0.169  24.834  0.00  0.00    +0.181 A 
ENDROOT
BRANCH  11  12
ATOM     12  C   UNL     1       7.697  -0.039  23.935  0.00  0.00    +0.025 A 
ATOM     13  C   UNL     1       7.537  -0.842  22.795  0.00  0.00    +0.015 A 
ATOM     14  C   UNL     1       8.652  -1.310  22.097  0.00  0.00    +0.050 A 
ATOM     15  C   UNL     1       9.922  -0.990  22.547  0.00  0.00    +0.158 A 
ATOM     16  C   UNL     1      10.089  -0.185  23.669  0.00  0.00    +0.159 A 
ATOM     17  C   UNL     1       8.990   0.319  24.358  0.00  0.00    +0.060 A 
BRANCH  16  18
ATOM     18  O   UNL     1      11.375   0.029  24.094  0.00  0.00    -0.503 OA
ATOM     19  H   UNL     1      11.960  -0.614  23.658  0.00  0.00    +0.292 HD
ENDBRANCH  16  18
BRANCH  15  20
ATOM     20  O   UNL     1      11.009  -1.524  21.919  0.00  0.00    -0.503 OA
ATOM     21  H   UNL     1      11.060  -1.050  21.064  0.00  0.00    +0.292 HD
ENDBRANCH  15  20
ENDBRANCH  11  12
BRANCH  10  22
ATOM     22  O   UNL     1       2.940   0.793  28.376  0.00  0.00    -0.506 OA
ATOM     23  H   UNL     1       2.260   0.468  28.989  0.00  0.00    +0.292 HD
ENDBRANCH  10  22
BRANCH   7  24
ATOM     24  O   UNL     1       2.848  -3.842  27.368  0.00  0.00    -0.461 OA
BRANCH  24  25
ATOM     25  C   UNL     1       3.294  -4.530  28.560  0.00  0.00    +0.339 C 
ATOM     26  O   UNL     1       4.716  -4.603  28.689  0.00  0.00    -0.331 OA
ATOM     27  C   UNL     1       5.356  -5.285  27.595  0.00  0.00    +0.179 C 
ATOM     28  C   UNL     1       4.835  -6.728  27.403  0.00  0.00    +0.177 C 
ATOM     29  C   UNL     1       3.299  -6.793  27.424  0.00  0.00    +0.180 C 
ATOM     30  C   UNL     1       2.727  -5.960  28.585  0.00  0.00    +0.214 C 
BRANCH  30  31
ATOM     31  O   UNL     1       1.293  -5.992  28.583  0.00  0.00    -0.383 OA
ATOM     32  H   UNL     1       0.986  -6.710  29.159  0.00  0.00    +0.210 HD
ENDBRANCH  30  31
BRANCH  29  33
ATOM     33  O   UNL     1       2.813  -6.394  26.137  0.00  0.00    -0.386 OA
ATOM     34  H   UNL     1       2.811  -5.424  26.083  0.00  0.00    +0.210 HD
ENDBRANCH  29  33
BRANCH  28  35
ATOM     35  O   UNL     1       5.345  -7.594  28.421  0.00  0.00    -0.386 OA
ATOM     36  H   UNL     1       5.160  -8.510  28.144  0.00  0.00    +0.210 HD
ENDBRANCH  28  35
BRANCH  27  37
ATOM     37  C   UNL     1       6.881  -5.263  27.845  0.00  0.00    +0.190 C 
BRANCH  37  38
ATOM     38  O   UNL     1       7.605  -6.112  26.949  0.00  0.00    -0.392 OA
ATOM     39  H   UNL     1       6.997  -6.786  26.609  0.00  0.00    +0.210 HD
ENDBRANCH  37  38
ENDBRANCH  27  37
ENDBRANCH  24  25
ENDBRANCH   7  24
BRANCH   1  40
ATOM     40  O   UNL     1       6.745   2.520  24.846  0.00  0.00    -0.453 OA
BRANCH  40  46
ATOM     41  C   UNL     1       5.653   4.592  24.206  0.00  0.00    +0.221 C 
ATOM     42  C   UNL     1       6.742   5.678  24.273  0.00  0.00    +0.180 C 
ATOM     43  C   UNL     1       7.618   5.653  23.011  0.00  0.00    +0.177 C 
ATOM     44  C   UNL     1       8.212   4.268  22.756  0.00  0.00    +0.179 C 
ATOM     45  O   UNL     1       7.180   3.289  22.654  0.00  0.00    -0.331 OA
ATOM     46  C   UNL     1       6.225   3.228  23.721  0.00  0.00    +0.340 C 
BRANCH  43  47
ATOM     47  O   UNL     1       8.631   6.654  23.055  0.00  0.00    -0.386 OA
ATOM     48  H   UNL     1       8.198   7.506  23.246  0.00  0.00    +0.210 HD
ENDBRANCH  43  47
BRANCH  42  49
ATOM     49  O   UNL     1       7.523   5.565  25.473  0.00  0.00    -0.386 OA
ATOM     50  H   UNL     1       6.974   5.254  26.212  0.00  0.00    +0.210 HD
ENDBRANCH  42  49
BRANCH  44  51
ATOM     51  C   UNL     1       9.320   3.798  23.710  0.00  0.00    +0.190 C 
BRANCH  51  52
ATOM     52  O   UNL     1      10.550   4.441  23.352  0.00  0.00    -0.392 OA
ATOM     53  H   UNL     1      10.786   5.012  24.108  0.00  0.00    +0.210 HD
ENDBRANCH  51  52
ENDBRANCH  44  51
BRANCH  41  54
ATOM     54  O   UNL     1       4.571   5.075  23.390  0.00  0.00    -0.337 OA
BRANCH  54  58
ATOM     55  C   UNL     1       1.404   5.959  26.063  0.00  0.00    +0.041 C 
ATOM     56  C   UNL     1       2.118   4.606  26.048  0.00  0.00    +0.149 C 
ATOM     57  O   UNL     1       3.374   4.678  25.352  0.00  0.00    -0.343 OA
ATOM     58  C   UNL     1       3.254   4.873  23.935  0.00  0.00    +0.282 C 
ATOM     59  C   UNL     1       2.476   3.694  23.297  0.00  0.00    +0.201 C 
ATOM     60  C   UNL     1       1.107   3.552  23.967  0.00  0.00    +0.179 C 
ATOM     61  C   UNL     1       1.243   3.470  25.492  0.00  0.00    +0.174 C 
BRANCH  59  62
ATOM     62  O   UNL     1       3.214   2.462  23.436  0.00  0.00    -0.384 OA
ATOM     63  H   UNL     1       3.269   2.289  24.395  0.00  0.00    +0.210 HD
ENDBRANCH  59  62
BRANCH  60  64
ATOM     64  O   UNL     1       0.476   2.360  23.465  0.00  0.00    -0.386 OA
ATOM     65  H   UNL     1      -0.260   2.181  24.088  0.00  0.00    +0.210 HD
ENDBRANCH  60  64
BRANCH  61  66
ATOM     66  O   UNL     1       1.836   2.194  25.806  0.00  0.00    -0.387 OA
ATOM     67  H   UNL     1       2.306   1.906  24.991  0.00  0.00    +0.210 HD
ENDBRANCH  61  66
ENDBRANCH  54  58
ENDBRANCH  41  54
ENDBRANCH  40  46
ENDBRANCH   1  40
TORSDOF 22
ENDMDL
