MODEL 1
REMARK VINA RESULT:      -7.1      0.000      0.000
REMARK  Name = 
REMARK  21 active torsions:
REMARK  status: ('A' for Active; 'I' for Inactive)
REMARK    1  A    between atoms: C_1  and  C_2
REMARK    2  A    between atoms: C_3  and  O_61
REMARK    3  A    between atoms: C_5  and  O_60
REMARK    4  A    between atoms: C_6  and  O_59
REMARK    5  A    between atoms: C_8  and  O_11
REMARK    6  A    between atoms: O_11  and  C_12
REMARK    7  A    between atoms: C_12  and  C_13
REMARK    8  A    between atoms: C_14  and  O_58
REMARK    9  A    between atoms: C_16  and  O_57
REMARK   10  A    between atoms: C_18  and  O_44
REMARK   11  A    between atoms: C_19  and  O_22
REMARK   12  A    between atoms: O_22  and  C_23
REMARK   13  A    between atoms: C_25  and  O_43
REMARK   14  A    between atoms: C_30  and  C_35
REMARK   15  A    between atoms: C_31  and  O_34
REMARK   16  A    between atoms: C_37  and  O_42
REMARK   17  A    between atoms: C_38  and  O_41
REMARK   18  A    between atoms: O_44  and  C_45
REMARK   19  A    between atoms: C_47  and  O_56
REMARK   20  A    between atoms: C_48  and  O_55
REMARK   21  A    between atoms: C_50  and  O_54
REMARK                            x       y       z     vdW  Elec       q    Type
REMARK                         _______ _______ _______ _____ _____    ______ ____
ROOT
ATOM      1  C   UNL     1       9.444  -0.682  23.814  0.00  0.00    +0.179 C 
ATOM      2  O   UNL     1       8.735  -0.049  24.897  0.00  0.00    -0.331 OA
ATOM      3  C   UNL     1       7.434   0.459  24.550  0.00  0.00    +0.340 C 
ATOM      4  C   UNL     1       7.556   1.501  23.392  0.00  0.00    +0.221 C 
ATOM      5  C   UNL     1       8.229   0.785  22.202  0.00  0.00    +0.180 C 
ATOM      6  C   UNL     1       9.611   0.283  22.625  0.00  0.00    +0.177 C 
ENDROOT
BRANCH   6   7
ATOM      7  O   UNL     1      10.242  -0.281  21.472  0.00  0.00    -0.386 OA
ATOM      8  H   UNL     1      10.887   0.374  21.143  0.00  0.00    +0.210 HD
ENDBRANCH   6   7
BRANCH   5   9
ATOM      9  O   UNL     1       8.344   1.578  21.021  0.00  0.00    -0.386 OA
ATOM     10  H   UNL     1       7.495   1.462  20.544  0.00  0.00    +0.210 HD
ENDBRANCH   5   9
BRANCH   4  11
ATOM     11  O   UNL     1       8.284   2.660  23.869  0.00  0.00    -0.337 OA
BRANCH  11  12
ATOM     12  C   UNL     1       7.707   3.946  23.579  0.00  0.00    +0.282 C 
ATOM     13  O   UNL     1       8.763   4.896  23.347  0.00  0.00    -0.346 OA
ATOM     14  C   UNL     1       9.549   5.226  24.496  0.00  0.00    +0.197 C 
ATOM     15  C   UNL     1       8.714   5.658  25.711  0.00  0.00    +0.171 C 
ATOM     16  C   UNL     1       7.585   4.662  25.975  0.00  0.00    +0.178 C 
ATOM     17  C   UNL     1       6.769   4.484  24.687  0.00  0.00    +0.201 C 
BRANCH  17  18
ATOM     18  O   UNL     1       5.611   3.687  24.955  0.00  0.00    -0.384 OA
ATOM     19  H   UNL     1       5.731   2.837  24.496  0.00  0.00    +0.210 HD
ENDBRANCH  17  18
BRANCH  16  20
ATOM     20  O   UNL     1       8.078   3.408  26.473  0.00  0.00    -0.386 OA
ATOM     21  H   UNL     1       8.760   3.600  27.162  0.00  0.00    +0.210 HD
ENDBRANCH  16  20
BRANCH  15  22
ATOM     22  O   UNL     1       8.159   6.957  25.460  0.00  0.00    -0.387 OA
ATOM     23  H   UNL     1       7.978   7.040  24.508  0.00  0.00    +0.210 HD
ENDBRANCH  15  22
ENDBRANCH  11  12
ENDBRANCH   4  11
BRANCH   3  24
ATOM     24  O   UNL     1       6.751   1.037  25.692  0.00  0.00    -0.461 OA
BRANCH  24  25
ATOM     25  C   UNL     1       5.646   0.374  26.184  0.00  0.00    +0.131 A 
ATOM     26  C   UNL     1       5.310  -0.854  25.581  0.00  0.00    +0.093 A 
ATOM     27  C   UNL     1       4.176  -1.585  25.998  0.00  0.00    +0.147 A 
ATOM     28  O   UNL     1       3.890  -2.764  25.335  0.00  0.00    -0.451 OA
ATOM     29  C   UNL     1       2.818  -3.551  25.772  0.00  0.00    +0.181 A 
ATOM     30  C   UNL     1       2.028  -3.215  26.815  0.00  0.00    +0.208 A 
ATOM     31  C   UNL     1       2.209  -1.885  27.458  0.00  0.00    +0.238 A 
ATOM     32  O   UNL     1       1.411  -1.497  28.304  0.00  0.00    -0.283 OA
ATOM     33  C   UNL     1       3.380  -1.096  27.032  0.00  0.00    +0.109 A 
ATOM     34  C   UNL     1       3.714   0.122  27.633  0.00  0.00    +0.135 A 
ATOM     35  C   UNL     1       4.835   0.846  27.216  0.00  0.00    +0.092 A 
BRANCH  29  36
ATOM     36  C   UNL     1       2.613  -4.809  24.985  0.00  0.00    +0.025 A 
ATOM     37  C   UNL     1       2.092  -4.774  23.670  0.00  0.00    +0.015 A 
ATOM     38  C   UNL     1       1.816  -5.945  22.949  0.00  0.00    +0.050 A 
ATOM     39  C   UNL     1       2.130  -7.164  23.513  0.00  0.00    +0.158 A 
ATOM     40  C   UNL     1       2.720  -7.228  24.773  0.00  0.00    +0.159 A 
ATOM     41  C   UNL     1       2.955  -6.066  25.518  0.00  0.00    +0.060 A 
BRANCH  40  42
ATOM     42  O   UNL     1       3.052  -8.468  25.247  0.00  0.00    -0.503 OA
ATOM     43  H   UNL     1       3.798  -8.805  24.723  0.00  0.00    +0.292 HD
ENDBRANCH  40  42
BRANCH  39  44
ATOM     44  O   UNL     1       1.874  -8.307  22.812  0.00  0.00    -0.503 OA
ATOM     45  H   UNL     1       2.518  -8.960  23.149  0.00  0.00    +0.292 HD
ENDBRANCH  39  44
ENDBRANCH  29  36
BRANCH  34  46
ATOM     46  O   UNL     1       2.965   0.637  28.653  0.00  0.00    -0.506 OA
ATOM     47  H   UNL     1       2.802   1.584  28.521  0.00  0.00    +0.292 HD
ENDBRANCH  34  46
BRANCH  30  48
ATOM     48  O   UNL     1       1.034  -4.017  27.355  0.00  0.00    -0.501 OA
ATOM     49  H   UNL     1       0.552  -4.452  26.634  0.00  0.00    +0.292 HD
ENDBRANCH  30  48
ENDBRANCH  24  25
ENDBRANCH   3  24
BRANCH   1  50
ATOM     50  C   UNL     1       8.796  -2.028  23.447  0.00  0.00    +0.197 C 
BRANCH  50  51
ATOM     51  O   UNL     1       9.480  -3.107  24.067  0.00  0.00    -0.346 OA
BRANCH  51  55
ATOM     52  C   UNL     1       6.186  -5.831  23.514  0.00  0.00    +0.041 C 
ATOM     53  C   UNL     1       6.228  -4.702  24.540  0.00  0.00    +0.149 C 
ATOM     54  O   UNL     1       7.236  -3.742  24.204  0.00  0.00    -0.343 OA
ATOM     55  C   UNL     1       8.585  -4.171  24.405  0.00  0.00    +0.282 C 
ATOM     56  C   UNL     1       8.843  -4.593  25.865  0.00  0.00    +0.201 C 
ATOM     57  C   UNL     1       7.827  -5.669  26.263  0.00  0.00    +0.179 C 
ATOM     58  C   UNL     1       6.391  -5.194  25.986  0.00  0.00    +0.174 C 
BRANCH  58  59
ATOM     59  O   UNL     1       6.090  -4.122  26.899  0.00  0.00    -0.387 OA
ATOM     60  H   UNL     1       6.926  -3.929  27.386  0.00  0.00    +0.210 HD
ENDBRANCH  58  59
BRANCH  57  61
ATOM     61  O   UNL     1       7.976  -5.957  27.661  0.00  0.00    -0.386 OA
ATOM     62  H   UNL     1       8.179  -6.916  27.712  0.00  0.00    +0.210 HD
ENDBRANCH  57  61
BRANCH  56  63
ATOM     63  O   UNL     1       8.704  -3.468  26.759  0.00  0.00    -0.384 OA
ATOM     64  H   UNL     1       8.991  -2.692  26.240  0.00  0.00    +0.210 HD
ENDBRANCH  56  63
ENDBRANCH  51  55
ENDBRANCH  50  51
ENDBRANCH   1  50
TORSDOF 20
ENDMDL
MODEL 2
REMARK VINA RESULT:      -6.4      1.623      2.535
REMARK  Name = 
REMARK  21 active torsions:
REMARK  status: ('A' for Active; 'I' for Inactive)
REMARK    1  A    between atoms: C_1  and  C_2
REMARK    2  A    between atoms: C_3  and  O_61
REMARK    3  A    between atoms: C_5  and  O_60
REMARK    4  A    between atoms: C_6  and  O_59
REMARK    5  A    between atoms: C_8  and  O_11
REMARK    6  A    between atoms: O_11  and  C_12
REMARK    7  A    between atoms: C_12  and  C_13
REMARK    8  A    between atoms: C_14  and  O_58
REMARK    9  A    between atoms: C_16  and  O_57
REMARK   10  A    between atoms: C_18  and  O_44
REMARK   11  A    between atoms: C_19  and  O_22
REMARK   12  A    between atoms: O_22  and  C_23
REMARK   13  A    between atoms: C_25  and  O_43
REMARK   14  A    between atoms: C_30  and  C_35
REMARK   15  A    between atoms: C_31  and  O_34
REMARK   16  A    between atoms: C_37  and  O_42
REMARK   17  A    between atoms: C_38  and  O_41
REMARK   18  A    between atoms: O_44  and  C_45
REMARK   19  A    between atoms: C_47  and  O_56
REMARK   20  A    between atoms: C_48  and  O_55
REMARK   21  A    between atoms: C_50  and  O_54
REMARK                            x       y       z     vdW  Elec       q    Type
REMARK                         _______ _______ _______ _____ _____    ______ ____
ROOT
ATOM      1  C   UNL     1      10.162  -0.090  23.979  0.00  0.00    +0.179 C 
ATOM      2  O   UNL     1       9.617   0.487  25.181  0.00  0.00    -0.331 OA
ATOM      3  C   UNL     1       8.185   0.625  25.188  0.00  0.00    +0.340 C 
ATOM      4  C   UNL     1       7.725   1.513  23.987  0.00  0.00    +0.221 C 
ATOM      5  C   UNL     1       8.231   0.834  22.697  0.00  0.00    +0.180 C 
ATOM      6  C   UNL     1       9.756   0.731  22.740  0.00  0.00    +0.177 C 
ENDROOT
BRANCH   6   7
ATOM      7  O   UNL     1      10.193   0.193  21.488  0.00  0.00    -0.386 OA
ATOM      8  H   UNL     1      10.256  -0.776  21.593  0.00  0.00    +0.210 HD
ENDBRANCH   6   7
BRANCH   5   9
ATOM      9  O   UNL     1       7.823   1.478  21.489  0.00  0.00    -0.386 OA
ATOM     10  H   UNL     1       7.114   2.102  21.752  0.00  0.00    +0.210 HD
ENDBRANCH   5   9
BRANCH   4  11
ATOM     11  O   UNL     1       8.221   2.862  24.175  0.00  0.00    -0.337 OA
BRANCH  11  12
ATOM     12  C   UNL     1       7.245   3.865  24.511  0.00  0.00    +0.282 C 
ATOM     13  O   UNL     1       6.345   4.039  23.401  0.00  0.00    -0.346 OA
ATOM     14  C   UNL     1       6.925   4.631  22.235  0.00  0.00    +0.197 C 
ATOM     15  C   UNL     1       7.669   5.945  22.516  0.00  0.00    +0.171 C 
ATOM     16  C   UNL     1       8.630   5.783  23.692  0.00  0.00    +0.178 C 
ATOM     17  C   UNL     1       7.852   5.236  24.897  0.00  0.00    +0.201 C 
BRANCH  17  18
ATOM     18  O   UNL     1       8.693   5.233  26.055  0.00  0.00    -0.384 OA
ATOM     19  H   UNL     1       8.202   5.672  26.771  0.00  0.00    +0.210 HD
ENDBRANCH  17  18
BRANCH  16  20
ATOM     20  O   UNL     1       9.754   4.952  23.360  0.00  0.00    -0.386 OA
ATOM     21  H   UNL     1      10.037   4.478  24.179  0.00  0.00    +0.210 HD
ENDBRANCH  16  20
BRANCH  15  22
ATOM     22  O   UNL     1       6.712   6.972  22.815  0.00  0.00    -0.387 OA
ATOM     23  H   UNL     1       7.087   7.832  22.557  0.00  0.00    +0.210 HD
ENDBRANCH  15  22
ENDBRANCH  11  12
ENDBRANCH   4  11
BRANCH   3  24
ATOM     24  O   UNL     1       7.694   1.162  26.443  0.00  0.00    -0.461 OA
BRANCH  24  25
ATOM     25  C   UNL     1       6.697   0.466  27.095  0.00  0.00    +0.131 A 
ATOM     26  C   UNL     1       6.301  -0.765  26.537  0.00  0.00    +0.093 A 
ATOM     27  C   UNL     1       5.265  -1.529  27.119  0.00  0.00    +0.147 A 
ATOM     28  O   UNL     1       4.908  -2.710  26.496  0.00  0.00    -0.451 OA
ATOM     29  C   UNL     1       3.938  -3.529  27.087  0.00  0.00    +0.181 A 
ATOM     30  C   UNL     1       3.314  -3.223  28.245  0.00  0.00    +0.208 A 
ATOM     31  C   UNL     1       3.562  -1.893  28.868  0.00  0.00    +0.238 A 
ATOM     32  O   UNL     1       2.898  -1.533  29.833  0.00  0.00    -0.283 OA
ATOM     33  C   UNL     1       4.630  -1.070  28.272  0.00  0.00    +0.109 A 
ATOM     34  C   UNL     1       5.025   0.152  28.827  0.00  0.00    +0.135 A 
ATOM     35  C   UNL     1       6.047   0.908  28.247  0.00  0.00    +0.092 A 
BRANCH  29  36
ATOM     36  C   UNL     1       3.643  -4.786  26.326  0.00  0.00    +0.025 A 
ATOM     37  C   UNL     1       4.402  -5.962  26.533  0.00  0.00    +0.015 A 
ATOM     38  C   UNL     1       4.196  -7.122  25.772  0.00  0.00    +0.050 A 
ATOM     39  C   UNL     1       3.174  -7.138  24.845  0.00  0.00    +0.158 A 
ATOM     40  C   UNL     1       2.357  -6.022  24.676  0.00  0.00    +0.159 A 
ATOM     41  C   UNL     1       2.587  -4.844  25.399  0.00  0.00    +0.060 A 
BRANCH  40  42
ATOM     42  O   UNL     1       1.331  -6.128  23.777  0.00  0.00    -0.503 OA
ATOM     43  H   UNL     1       0.601  -6.608  24.202  0.00  0.00    +0.292 HD
ENDBRANCH  40  42
BRANCH  39  44
ATOM     44  O   UNL     1       2.962  -8.267  24.109  0.00  0.00    -0.503 OA
ATOM     45  H   UNL     1       3.563  -8.935  24.493  0.00  0.00    +0.292 HD
ENDBRANCH  39  44
ENDBRANCH  29  36
BRANCH  34  46
ATOM     46  O   UNL     1       4.433   0.639  29.959  0.00  0.00    -0.506 OA
ATOM     47  H   UNL     1       4.691   1.560  30.116  0.00  0.00    +0.292 HD
ENDBRANCH  34  46
BRANCH  30  48
ATOM     48  O   UNL     1       2.438  -4.054  28.926  0.00  0.00    -0.501 OA
ATOM     49  H   UNL     1       1.824  -4.454  28.290  0.00  0.00    +0.292 HD
ENDBRANCH  30  48
ENDBRANCH  24  25
ENDBRANCH   3  24
BRANCH   1  50
ATOM     50  C   UNL     1       9.818  -1.586  23.884  0.00  0.00    +0.197 C 
BRANCH  50  51
ATOM     51  O   UNL     1       8.622  -1.787  23.146  0.00  0.00    -0.346 OA
BRANCH  51  55
ATOM     52  C   UNL     1       7.753  -5.149  25.700  0.00  0.00    +0.041 C 
ATOM     53  C   UNL     1       7.916  -5.218  24.184  0.00  0.00    +0.149 C 
ATOM     54  O   UNL     1       8.597  -4.059  23.689  0.00  0.00    -0.343 OA
ATOM     55  C   UNL     1       7.837  -2.848  23.698  0.00  0.00    +0.282 C 
ATOM     56  C   UNL     1       6.535  -2.980  22.884  0.00  0.00    +0.201 C 
ATOM     57  C   UNL     1       5.732  -4.173  23.412  0.00  0.00    +0.179 C 
ATOM     58  C   UNL     1       6.594  -5.445  23.436  0.00  0.00    +0.174 C 
BRANCH  58  59
ATOM     59  O   UNL     1       6.868  -5.826  22.074  0.00  0.00    -0.387 OA
ATOM     60  H   UNL     1       6.676  -5.034  21.520  0.00  0.00    +0.210 HD
ENDBRANCH  58  59
BRANCH  57  61
ATOM     61  O   UNL     1       4.593  -4.380  22.563  0.00  0.00    -0.386 OA
ATOM     62  H   UNL     1       4.769  -5.220  22.087  0.00  0.00    +0.210 HD
ENDBRANCH  57  61
BRANCH  56  63
ATOM     63  O   UNL     1       6.822  -3.194  21.485  0.00  0.00    -0.384 OA
ATOM     64  H   UNL     1       6.825  -2.302  21.086  0.00  0.00    +0.210 HD
ENDBRANCH  56  63
ENDBRANCH  51  55
ENDBRANCH  50  51
ENDBRANCH   1  50
TORSDOF 20
ENDMDL
MODEL 3
REMARK VINA RESULT:      -6.3      1.867      9.440
REMARK  Name = 
REMARK  21 active torsions:
REMARK  status: ('A' for Active; 'I' for Inactive)
REMARK    1  A    between atoms: C_1  and  C_2
REMARK    2  A    between atoms: C_3  and  O_61
REMARK    3  A    between atoms: C_5  and  O_60
REMARK    4  A    between atoms: C_6  and  O_59
REMARK    5  A    between atoms: C_8  and  O_11
REMARK    6  A    between atoms: O_11  and  C_12
REMARK    7  A    between atoms: C_12  and  C_13
REMARK    8  A    between atoms: C_14  and  O_58
REMARK    9  A    between atoms: C_16  and  O_57
REMARK   10  A    between atoms: C_18  and  O_44
REMARK   11  A    between atoms: C_19  and  O_22
REMARK   12  A    between atoms: O_22  and  C_23
REMARK   13  A    between atoms: C_25  and  O_43
REMARK   14  A    between atoms: C_30  and  C_35
REMARK   15  A    between atoms: C_31  and  O_34
REMARK   16  A    between atoms: C_37  and  O_42
REMARK   17  A    between atoms: C_38  and  O_41
REMARK   18  A    between atoms: O_44  and  C_45
REMARK   19  A    between atoms: C_47  and  O_56
REMARK   20  A    between atoms: C_48  and  O_55
REMARK   21  A    between atoms: C_50  and  O_54
REMARK                            x       y       z     vdW  Elec       q    Type
REMARK                         _______ _______ _______ _____ _____    ______ ____
ROOT
ATOM      1  C   UNL     1       3.224  -2.818  29.532  0.00  0.00    +0.179 C 
ATOM      2  O   UNL     1       4.264  -3.731  29.132  0.00  0.00    -0.331 OA
ATOM      3  C   UNL     1       4.918  -3.395  27.896  0.00  0.00    +0.340 C 
ATOM      4  C   UNL     1       3.873  -3.332  26.736  0.00  0.00    +0.221 C 
ATOM      5  C   UNL     1       2.815  -2.280  27.131  0.00  0.00    +0.180 C 
ATOM      6  C   UNL     1       2.145  -2.698  28.440  0.00  0.00    +0.177 C 
ENDROOT
BRANCH   6   7
ATOM      7  O   UNL     1       1.104  -1.757  28.718  0.00  0.00    -0.386 OA
ATOM      8  H   UNL     1       0.704  -2.008  29.573  0.00  0.00    +0.210 HD
ENDBRANCH   6   7
BRANCH   5   9
ATOM      9  O   UNL     1       1.822  -2.036  26.135  0.00  0.00    -0.386 OA
ATOM     10  H   UNL     1       1.987  -2.699  25.432  0.00  0.00    +0.210 HD
ENDBRANCH   5   9
BRANCH   4  11
ATOM     11  O   UNL     1       3.330  -4.657  26.512  0.00  0.00    -0.337 OA
BRANCH  11  12
ATOM     12  C   UNL     1       2.923  -4.966  25.166  0.00  0.00    +0.282 C 
ATOM     13  O   UNL     1       1.738  -5.783  25.207  0.00  0.00    -0.346 OA
ATOM     14  C   UNL     1       1.926  -7.103  25.724  0.00  0.00    +0.197 C 
ATOM     15  C   UNL     1       3.068  -7.874  25.046  0.00  0.00    +0.171 C 
ATOM     16  C   UNL     1       4.337  -7.024  24.991  0.00  0.00    +0.178 C 
ATOM     17  C   UNL     1       4.008  -5.682  24.325  0.00  0.00    +0.201 C 
BRANCH  17  18
ATOM     18  O   UNL     1       5.212  -4.939  24.113  0.00  0.00    -0.384 OA
ATOM     19  H   UNL     1       5.943  -5.456  24.493  0.00  0.00    +0.210 HD
ENDBRANCH  17  18
BRANCH  16  20
ATOM     20  O   UNL     1       4.923  -6.847  26.291  0.00  0.00    -0.386 OA
ATOM     21  H   UNL     1       5.764  -7.365  26.321  0.00  0.00    +0.210 HD
ENDBRANCH  16  20
BRANCH  15  22
ATOM     22  O   UNL     1       2.670  -8.228  23.714  0.00  0.00    -0.387 OA
ATOM     23  H   UNL     1       2.644  -7.420  23.172  0.00  0.00    +0.210 HD
ENDBRANCH  15  22
ENDBRANCH  11  12
ENDBRANCH   4  11
BRANCH   3  24
ATOM     24  O   UNL     1       5.988  -4.321  27.574  0.00  0.00    -0.461 OA
BRANCH  24  25
ATOM     25  C   UNL     1       6.962  -3.898  26.693  0.00  0.00    +0.131 A 
ATOM     26  C   UNL     1       6.824  -2.605  26.153  0.00  0.00    +0.093 A 
ATOM     27  C   UNL     1       7.755  -2.102  25.217  0.00  0.00    +0.147 A 
ATOM     28  O   UNL     1       7.534  -0.838  24.704  0.00  0.00    -0.451 OA
ATOM     29  C   UNL     1       8.478  -0.280  23.833  0.00  0.00    +0.181 A 
ATOM     30  C   UNL     1       9.604  -0.919  23.451  0.00  0.00    +0.208 A 
ATOM     31  C   UNL     1       9.804  -2.335  23.861  0.00  0.00    +0.238 A 
ATOM     32  O   UNL     1      10.740  -2.982  23.406  0.00  0.00    -0.283 OA
ATOM     33  C   UNL     1       8.838  -2.889  24.829  0.00  0.00    +0.109 A 
ATOM     34  C   UNL     1       8.976  -4.173  25.367  0.00  0.00    +0.135 A 
ATOM     35  C   UNL     1       8.051  -4.669  26.289  0.00  0.00    +0.092 A 
BRANCH  29  36
ATOM     36  C   UNL     1       8.136   1.098  23.353  0.00  0.00    +0.025 A 
ATOM     37  C   UNL     1       6.944   1.348  22.633  0.00  0.00    +0.015 A 
ATOM     38  C   UNL     1       6.647   2.613  22.104  0.00  0.00    +0.050 A 
ATOM     39  C   UNL     1       7.511   3.660  22.356  0.00  0.00    +0.158 A 
ATOM     40  C   UNL     1       8.652   3.463  23.130  0.00  0.00    +0.159 A 
ATOM     41  C   UNL     1       8.979   2.192  23.622  0.00  0.00    +0.060 A 
BRANCH  40  42
ATOM     42  O   UNL     1       9.434   4.556  23.381  0.00  0.00    -0.503 OA
ATOM     43  H   UNL     1      10.253   4.254  23.808  0.00  0.00    +0.292 HD
ENDBRANCH  40  42
BRANCH  39  44
ATOM     44  O   UNL     1       7.222   4.895  21.852  0.00  0.00    -0.503 OA
ATOM     45  H   UNL     1       8.016   5.434  22.038  0.00  0.00    +0.292 HD
ENDBRANCH  39  44
ENDBRANCH  29  36
BRANCH  34  46
ATOM     46  O   UNL     1      10.025  -4.976  25.018  0.00  0.00    -0.506 OA
ATOM     47  H   UNL     1      10.787  -4.448  24.733  0.00  0.00    +0.292 HD
ENDBRANCH  34  46
BRANCH  30  48
ATOM     48  O   UNL     1      10.620  -0.362  22.688  0.00  0.00    -0.501 OA
ATOM     49  H   UNL     1      10.527  -0.664  21.771  0.00  0.00    +0.292 HD
ENDBRANCH  30  48
ENDBRANCH  24  25
ENDBRANCH   3  24
BRANCH   1  50
ATOM     50  C   UNL     1       3.819  -1.472  29.981  0.00  0.00    +0.197 C 
BRANCH  50  51
ATOM     51  O   UNL     1       3.671  -0.488  28.968  0.00  0.00    -0.346 OA
BRANCH  51  55
ATOM     52  C   UNL     1       5.503   3.152  30.373  0.00  0.00    +0.041 C 
ATOM     53  C   UNL     1       4.989   2.919  28.955  0.00  0.00    +0.149 C 
ATOM     54  O   UNL     1       4.083   1.811  28.914  0.00  0.00    -0.343 OA
ATOM     55  C   UNL     1       4.681   0.521  29.066  0.00  0.00    +0.282 C 
ATOM     56  C   UNL     1       5.756   0.255  27.994  0.00  0.00    +0.201 C 
ATOM     57  C   UNL     1       6.792   1.383  28.031  0.00  0.00    +0.179 C 
ATOM     58  C   UNL     1       6.111   2.756  27.917  0.00  0.00    +0.174 C 
BRANCH  58  59
ATOM     59  O   UNL     1       5.563   2.874  26.590  0.00  0.00    -0.387 OA
ATOM     60  H   UNL     1       5.304   1.964  26.314  0.00  0.00    +0.210 HD
ENDBRANCH  58  59
BRANCH  57  61
ATOM     61  O   UNL     1       7.710   1.210  26.941  0.00  0.00    -0.386 OA
ATOM     62  H   UNL     1       7.990   2.115  26.686  0.00  0.00    +0.210 HD
ENDBRANCH  57  61
BRANCH  56  63
ATOM     63  O   UNL     1       5.168   0.207  26.676  0.00  0.00    -0.384 OA
ATOM     64  H   UNL     1       4.928   1.132  26.469  0.00  0.00    +0.210 HD
ENDBRANCH  56  63
ENDBRANCH  51  55
ENDBRANCH  50  51
ENDBRANCH   1  50
TORSDOF 20
ENDMDL
MODEL 4
REMARK VINA RESULT:      -6.0      2.317      7.537
REMARK  Name = 
REMARK  21 active torsions:
REMARK  status: ('A' for Active; 'I' for Inactive)
REMARK    1  A    between atoms: C_1  and  C_2
REMARK    2  A    between atoms: C_3  and  O_61
REMARK    3  A    between atoms: C_5  and  O_60
REMARK    4  A    between atoms: C_6  and  O_59
REMARK    5  A    between atoms: C_8  and  O_11
REMARK    6  A    between atoms: O_11  and  C_12
REMARK    7  A    between atoms: C_12  and  C_13
REMARK    8  A    between atoms: C_14  and  O_58
REMARK    9  A    between atoms: C_16  and  O_57
REMARK   10  A    between atoms: C_18  and  O_44
REMARK   11  A    between atoms: C_19  and  O_22
REMARK   12  A    between atoms: O_22  and  C_23
REMARK   13  A    between atoms: C_25  and  O_43
REMARK   14  A    between atoms: C_30  and  C_35
REMARK   15  A    between atoms: C_31  and  O_34
REMARK   16  A    between atoms: C_37  and  O_42
REMARK   17  A    between atoms: C_38  and  O_41
REMARK   18  A    between atoms: O_44  and  C_45
REMARK   19  A    between atoms: C_47  and  O_56
REMARK   20  A    between atoms: C_48  and  O_55
REMARK   21  A    between atoms: C_50  and  O_54
REMARK                            x       y       z     vdW  Elec       q    Type
REMARK                         _______ _______ _______ _____ _____    ______ ____
ROOT
ATOM      1  C   UNL     1       7.825  -4.471  27.013  0.00  0.00    +0.179 C 
ATOM      2  O   UNL     1       6.818  -3.446  26.910  0.00  0.00    -0.331 OA
ATOM      3  C   UNL     1       5.866  -3.642  25.849  0.00  0.00    +0.340 C 
ATOM      4  C   UNL     1       6.604  -3.719  24.473  0.00  0.00    +0.221 C 
ATOM      5  C   UNL     1       7.612  -4.884  24.562  0.00  0.00    +0.180 C 
ATOM      6  C   UNL     1       8.605  -4.613  25.693  0.00  0.00    +0.177 C 
ENDROOT
BRANCH   6   7
ATOM      7  O   UNL     1       9.582  -5.658  25.676  0.00  0.00    -0.386 OA
ATOM      8  H   UNL     1      10.374  -5.325  26.139  0.00  0.00    +0.210 HD
ENDBRANCH   6   7
BRANCH   5   9
ATOM      9  O   UNL     1       8.320  -5.148  23.350  0.00  0.00    -0.386 OA
ATOM     10  H   UNL     1       9.088  -5.699  23.609  0.00  0.00    +0.210 HD
ENDBRANCH   5   9
BRANCH   4  11
ATOM     11  O   UNL     1       7.211  -2.436  24.185  0.00  0.00    -0.337 OA
BRANCH  11  12
ATOM     12  C   UNL     1       7.206  -2.016  22.808  0.00  0.00    +0.282 C 
ATOM     13  O   UNL     1       8.299  -2.649  22.118  0.00  0.00    -0.346 OA
ATOM     14  C   UNL     1       9.603  -2.211  22.510  0.00  0.00    +0.197 C 
ATOM     15  C   UNL     1       9.776  -0.685  22.476  0.00  0.00    +0.171 C 
ATOM     16  C   UNL     1       8.625   0.008  23.204  0.00  0.00    +0.178 C 
ATOM     17  C   UNL     1       7.297  -0.483  22.612  0.00  0.00    +0.201 C 
BRANCH  17  18
ATOM     18  O   UNL     1       6.214   0.273  23.162  0.00  0.00    -0.384 OA
ATOM     19  H   UNL     1       5.995   0.974  22.523  0.00  0.00    +0.210 HD
ENDBRANCH  17  18
BRANCH  16  20
ATOM     20  O   UNL     1       8.685  -0.196  24.625  0.00  0.00    -0.386 OA
ATOM     21  H   UNL     1       9.045  -1.101  24.789  0.00  0.00    +0.210 HD
ENDBRANCH  16  20
BRANCH  15  22
ATOM     22  O   UNL     1       9.814  -0.248  21.110  0.00  0.00    -0.387 OA
ATOM     23  H   UNL     1      10.703   0.097  20.918  0.00  0.00    +0.210 HD
ENDBRANCH  15  22
ENDBRANCH  11  12
ENDBRANCH   4  11
BRANCH   3  24
ATOM     24  O   UNL     1       4.849  -2.606  25.829  0.00  0.00    -0.461 OA
BRANCH  24  25
ATOM     25  C   UNL     1       5.068  -1.476  26.590  0.00  0.00    +0.131 A 
ATOM     26  C   UNL     1       5.779  -0.421  25.986  0.00  0.00    +0.093 A 
ATOM     27  C   UNL     1       6.078   0.760  26.700  0.00  0.00    +0.147 A 
ATOM     28  O   UNL     1       6.810   1.737  26.052  0.00  0.00    -0.451 OA
ATOM     29  C   UNL     1       7.058   2.951  26.705  0.00  0.00    +0.181 A 
ATOM     30  C   UNL     1       6.624   3.224  27.955  0.00  0.00    +0.208 A 
ATOM     31  C   UNL     1       5.964   2.145  28.740  0.00  0.00    +0.238 A 
ATOM     32  O   UNL     1       5.697   2.321  29.923  0.00  0.00    -0.283 OA
ATOM     33  C   UNL     1       5.652   0.897  28.020  0.00  0.00    +0.109 A 
ATOM     34  C   UNL     1       4.943  -0.151  28.620  0.00  0.00    +0.135 A 
ATOM     35  C   UNL     1       4.653  -1.320  27.912  0.00  0.00    +0.092 A 
BRANCH  29  36
ATOM     36  C   UNL     1       7.850   3.935  25.899  0.00  0.00    +0.025 A 
ATOM     37  C   UNL     1       7.792   5.322  26.174  0.00  0.00    +0.015 A 
ATOM     38  C   UNL     1       8.461   6.265  25.379  0.00  0.00    +0.050 A 
ATOM     39  C   UNL     1       9.255   5.820  24.343  0.00  0.00    +0.158 A 
ATOM     40  C   UNL     1       9.397   4.456  24.098  0.00  0.00    +0.159 A 
ATOM     41  C   UNL     1       8.696   3.510  24.858  0.00  0.00    +0.060 A 
BRANCH  40  42
ATOM     42  O   UNL     1      10.242   4.086  23.088  0.00  0.00    -0.503 OA
ATOM     43  H   UNL     1      10.778   4.858  22.840  0.00  0.00    +0.292 HD
ENDBRANCH  40  42
BRANCH  39  44
ATOM     44  O   UNL     1       9.916   6.732  23.573  0.00  0.00    -0.503 OA
ATOM     45  H   UNL     1       9.628   7.603  23.910  0.00  0.00    +0.292 HD
ENDBRANCH  39  44
ENDBRANCH  29  36
BRANCH  34  46
ATOM     46  O   UNL     1       4.502  -0.058  29.910  0.00  0.00    -0.506 OA
ATOM     47  H   UNL     1       3.533  -0.058  29.947  0.00  0.00    +0.292 HD
ENDBRANCH  34  46
BRANCH  30  48
ATOM     48  O   UNL     1       6.744   4.449  28.593  0.00  0.00    -0.501 OA
ATOM     49  H   UNL     1       7.319   4.346  29.368  0.00  0.00    +0.292 HD
ENDBRANCH  30  48
ENDBRANCH  24  25
ENDBRANCH   3  24
BRANCH   1  50
ATOM     50  C   UNL     1       7.217  -5.787  27.530  0.00  0.00    +0.197 C 
BRANCH  50  51
ATOM     51  O   UNL     1       6.768  -5.646  28.870  0.00  0.00    -0.346 OA
BRANCH  51  55
ATOM     52  C   UNL     1       2.978  -4.273  30.394  0.00  0.00    +0.041 C 
ATOM     53  C   UNL     1       3.492  -5.707  30.485  0.00  0.00    +0.149 C 
ATOM     54  O   UNL     1       4.909  -5.757  30.279  0.00  0.00    -0.343 OA
ATOM     55  C   UNL     1       5.344  -5.531  28.936  0.00  0.00    +0.282 C 
ATOM     56  C   UNL     1       4.716  -6.537  27.952  0.00  0.00    +0.201 C 
ATOM     57  C   UNL     1       3.191  -6.484  28.084  0.00  0.00    +0.179 C 
ATOM     58  C   UNL     1       2.762  -6.680  29.547  0.00  0.00    +0.174 C 
BRANCH  58  59
ATOM     59  O   UNL     1       3.065  -8.036  29.925  0.00  0.00    -0.387 OA
ATOM     60  H   UNL     1       3.055  -8.059  30.910  0.00  0.00    +0.210 HD
ENDBRANCH  58  59
BRANCH  57  61
ATOM     61  O   UNL     1       2.616  -7.519  27.272  0.00  0.00    -0.386 OA
ATOM     62  H   UNL     1       1.795  -7.135  26.898  0.00  0.00    +0.210 HD
ENDBRANCH  57  61
BRANCH  56  63
ATOM     63  O   UNL     1       5.162  -7.881  28.235  0.00  0.00    -0.384 OA
ATOM     64  H   UNL     1       4.738  -8.117  29.083  0.00  0.00    +0.210 HD
ENDBRANCH  56  63
ENDBRANCH  51  55
ENDBRANCH  50  51
ENDBRANCH   1  50
TORSDOF 20
ENDMDL
MODEL 5
REMARK VINA RESULT:      -6.0      2.295      4.891
REMARK  Name = 
REMARK  21 active torsions:
REMARK  status: ('A' for Active; 'I' for Inactive)
REMARK    1  A    between atoms: C_1  and  C_2
REMARK    2  A    between atoms: C_3  and  O_61
REMARK    3  A    between atoms: C_5  and  O_60
REMARK    4  A    between atoms: C_6  and  O_59
REMARK    5  A    between atoms: C_8  and  O_11
REMARK    6  A    between atoms: O_11  and  C_12
REMARK    7  A    between atoms: C_12  and  C_13
REMARK    8  A    between atoms: C_14  and  O_58
REMARK    9  A    between atoms: C_16  and  O_57
REMARK   10  A    between atoms: C_18  and  O_44
REMARK   11  A    between atoms: C_19  and  O_22
REMARK   12  A    between atoms: O_22  and  C_23
REMARK   13  A    between atoms: C_25  and  O_43
REMARK   14  A    between atoms: C_30  and  C_35
REMARK   15  A    between atoms: C_31  and  O_34
REMARK   16  A    between atoms: C_37  and  O_42
REMARK   17  A    between atoms: C_38  and  O_41
REMARK   18  A    between atoms: O_44  and  C_45
REMARK   19  A    between atoms: C_47  and  O_56
REMARK   20  A    between atoms: C_48  and  O_55
REMARK   21  A    between atoms: C_50  and  O_54
REMARK                            x       y       z     vdW  Elec       q    Type
REMARK                         _______ _______ _______ _____ _____    ______ ____
ROOT
ATOM      1  C   UNL     1       7.199   3.952  23.297  0.00  0.00    +0.179 C 
ATOM      2  O   UNL     1       6.973   3.298  24.560  0.00  0.00    -0.331 OA
ATOM      3  C   UNL     1       5.647   2.768  24.736  0.00  0.00    +0.340 C 
ATOM      4  C   UNL     1       4.591   3.911  24.601  0.00  0.00    +0.221 C 
ATOM      5  C   UNL     1       4.777   4.543  23.205  0.00  0.00    +0.180 C 
ATOM      6  C   UNL     1       6.195   5.101  23.084  0.00  0.00    +0.177 C 
ENDROOT
BRANCH   6   7
ATOM      7  O   UNL     1       6.296   5.767  21.821  0.00  0.00    -0.386 OA
ATOM      8  H   UNL     1       5.536   6.376  21.751  0.00  0.00    +0.210 HD
ENDBRANCH   6   7
BRANCH   5   9
ATOM      9  O   UNL     1       3.827   5.560  22.884  0.00  0.00    -0.386 OA
ATOM     10  H   UNL     1       3.050   5.086  22.519  0.00  0.00    +0.210 HD
ENDBRANCH   5   9
BRANCH   4  11
ATOM     11  O   UNL     1       4.757   4.846  25.696  0.00  0.00    -0.337 OA
BRANCH  11  12
ATOM     12  C   UNL     1       3.575   5.172  26.450  0.00  0.00    +0.282 C 
ATOM     13  O   UNL     1       3.613   6.565  26.809  0.00  0.00    -0.346 OA
ATOM     14  C   UNL     1       4.623   6.921  27.758  0.00  0.00    +0.197 C 
ATOM     15  C   UNL     1       4.611   6.054  29.025  0.00  0.00    +0.171 C 
ATOM     16  C   UNL     1       4.570   4.570  28.666  0.00  0.00    +0.178 C 
ATOM     17  C   UNL     1       3.382   4.319  27.727  0.00  0.00    +0.201 C 
BRANCH  17  18
ATOM     18  O   UNL     1       3.225   2.913  27.512  0.00  0.00    -0.384 OA
ATOM     19  H   UNL     1       2.271   2.721  27.534  0.00  0.00    +0.210 HD
ENDBRANCH  17  18
BRANCH  16  20
ATOM     20  O   UNL     1       5.808   4.119  28.094  0.00  0.00    -0.386 OA
ATOM     21  H   UNL     1       6.532   4.700  28.434  0.00  0.00    +0.210 HD
ENDBRANCH  16  20
BRANCH  15  22
ATOM     22  O   UNL     1       3.460   6.390  29.813  0.00  0.00    -0.387 OA
ATOM     23  H   UNL     1       3.436   5.807  30.592  0.00  0.00    +0.210 HD
ENDBRANCH  15  22
ENDBRANCH  11  12
ENDBRANCH   4  11
BRANCH   3  24
ATOM     24  O   UNL     1       5.499   2.077  26.003  0.00  0.00    -0.461 OA
BRANCH  24  25
ATOM     25  C   UNL     1       6.115   0.851  26.143  0.00  0.00    +0.131 A 
ATOM     26  C   UNL     1       5.434  -0.274  25.638  0.00  0.00    +0.093 A 
ATOM     27  C   UNL     1       5.975  -1.573  25.768  0.00  0.00    +0.147 A 
ATOM     28  O   UNL     1       5.233  -2.631  25.279  0.00  0.00    -0.451 OA
ATOM     29  C   UNL     1       5.773  -3.922  25.322  0.00  0.00    +0.181 A 
ATOM     30  C   UNL     1       6.993  -4.199  25.831  0.00  0.00    +0.208 A 
ATOM     31  C   UNL     1       7.758  -3.113  26.501  0.00  0.00    +0.238 A 
ATOM     32  O   UNL     1       8.796  -3.370  27.100  0.00  0.00    -0.283 OA
ATOM     33  C   UNL     1       7.209  -1.749  26.391  0.00  0.00    +0.109 A 
ATOM     34  C   UNL     1       7.886  -0.631  26.891  0.00  0.00    +0.135 A 
ATOM     35  C   UNL     1       7.347   0.652  26.765  0.00  0.00    +0.092 A 
BRANCH  29  36
ATOM     36  C   UNL     1       4.882  -4.984  24.753  0.00  0.00    +0.025 A 
ATOM     37  C   UNL     1       4.348  -4.871  23.448  0.00  0.00    +0.015 A 
ATOM     38  C   UNL     1       3.446  -5.812  22.930  0.00  0.00    +0.050 A 
ATOM     39  C   UNL     1       3.129  -6.919  23.690  0.00  0.00    +0.158 A 
ATOM     40  C   UNL     1       3.701  -7.100  24.947  0.00  0.00    +0.159 A 
ATOM     41  C   UNL     1       4.566  -6.141  25.490  0.00  0.00    +0.060 A 
BRANCH  40  42
ATOM     42  O   UNL     1       3.381  -8.246  25.621  0.00  0.00    -0.503 OA
ATOM     43  H   UNL     1       2.873  -8.002  26.414  0.00  0.00    +0.292 HD
ENDBRANCH  40  42
BRANCH  39  44
ATOM     44  O   UNL     1       2.260  -7.843  23.187  0.00  0.00    -0.503 OA
ATOM     45  H   UNL     1       2.052  -8.430  23.941  0.00  0.00    +0.292 HD
ENDBRANCH  39  44
ENDBRANCH  29  36
BRANCH  34  46
ATOM     46  O   UNL     1       9.101  -0.757  27.505  0.00  0.00    -0.506 OA
ATOM     47  H   UNL     1       9.171  -0.154  28.262  0.00  0.00    +0.292 HD
ENDBRANCH  34  46
BRANCH  30  48
ATOM     48  O   UNL     1       7.614  -5.438  25.788  0.00  0.00    -0.501 OA
ATOM     49  H   UNL     1       6.985  -6.117  26.077  0.00  0.00    +0.292 HD
ENDBRANCH  30  48
ENDBRANCH  24  25
ENDBRANCH   3  24
BRANCH   1  50
ATOM     50  C   UNL     1       7.239   2.930  22.148  0.00  0.00    +0.197 C 
BRANCH  50  51
ATOM     51  O   UNL     1       8.568   2.496  21.901  0.00  0.00    -0.346 OA
BRANCH  51  55
ATOM     52  C   UNL     1      10.821   0.498  24.986  0.00  0.00    +0.041 C 
ATOM     53  C   UNL     1      10.860   0.144  23.501  0.00  0.00    +0.149 C 
ATOM     54  O   UNL     1      10.353   1.220  22.704  0.00  0.00    -0.343 OA
ATOM     55  C   UNL     1       8.939   1.420  22.769  0.00  0.00    +0.282 C 
ATOM     56  C   UNL     1       8.159   0.157  22.357  0.00  0.00    +0.201 C 
ATOM     57  C   UNL     1       8.618  -1.021  23.222  0.00  0.00    +0.179 C 
ATOM     58  C   UNL     1      10.146  -1.176  23.169  0.00  0.00    +0.174 C 
BRANCH  58  59
ATOM     59  O   UNL     1      10.507  -1.600  21.841  0.00  0.00    -0.387 OA
ATOM     60  H   UNL     1      11.348  -2.107  21.930  0.00  0.00    +0.210 HD
ENDBRANCH  58  59
BRANCH  57  61
ATOM     61  O   UNL     1       7.997  -2.223  22.742  0.00  0.00    -0.386 OA
ATOM     62  H   UNL     1       8.182  -2.249  21.779  0.00  0.00    +0.210 HD
ENDBRANCH  57  61
BRANCH  56  63
ATOM     63  O   UNL     1       8.396  -0.165  20.969  0.00  0.00    -0.384 OA
ATOM     64  H   UNL     1       7.743   0.362  20.469  0.00  0.00    +0.210 HD
ENDBRANCH  56  63
ENDBRANCH  51  55
ENDBRANCH  50  51
ENDBRANCH   1  50
TORSDOF 20
ENDMDL
MODEL 6
REMARK VINA RESULT:      -5.8      2.143      2.896
REMARK  Name = 
REMARK  21 active torsions:
REMARK  status: ('A' for Active; 'I' for Inactive)
REMARK    1  A    between atoms: C_1  and  C_2
REMARK    2  A    between atoms: C_3  and  O_61
REMARK    3  A    between atoms: C_5  and  O_60
REMARK    4  A    between atoms: C_6  and  O_59
REMARK    5  A    between atoms: C_8  and  O_11
REMARK    6  A    between atoms: O_11  and  C_12
REMARK    7  A    between atoms: C_12  and  C_13
REMARK    8  A    between atoms: C_14  and  O_58
REMARK    9  A    between atoms: C_16  and  O_57
REMARK   10  A    between atoms: C_18  and  O_44
REMARK   11  A    between atoms: C_19  and  O_22
REMARK   12  A    between atoms: O_22  and  C_23
REMARK   13  A    between atoms: C_25  and  O_43
REMARK   14  A    between atoms: C_30  and  C_35
REMARK   15  A    between atoms: C_31  and  O_34
REMARK   16  A    between atoms: C_37  and  O_42
REMARK   17  A    between atoms: C_38  and  O_41
REMARK   18  A    between atoms: O_44  and  C_45
REMARK   19  A    between atoms: C_47  and  O_56
REMARK   20  A    between atoms: C_48  and  O_55
REMARK   21  A    between atoms: C_50  and  O_54
REMARK                            x       y       z     vdW  Elec       q    Type
REMARK                         _______ _______ _______ _____ _____    ______ ____
ROOT
ATOM      1  C   UNL     1      10.029  -1.697  23.996  0.00  0.00    +0.179 C 
ATOM      2  O   UNL     1       9.806  -0.814  25.112  0.00  0.00    -0.331 OA
ATOM      3  C   UNL     1       8.580  -0.063  25.051  0.00  0.00    +0.340 C 
ATOM      4  C   UNL     1       8.546   0.802  23.749  0.00  0.00    +0.221 C 
ATOM      5  C   UNL     1       8.688  -0.165  22.555  0.00  0.00    +0.180 C 
ATOM      6  C   UNL     1      10.013  -0.921  22.666  0.00  0.00    +0.177 C 
ENDROOT
BRANCH   6   7
ATOM      7  O   UNL     1      10.155  -1.727  21.493  0.00  0.00    -0.386 OA
ATOM      8  H   UNL     1      10.010  -1.148  20.721  0.00  0.00    +0.210 HD
ENDBRANCH   6   7
BRANCH   5   9
ATOM      9  O   UNL     1       8.592   0.458  21.274  0.00  0.00    -0.386 OA
ATOM     10  H   UNL     1       9.108   1.288  21.347  0.00  0.00    +0.210 HD
ENDBRANCH   5   9
BRANCH   4  11
ATOM     11  O   UNL     1       9.586   1.809  23.818  0.00  0.00    -0.337 OA
BRANCH  11  12
ATOM     12  C   UNL     1       9.628   2.764  22.743  0.00  0.00    +0.282 C 
ATOM     13  O   UNL     1      10.852   3.517  22.828  0.00  0.00    -0.346 OA
ATOM     14  C   UNL     1      10.949   4.397  23.951  0.00  0.00    +0.197 C 
ATOM     15  C   UNL     1       9.745   5.338  24.103  0.00  0.00    +0.171 C 
ATOM     16  C   UNL     1       8.433   4.559  24.015  0.00  0.00    +0.178 C 
ATOM     17  C   UNL     1       8.428   3.742  22.715  0.00  0.00    +0.201 C 
BRANCH  17  18
ATOM     18  O   UNL     1       7.145   3.136  22.531  0.00  0.00    -0.384 OA
ATOM     19  H   UNL     1       6.969   2.584  23.313  0.00  0.00    +0.210 HD
ENDBRANCH  17  18
BRANCH  16  20
ATOM     20  O   UNL     1       8.220   3.731  25.169  0.00  0.00    -0.386 OA
ATOM     21  H   UNL     1       7.693   4.249  25.824  0.00  0.00    +0.210 HD
ENDBRANCH  16  20
BRANCH  15  22
ATOM     22  O   UNL     1       9.787   6.325  23.063  0.00  0.00    -0.387 OA
ATOM     23  H   UNL     1       9.377   5.952  22.263  0.00  0.00    +0.210 HD
ENDBRANCH  15  22
ENDBRANCH  11  12
ENDBRANCH   4  11
BRANCH   3  24
ATOM     24  O   UNL     1       8.389   0.767  26.225  0.00  0.00    -0.461 OA
BRANCH  24  25
ATOM     25  C   UNL     1       7.263   0.547  26.992  0.00  0.00    +0.131 A 
ATOM     26  C   UNL     1       6.695  -0.741  26.946  0.00  0.00    +0.093 A 
ATOM     27  C   UNL     1       5.523  -1.047  27.673  0.00  0.00    +0.147 A 
ATOM     28  O   UNL     1       5.004  -2.322  27.551  0.00  0.00    -0.451 OA
ATOM     29  C   UNL     1       3.888  -2.682  28.316  0.00  0.00    +0.181 A 
ATOM     30  C   UNL     1       3.273  -1.839  29.174  0.00  0.00    +0.208 A 
ATOM     31  C   UNL     1       3.709  -0.416  29.223  0.00  0.00    +0.238 A 
ATOM     32  O   UNL     1       3.072   0.400  29.880  0.00  0.00    -0.283 OA
ATOM     33  C   UNL     1       4.923  -0.067  28.463  0.00  0.00    +0.109 A 
ATOM     34  C   UNL     1       5.489   1.211  28.510  0.00  0.00    +0.135 A 
ATOM     35  C   UNL     1       6.646   1.513  27.787  0.00  0.00    +0.092 A 
BRANCH  29  36
ATOM     36  C   UNL     1       3.423  -4.091  28.107  0.00  0.00    +0.025 A 
ATOM     37  C   UNL     1       2.301  -4.380  27.295  0.00  0.00    +0.015 A 
ATOM     38  C   UNL     1       1.802  -5.683  27.154  0.00  0.00    +0.050 A 
ATOM     39  C   UNL     1       2.470  -6.722  27.769  0.00  0.00    +0.158 A 
ATOM     40  C   UNL     1       3.624  -6.479  28.509  0.00  0.00    +0.159 A 
ATOM     41  C   UNL     1       4.102  -5.175  28.692  0.00  0.00    +0.060 A 
BRANCH  40  42
ATOM     42  O   UNL     1       4.263  -7.563  29.046  0.00  0.00    -0.503 OA
ATOM     43  H   UNL     1       4.413  -8.212  28.338  0.00  0.00    +0.292 HD
ENDBRANCH  40  42
BRANCH  39  44
ATOM     44  O   UNL     1       1.994  -7.994  27.628  0.00  0.00    -0.503 OA
ATOM     45  H   UNL     1       2.626  -8.433  27.025  0.00  0.00    +0.292 HD
ENDBRANCH  39  44
ENDBRANCH  29  36
BRANCH  34  46
ATOM     46  O   UNL     1       4.937   2.201  29.274  0.00  0.00    -0.506 OA
ATOM     47  H   UNL     1       4.307   2.727  28.758  0.00  0.00    +0.292 HD
ENDBRANCH  34  46
BRANCH  30  48
ATOM     48  O   UNL     1       2.244  -2.185  30.035  0.00  0.00    -0.501 OA
ATOM     49  H   UNL     1       2.112  -3.145  30.001  0.00  0.00    +0.292 HD
ENDBRANCH  30  48
ENDBRANCH  24  25
ENDBRANCH   3  24
BRANCH   1  50
ATOM     50  C   UNL     1       9.062  -2.892  24.041  0.00  0.00    +0.197 C 
BRANCH  50  51
ATOM     51  O   UNL     1       8.420  -3.074  22.788  0.00  0.00    -0.346 OA
BRANCH  51  55
ATOM     52  C   UNL     1       4.470  -2.932  24.508  0.00  0.00    +0.041 C 
ATOM     53  C   UNL     1       5.441  -4.104  24.633  0.00  0.00    +0.149 C 
ATOM     54  O   UNL     1       6.779  -3.695  24.330  0.00  0.00    -0.343 OA
ATOM     55  C   UNL     1       7.044  -3.433  22.950  0.00  0.00    +0.282 C 
ATOM     56  C   UNL     1       6.743  -4.657  22.064  0.00  0.00    +0.201 C 
ATOM     57  C   UNL     1       5.297  -5.105  22.301  0.00  0.00    +0.179 C 
ATOM     58  C   UNL     1       5.033  -5.328  23.799  0.00  0.00    +0.174 C 
BRANCH  58  59
ATOM     59  O   UNL     1       5.792  -6.476  24.221  0.00  0.00    -0.387 OA
ATOM     60  H   UNL     1       5.205  -7.259  24.098  0.00  0.00    +0.210 HD
ENDBRANCH  58  59
BRANCH  57  61
ATOM     61  O   UNL     1       5.063  -6.327  21.585  0.00  0.00    -0.386 OA
ATOM     62  H   UNL     1       4.671  -6.945  22.239  0.00  0.00    +0.210 HD
ENDBRANCH  57  61
BRANCH  56  63
ATOM     63  O   UNL     1       7.627  -5.754  22.381  0.00  0.00    -0.384 OA
ATOM     64  H   UNL     1       7.506  -5.912  23.338  0.00  0.00    +0.210 HD
ENDBRANCH  56  63
ENDBRANCH  51  55
ENDBRANCH  50  51
ENDBRANCH   1  50
TORSDOF 20
ENDMDL
MODEL 7
REMARK VINA RESULT:      -5.8      1.906      9.524
REMARK  Name = 
REMARK  21 active torsions:
REMARK  status: ('A' for Active; 'I' for Inactive)
REMARK    1  A    between atoms: C_1  and  C_2
REMARK    2  A    between atoms: C_3  and  O_61
REMARK    3  A    between atoms: C_5  and  O_60
REMARK    4  A    between atoms: C_6  and  O_59
REMARK    5  A    between atoms: C_8  and  O_11
REMARK    6  A    between atoms: O_11  and  C_12
REMARK    7  A    between atoms: C_12  and  C_13
REMARK    8  A    between atoms: C_14  and  O_58
REMARK    9  A    between atoms: C_16  and  O_57
REMARK   10  A    between atoms: C_18  and  O_44
REMARK   11  A    between atoms: C_19  and  O_22
REMARK   12  A    between atoms: O_22  and  C_23
REMARK   13  A    between atoms: C_25  and  O_43
REMARK   14  A    between atoms: C_30  and  C_35
REMARK   15  A    between atoms: C_31  and  O_34
REMARK   16  A    between atoms: C_37  and  O_42
REMARK   17  A    between atoms: C_38  and  O_41
REMARK   18  A    between atoms: O_44  and  C_45
REMARK   19  A    between atoms: C_47  and  O_56
REMARK   20  A    between atoms: C_48  and  O_55
REMARK   21  A    between atoms: C_50  and  O_54
REMARK                            x       y       z     vdW  Elec       q    Type
REMARK                         _______ _______ _______ _____ _____    ______ ____
ROOT
ATOM      1  C   UNL     1       3.569  -2.468  28.710  0.00  0.00    +0.179 C 
ATOM      2  O   UNL     1       4.870  -2.938  28.307  0.00  0.00    -0.331 OA
ATOM      3  C   UNL     1       5.298  -2.488  27.009  0.00  0.00    +0.340 C 
ATOM      4  C   UNL     1       4.273  -2.941  25.919  0.00  0.00    +0.221 C 
ATOM      5  C   UNL     1       2.901  -2.350  26.309  0.00  0.00    +0.180 C 
ATOM      6  C   UNL     1       2.493  -2.876  27.686  0.00  0.00    +0.177 C 
ENDROOT
BRANCH   6   7
ATOM      7  O   UNL     1       1.177  -2.391  27.966  0.00  0.00    -0.386 OA
ATOM      8  H   UNL     1       0.579  -3.162  27.985  0.00  0.00    +0.210 HD
ENDBRANCH   6   7
BRANCH   5   9
ATOM      9  O   UNL     1       1.859  -2.602  25.367  0.00  0.00    -0.386 OA
ATOM     10  H   UNL     1       2.257  -2.439  24.486  0.00  0.00    +0.210 HD
ENDBRANCH   5   9
BRANCH   4  11
ATOM     11  O   UNL     1       4.285  -4.387  25.825  0.00  0.00    -0.337 OA
BRANCH  11  12
ATOM     12  C   UNL     1       4.003  -4.950  24.531  0.00  0.00    +0.282 C 
ATOM     13  O   UNL     1       2.612  -5.318  24.469  0.00  0.00    -0.346 OA
ATOM     14  C   UNL     1       2.235  -6.413  25.308  0.00  0.00    +0.197 C 
ATOM     15  C   UNL     1       3.114  -7.660  25.129  0.00  0.00    +0.171 C 
ATOM     16  C   UNL     1       4.596  -7.291  25.190  0.00  0.00    +0.178 C 
ATOM     17  C   UNL     1       4.873  -6.178  24.170  0.00  0.00    +0.201 C 
BRANCH  17  18
ATOM     18  O   UNL     1       6.281  -5.934  24.093  0.00  0.00    -0.384 OA
ATOM     19  H   UNL     1       6.542  -6.029  23.160  0.00  0.00    +0.210 HD
ENDBRANCH  17  18
BRANCH  16  20
ATOM     20  O   UNL     1       5.003  -6.916  26.516  0.00  0.00    -0.386 OA
ATOM     21  H   UNL     1       5.209  -7.741  27.018  0.00  0.00    +0.210 HD
ENDBRANCH  16  20
BRANCH  15  22
ATOM     22  O   UNL     1       2.822  -8.261  23.859  0.00  0.00    -0.387 OA
ATOM     23  H   UNL     1       3.562  -8.083  23.253  0.00  0.00    +0.210 HD
ENDBRANCH  15  22
ENDBRANCH  11  12
ENDBRANCH   4  11
BRANCH   3  24
ATOM     24  O   UNL     1       6.633  -2.952  26.683  0.00  0.00    -0.461 OA
BRANCH  24  25
ATOM     25  C   UNL     1       7.294  -2.332  25.642  0.00  0.00    +0.131 A 
ATOM     26  C   UNL     1       6.964  -0.988  25.381  0.00  0.00    +0.093 A 
ATOM     27  C   UNL     1       7.565  -0.283  24.314  0.00  0.00    +0.147 A 
ATOM     28  O   UNL     1       7.165   1.021  24.097  0.00  0.00    -0.451 OA
ATOM     29  C   UNL     1       7.796   1.772  23.097  0.00  0.00    +0.181 A 
ATOM     30  C   UNL     1       8.782   1.284  22.313  0.00  0.00    +0.208 A 
ATOM     31  C   UNL     1       9.137  -0.157  22.415  0.00  0.00    +0.238 A 
ATOM     32  O   UNL     1       9.920  -0.657  21.615  0.00  0.00    -0.283 OA
ATOM     33  C   UNL     1       8.513  -0.919  23.513  0.00  0.00    +0.109 A 
ATOM     34  C   UNL     1       8.842  -2.253  23.774  0.00  0.00    +0.135 A 
ATOM     35  C   UNL     1       8.242  -2.949  24.828  0.00  0.00    +0.092 A 
BRANCH  29  36
ATOM     36  C   UNL     1       7.286   3.175  22.963  0.00  0.00    +0.025 A 
ATOM     37  C   UNL     1       8.131   4.286  23.192  0.00  0.00    +0.015 A 
ATOM     38  C   UNL     1       7.652   5.604  23.153  0.00  0.00    +0.050 A 
ATOM     39  C   UNL     1       6.333   5.824  22.810  0.00  0.00    +0.158 A 
ATOM     40  C   UNL     1       5.498   4.754  22.500  0.00  0.00    +0.159 A 
ATOM     41  C   UNL     1       5.956   3.433  22.582  0.00  0.00    +0.060 A 
BRANCH  40  42
ATOM     42  O   UNL     1       4.218   5.050  22.118  0.00  0.00    -0.503 OA
ATOM     43  H   UNL     1       3.764   4.218  21.901  0.00  0.00    +0.292 HD
ENDBRANCH  40  42
BRANCH  39  44
ATOM     44  O   UNL     1       5.864   7.104  22.761  0.00  0.00    -0.503 OA
ATOM     45  H   UNL     1       5.206   7.160  23.482  0.00  0.00    +0.292 HD
ENDBRANCH  39  44
ENDBRANCH  29  36
BRANCH  34  46
ATOM     46  O   UNL     1       9.769  -2.914  23.018  0.00  0.00    -0.506 OA
ATOM     47  H   UNL     1      10.369  -2.290  22.581  0.00  0.00    +0.292 HD
ENDBRANCH  34  46
BRANCH  30  48
ATOM     48  O   UNL     1       9.513   2.023  21.395  0.00  0.00    -0.501 OA
ATOM     49  H   UNL     1      10.453   1.980  21.632  0.00  0.00    +0.292 HD
ENDBRANCH  30  48
ENDBRANCH  24  25
ENDBRANCH   3  24
BRANCH   1  50
ATOM     50  C   UNL     1       3.604  -0.962  29.023  0.00  0.00    +0.197 C 
BRANCH  50  51
ATOM     51  O   UNL     1       4.930  -0.461  28.966  0.00  0.00    -0.346 OA
BRANCH  51  55
ATOM     52  C   UNL     1       3.707   3.031  26.755  0.00  0.00    +0.041 C 
ATOM     53  C   UNL     1       5.037   2.302  26.579  0.00  0.00    +0.149 C 
ATOM     54  O   UNL     1       4.974   0.982  27.129  0.00  0.00    -0.343 OA
ATOM     55  C   UNL     1       4.957   0.910  28.557  0.00  0.00    +0.282 C 
ATOM     56  C   UNL     1       6.189   1.592  29.182  0.00  0.00    +0.201 C 
ATOM     57  C   UNL     1       6.274   3.035  28.675  0.00  0.00    +0.179 C 
ATOM     58  C   UNL     1       6.239   3.078  27.139  0.00  0.00    +0.174 C 
BRANCH  58  59
ATOM     59  O   UNL     1       7.462   2.497  26.647  0.00  0.00    -0.387 OA
ATOM     60  H   UNL     1       7.639   2.920  25.774  0.00  0.00    +0.210 HD
ENDBRANCH  58  59
BRANCH  57  61
ATOM     61  O   UNL     1       7.497   3.623  29.144  0.00  0.00    -0.386 OA
ATOM     62  H   UNL     1       7.931   4.000  28.348  0.00  0.00    +0.210 HD
ENDBRANCH  57  61
BRANCH  56  63
ATOM     63  O   UNL     1       7.402   0.899  28.818  0.00  0.00    -0.384 OA
ATOM     64  H   UNL     1       7.712   1.337  28.002  0.00  0.00    +0.210 HD
ENDBRANCH  56  63
ENDBRANCH  51  55
ENDBRANCH  50  51
ENDBRANCH   1  50
TORSDOF 20
ENDMDL
MODEL 8
REMARK VINA RESULT:      -5.8      2.559      6.159
REMARK  Name = 
REMARK  21 active torsions:
REMARK  status: ('A' for Active; 'I' for Inactive)
REMARK    1  A    between atoms: C_1  and  C_2
REMARK    2  A    between atoms: C_3  and  O_61
REMARK    3  A    between atoms: C_5  and  O_60
REMARK    4  A    between atoms: C_6  and  O_59
REMARK    5  A    between atoms: C_8  and  O_11
REMARK    6  A    between atoms: O_11  and  C_12
REMARK    7  A    between atoms: C_12  and  C_13
REMARK    8  A    between atoms: C_14  and  O_58
REMARK    9  A    between atoms: C_16  and  O_57
REMARK   10  A    between atoms: C_18  and  O_44
REMARK   11  A    between atoms: C_19  and  O_22
REMARK   12  A    between atoms: O_22  and  C_23
REMARK   13  A    between atoms: C_25  and  O_43
REMARK   14  A    between atoms: C_30  and  C_35
REMARK   15  A    between atoms: C_31  and  O_34
REMARK   16  A    between atoms: C_37  and  O_42
REMARK   17  A    between atoms: C_38  and  O_41
REMARK   18  A    between atoms: O_44  and  C_45
REMARK   19  A    between atoms: C_47  and  O_56
REMARK   20  A    between atoms: C_48  and  O_55
REMARK   21  A    between atoms: C_50  and  O_54
REMARK                            x       y       z     vdW  Elec       q    Type
REMARK                         _______ _______ _______ _____ _____    ______ ____
ROOT
ATOM      1  C   UNL     1       5.475   3.629  23.712  0.00  0.00    +0.179 C 
ATOM      2  O   UNL     1       5.796   2.449  24.473  0.00  0.00    -0.331 OA
ATOM      3  C   UNL     1       6.981   2.558  25.282  0.00  0.00    +0.340 C 
ATOM      4  C   UNL     1       8.215   2.890  24.382  0.00  0.00    +0.221 C 
ATOM      5  C   UNL     1       7.900   4.208  23.644  0.00  0.00    +0.180 C 
ATOM      6  C   UNL     1       6.644   4.027  22.791  0.00  0.00    +0.177 C 
ENDROOT
BRANCH   6   7
ATOM      7  O   UNL     1       6.444   5.231  22.045  0.00  0.00    -0.386 OA
ATOM      8  H   UNL     1       6.280   5.948  22.687  0.00  0.00    +0.210 HD
ENDBRANCH   6   7
BRANCH   5   9
ATOM      9  O   UNL     1       8.967   4.703  22.834  0.00  0.00    -0.386 OA
ATOM     10  H   UNL     1       9.750   4.165  23.076  0.00  0.00    +0.210 HD
ENDBRANCH   5   9
BRANCH   4  11
ATOM     11  O   UNL     1       8.478   1.770  23.501  0.00  0.00    -0.337 OA
BRANCH  11  12
ATOM     12  C   UNL     1       9.851   1.357  23.377  0.00  0.00    +0.282 C 
ATOM     13  O   UNL     1      10.149   1.122  21.988  0.00  0.00    -0.346 OA
ATOM     14  C   UNL     1       9.493  -0.008  21.407  0.00  0.00    +0.197 C 
ATOM     15  C   UNL     1       9.675  -1.306  22.209  0.00  0.00    +0.171 C 
ATOM     16  C   UNL     1       9.363  -1.078  23.687  0.00  0.00    +0.178 C 
ATOM     17  C   UNL     1      10.210   0.096  24.198  0.00  0.00    +0.201 C 
BRANCH  17  18
ATOM     18  O   UNL     1      10.059   0.220  25.616  0.00  0.00    -0.384 OA
ATOM     19  H   UNL     1      10.005  -0.681  25.982  0.00  0.00    +0.210 HD
ENDBRANCH  17  18
BRANCH  16  20
ATOM     20  O   UNL     1       7.961  -0.865  23.916  0.00  0.00    -0.386 OA
ATOM     21  H   UNL     1       7.488  -1.712  23.727  0.00  0.00    +0.210 HD
ENDBRANCH  16  20
BRANCH  15  22
ATOM     22  O   UNL     1      11.029  -1.758  22.068  0.00  0.00    -0.387 OA
ATOM     23  H   UNL     1      11.139  -2.138  21.178  0.00  0.00    +0.210 HD
ENDBRANCH  15  22
ENDBRANCH  11  12
ENDBRANCH   4  11
BRANCH   3  24
ATOM     24  O   UNL     1       7.222   1.359  26.063  0.00  0.00    -0.461 OA
BRANCH  24  25
ATOM     25  C   UNL     1       6.125   0.665  26.530  0.00  0.00    +0.131 A 
ATOM     26  C   UNL     1       5.746  -0.492  25.822  0.00  0.00    +0.093 A 
ATOM     27  C   UNL     1       4.616  -1.247  26.209  0.00  0.00    +0.147 A 
ATOM     28  O   UNL     1       4.285  -2.349  25.445  0.00  0.00    -0.451 OA
ATOM     29  C   UNL     1       3.217  -3.162  25.844  0.00  0.00    +0.181 A 
ATOM     30  C   UNL     1       2.473  -2.922  26.945  0.00  0.00    +0.208 A 
ATOM     31  C   UNL     1       2.702  -1.665  27.709  0.00  0.00    +0.238 A 
ATOM     32  O   UNL     1       1.943  -1.352  28.620  0.00  0.00    -0.283 OA
ATOM     33  C   UNL     1       3.868  -0.853  27.318  0.00  0.00    +0.109 A 
ATOM     34  C   UNL     1       4.246   0.295  28.022  0.00  0.00    +0.135 A 
ATOM     35  C   UNL     1       5.362   1.042  27.635  0.00  0.00    +0.092 A 
BRANCH  29  36
ATOM     36  C   UNL     1       2.961  -4.333  24.944  0.00  0.00    +0.025 A 
ATOM     37  C   UNL     1       1.796  -4.402  24.145  0.00  0.00    +0.015 A 
ATOM     38  C   UNL     1       1.499  -5.526  23.360  0.00  0.00    +0.050 A 
ATOM     39  C   UNL     1       2.407  -6.564  23.313  0.00  0.00    +0.158 A 
ATOM     40  C   UNL     1       3.601  -6.490  24.025  0.00  0.00    +0.159 A 
ATOM     41  C   UNL     1       3.884  -5.391  24.847  0.00  0.00    +0.060 A 
BRANCH  40  42
ATOM     42  O   UNL     1       4.477  -7.532  23.889  0.00  0.00    -0.503 OA
ATOM     43  H   UNL     1       5.036  -7.362  23.112  0.00  0.00    +0.292 HD
ENDBRANCH  40  42
BRANCH  39  44
ATOM     44  O   UNL     1       2.128  -7.656  22.543  0.00  0.00    -0.503 OA
ATOM     45  H   UNL     1       1.929  -7.296  21.657  0.00  0.00    +0.292 HD
ENDBRANCH  39  44
ENDBRANCH  29  36
BRANCH  34  46
ATOM     46  O   UNL     1       3.545   0.715  29.117  0.00  0.00    -0.506 OA
ATOM     47  H   UNL     1       3.150  -0.036  29.586  0.00  0.00    +0.292 HD
ENDBRANCH  34  46
BRANCH  30  48
ATOM     48  O   UNL     1       1.487  -3.760  27.443  0.00  0.00    -0.501 OA
ATOM     49  H   UNL     1       0.742  -3.775  26.821  0.00  0.00    +0.292 HD
ENDBRANCH  30  48
ENDBRANCH  24  25
ENDBRANCH   3  24
BRANCH   1  50
ATOM     50  C   UNL     1       4.984   4.759  24.632  0.00  0.00    +0.197 C 
BRANCH  50  51
ATOM     51  O   UNL     1       4.201   5.698  23.910  0.00  0.00    -0.346 OA
BRANCH  51  55
ATOM     52  C   UNL     1       0.444   4.009  25.177  0.00  0.00    +0.041 C 
ATOM     53  C   UNL     1       1.415   3.353  24.200  0.00  0.00    +0.149 C 
ATOM     54  O   UNL     1       2.719   3.936  24.305  0.00  0.00    -0.343 OA
ATOM     55  C   UNL     1       2.847   5.257  23.773  0.00  0.00    +0.282 C 
ATOM     56  C   UNL     1       2.452   5.319  22.285  0.00  0.00    +0.201 C 
ATOM     57  C   UNL     1       1.035   4.761  22.118  0.00  0.00    +0.179 C 
ATOM     58  C   UNL     1       0.920   3.363  22.745  0.00  0.00    +0.174 C 
BRANCH  58  59
ATOM     59  O   UNL     1       1.712   2.453  21.958  0.00  0.00    -0.387 OA
ATOM     60  H   UNL     1       2.618   2.465  22.347  0.00  0.00    +0.210 HD
ENDBRANCH  58  59
BRANCH  57  61
ATOM     61  O   UNL     1       0.724   4.687  20.719  0.00  0.00    -0.386 OA
ATOM     62  H   UNL     1       1.570   4.857  20.251  0.00  0.00    +0.210 HD
ENDBRANCH  57  61
BRANCH  56  63
ATOM     63  O   UNL     1       3.358   4.535  21.478  0.00  0.00    -0.384 OA
ATOM     64  H   UNL     1       4.111   5.129  21.290  0.00  0.00    +0.210 HD
ENDBRANCH  56  63
ENDBRANCH  51  55
ENDBRANCH  50  51
ENDBRANCH   1  50
TORSDOF 20
ENDMDL
MODEL 9
REMARK VINA RESULT:      -5.6      1.700      2.220
REMARK  Name = 
REMARK  21 active torsions:
REMARK  status: ('A' for Active; 'I' for Inactive)
REMARK    1  A    between atoms: C_1  and  C_2
REMARK    2  A    between atoms: C_3  and  O_61
REMARK    3  A    between atoms: C_5  and  O_60
REMARK    4  A    between atoms: C_6  and  O_59
REMARK    5  A    between atoms: C_8  and  O_11
REMARK    6  A    between atoms: O_11  and  C_12
REMARK    7  A    between atoms: C_12  and  C_13
REMARK    8  A    between atoms: C_14  and  O_58
REMARK    9  A    between atoms: C_16  and  O_57
REMARK   10  A    between atoms: C_18  and  O_44
REMARK   11  A    between atoms: C_19  and  O_22
REMARK   12  A    between atoms: O_22  and  C_23
REMARK   13  A    between atoms: C_25  and  O_43
REMARK   14  A    between atoms: C_30  and  C_35
REMARK   15  A    between atoms: C_31  and  O_34
REMARK   16  A    between atoms: C_37  and  O_42
REMARK   17  A    between atoms: C_38  and  O_41
REMARK   18  A    between atoms: O_44  and  C_45
REMARK   19  A    between atoms: C_47  and  O_56
REMARK   20  A    between atoms: C_48  and  O_55
REMARK   21  A    between atoms: C_50  and  O_54
REMARK                            x       y       z     vdW  Elec       q    Type
REMARK                         _______ _______ _______ _____ _____    ______ ____
ROOT
ATOM      1  C   UNL     1       9.261  -1.220  24.475  0.00  0.00    +0.179 C 
ATOM      2  O   UNL     1       8.001  -0.718  24.961  0.00  0.00    -0.331 OA
ATOM      3  C   UNL     1       7.113  -0.231  23.939  0.00  0.00    +0.340 C 
ATOM      4  C   UNL     1       7.800   0.918  23.134  0.00  0.00    +0.221 C 
ATOM      5  C   UNL     1       9.102   0.341  22.536  0.00  0.00    +0.180 C 
ATOM      6  C   UNL     1      10.010  -0.143  23.667  0.00  0.00    +0.177 C 
ENDROOT
BRANCH   6   7
ATOM      7  O   UNL     1      11.243  -0.573  23.083  0.00  0.00    -0.386 OA
ATOM      8  H   UNL     1      11.963  -0.284  23.676  0.00  0.00    +0.210 HD
ENDBRANCH   6   7
BRANCH   5   9
ATOM      9  O   UNL     1       9.818   1.245  21.694  0.00  0.00    -0.386 OA
ATOM     10  H   UNL     1       9.157   1.906  21.398  0.00  0.00    +0.210 HD
ENDBRANCH   5   9
BRANCH   4  11
ATOM     11  O   UNL     1       8.007   2.055  24.008  0.00  0.00    -0.337 OA
BRANCH  11  12
ATOM     12  C   UNL     1       7.407   3.298  23.600  0.00  0.00    +0.282 C 
ATOM     13  O   UNL     1       8.442   4.213  23.197  0.00  0.00    -0.346 OA
ATOM     14  C   UNL     1       9.289   4.677  24.252  0.00  0.00    +0.197 C 
ATOM     15  C   UNL     1       8.521   5.251  25.452  0.00  0.00    +0.171 C 
ATOM     16  C   UNL     1       7.415   4.295  25.896  0.00  0.00    +0.178 C 
ATOM     17  C   UNL     1       6.529   3.965  24.687  0.00  0.00    +0.201 C 
BRANCH  17  18
ATOM     18  O   UNL     1       5.393   3.206  25.113  0.00  0.00    -0.384 OA
ATOM     19  H   UNL     1       4.620   3.543  24.626  0.00  0.00    +0.210 HD
ENDBRANCH  17  18
BRANCH  16  20
ATOM     20  O   UNL     1       7.943   3.109  26.511  0.00  0.00    -0.386 OA
ATOM     21  H   UNL     1       8.487   2.631  25.839  0.00  0.00    +0.210 HD
ENDBRANCH  16  20
BRANCH  15  22
ATOM     22  O   UNL     1       7.945   6.511  25.080  0.00  0.00    -0.387 OA
ATOM     23  H   UNL     1       8.645   7.188  25.088  0.00  0.00    +0.210 HD
ENDBRANCH  15  22
ENDBRANCH  11  12
ENDBRANCH   4  11
BRANCH   3  24
ATOM     24  O   UNL     1       5.843   0.212  24.485  0.00  0.00    -0.461 OA
BRANCH  24  25
ATOM     25  C   UNL     1       5.391  -0.397  25.638  0.00  0.00    +0.131 A 
ATOM     26  C   UNL     1       4.734  -1.635  25.497  0.00  0.00    +0.093 A 
ATOM     27  C   UNL     1       4.209  -2.313  26.620  0.00  0.00    +0.147 A 
ATOM     28  O   UNL     1       3.547  -3.506  26.400  0.00  0.00    -0.451 OA
ATOM     29  C   UNL     1       3.081  -4.241  27.497  0.00  0.00    +0.181 A 
ATOM     30  C   UNL     1       3.236  -3.842  28.777  0.00  0.00    +0.208 A 
ATOM     31  C   UNL     1       3.810  -2.495  29.048  0.00  0.00    +0.238 A 
ATOM     32  O   UNL     1       3.822  -2.050  30.190  0.00  0.00    -0.283 OA
ATOM     33  C   UNL     1       4.354  -1.761  27.891  0.00  0.00    +0.109 A 
ATOM     34  C   UNL     1       5.008  -0.532  28.031  0.00  0.00    +0.135 A 
ATOM     35  C   UNL     1       5.523   0.139  26.918  0.00  0.00    +0.092 A 
BRANCH  29  36
ATOM     36  C   UNL     1       2.391  -5.521  27.134  0.00  0.00    +0.025 A 
ATOM     37  C   UNL     1       1.074  -5.793  27.575  0.00  0.00    +0.015 A 
ATOM     38  C   UNL     1       0.443  -7.019  27.316  0.00  0.00    +0.050 A 
ATOM     39  C   UNL     1       1.100  -7.958  26.547  0.00  0.00    +0.158 A 
ATOM     40  C   UNL     1       2.365  -7.687  26.031  0.00  0.00    +0.159 A 
ATOM     41  C   UNL     1       3.021  -6.484  26.324  0.00  0.00    +0.060 A 
BRANCH  40  42
ATOM     42  O   UNL     1       2.934  -8.642  25.235  0.00  0.00    -0.503 OA
ATOM     43  H   UNL     1       3.076  -9.441  25.770  0.00  0.00    +0.292 HD
ENDBRANCH  40  42
BRANCH  39  44
ATOM     44  O   UNL     1       0.487  -9.148  26.284  0.00  0.00    -0.503 OA
ATOM     45  H   UNL     1       1.184  -9.823  26.403  0.00  0.00    +0.292 HD
ENDBRANCH  39  44
ENDBRANCH  29  36
BRANCH  34  46
ATOM     46  O   UNL     1       5.176   0.044  29.259  0.00  0.00    -0.506 OA
ATOM     47  H   UNL     1       6.033  -0.198  29.642  0.00  0.00    +0.292 HD
ENDBRANCH  34  46
BRANCH  30  48
ATOM     48  O   UNL     1       2.898  -4.590  29.895  0.00  0.00    -0.501 OA
ATOM     49  H   UNL     1       2.029  -4.997  29.752  0.00  0.00    +0.292 HD
ENDBRANCH  30  48
ENDBRANCH  24  25
ENDBRANCH   3  24
BRANCH   1  50
ATOM     50  C   UNL     1       9.070  -2.551  23.728  0.00  0.00    +0.197 C 
BRANCH  50  51
ATOM     51  O   UNL     1       8.118  -3.372  24.387  0.00  0.00    -0.346 OA
BRANCH  51  55
ATOM     52  C   UNL     1       6.068  -4.089  20.664  0.00  0.00    +0.041 C 
ATOM     53  C   UNL     1       5.387  -3.820  22.003  0.00  0.00    +0.149 C 
ATOM     54  O   UNL     1       6.298  -3.220  22.930  0.00  0.00    -0.343 OA
ATOM     55  C   UNL     1       7.307  -4.089  23.452  0.00  0.00    +0.282 C 
ATOM     56  C   UNL     1       6.699  -5.316  24.158  0.00  0.00    +0.201 C 
ATOM     57  C   UNL     1       5.756  -6.037  23.190  0.00  0.00    +0.179 C 
ATOM     58  C   UNL     1       4.718  -5.063  22.610  0.00  0.00    +0.174 C 
BRANCH  58  59
ATOM     59  O   UNL     1       3.834  -4.666  23.675  0.00  0.00    -0.387 OA
ATOM     60  H   UNL     1       2.996  -4.373  23.245  0.00  0.00    +0.210 HD
ENDBRANCH  58  59
BRANCH  57  61
ATOM     61  O   UNL     1       5.084  -7.093  23.892  0.00  0.00    -0.386 OA
ATOM     62  H   UNL     1       5.460  -7.089  24.798  0.00  0.00    +0.210 HD
ENDBRANCH  57  61
BRANCH  56  63
ATOM     63  O   UNL     1       5.950  -4.919  25.328  0.00  0.00    -0.384 OA
ATOM     64  H   UNL     1       6.214  -5.550  26.026  0.00  0.00    +0.210 HD
ENDBRANCH  56  63
ENDBRANCH  51  55
ENDBRANCH  50  51
ENDBRANCH   1  50
TORSDOF 20
ENDMDL
