MODEL 1
REMARK VINA RESULT:      -6.7      0.000      0.000
REMARK  Name = 
REMARK  9 active torsions:
REMARK  status: ('A' for Active; 'I' for Inactive)
REMARK    1  A    between atoms: C_1  and  O_2
REMARK    2  A    between atoms: O_2  and  C_3
REMARK    3  A    between atoms: C_7  and  O_9
REMARK    4  A    between atoms: O_9  and  C_10
REMARK    5  A    between atoms: C_13  and  O_24
REMARK    6  A    between atoms: C_14  and  C_16
REMARK    7  A    between atoms: C_18  and  O_23
REMARK    8  A    between atoms: C_19  and  O_22
REMARK    9  A    between atoms: O_24  and  C_25
REMARK                            x       y       z     vdW  Elec       q    Type
REMARK                         _______ _______ _______ _____ _____    ______ ____
ROOT
ATOM      1  C   UNL     1       6.994   1.188  23.982  0.00  0.00    +0.127 A 
ATOM      2  C   UNL     1       8.382   1.176  23.809  0.00  0.00    +0.092 A 
ATOM      3  C   UNL     1       9.091  -0.029  23.732  0.00  0.00    +0.138 A 
ATOM      4  C   UNL     1       8.386  -1.242  23.838  0.00  0.00    +0.109 A 
ATOM      5  C   UNL     1       9.062  -2.557  23.820  0.00  0.00    +0.238 A 
ATOM      6  C   UNL     1       8.212  -3.780  23.999  0.00  0.00    +0.211 A 
ATOM      7  C   UNL     1       6.873  -3.615  24.062  0.00  0.00    +0.181 A 
ATOM      8  O   UNL     1       6.245  -2.374  24.038  0.00  0.00    -0.451 OA
ATOM      9  O   UNL     1      10.275  -2.646  23.664  0.00  0.00    -0.283 OA
ATOM     10  C   UNL     1       7.001  -1.231  23.980  0.00  0.00    +0.147 A 
ATOM     11  C   UNL     1       6.302  -0.019  24.057  0.00  0.00    +0.092 A 
ENDROOT
BRANCH   7  12
ATOM     12  C   UNL     1       5.897  -4.749  24.153  0.00  0.00    +0.025 A 
ATOM     13  C   UNL     1       5.191  -5.175  23.008  0.00  0.00    +0.015 A 
ATOM     14  C   UNL     1       4.335  -6.285  23.046  0.00  0.00    +0.050 A 
ATOM     15  C   UNL     1       4.167  -6.973  24.236  0.00  0.00    +0.158 A 
ATOM     16  C   UNL     1       4.832  -6.564  25.383  0.00  0.00    +0.159 A 
ATOM     17  C   UNL     1       5.704  -5.479  25.344  0.00  0.00    +0.060 A 
BRANCH  15  18
ATOM     18  O   UNL     1       3.350  -8.065  24.273  0.00  0.00    -0.503 OA
ATOM     19  H   UNL     1       3.252  -8.265  25.226  0.00  0.00    +0.292 HD
ENDBRANCH  15  18
BRANCH  16  20
ATOM     20  O   UNL     1       4.610  -7.270  26.534  0.00  0.00    -0.503 OA
ATOM     21  H   UNL     1       4.114  -6.699  27.147  0.00  0.00    +0.292 HD
ENDBRANCH  16  20
ENDBRANCH   7  12
BRANCH   1  23
ATOM     22  C   UNL     1       6.580   3.285  22.926  0.00  0.00    +0.277 C 
ATOM     23  O   UNL     1       6.453   2.441  24.063  0.00  0.00    -0.495 OA
ENDBRANCH   1  23
BRANCH   3  24
ATOM     24  O   UNL     1      10.443  -0.096  23.554  0.00  0.00    -0.494 OA
ATOM     25  C   UNL     1      11.301   0.626  24.423  0.00  0.00    +0.277 C 
ENDBRANCH   3  24
BRANCH   6  26
ATOM     26  O   UNL     1       8.787  -5.039  24.143  0.00  0.00    -0.488 OA
ATOM     27  C   UNL     1       9.384  -5.340  25.401  0.00  0.00    +0.277 C 
ENDBRANCH   6  26
TORSDOF 6
ENDMDL
MODEL 2
REMARK VINA RESULT:      -6.6      1.913      7.275
REMARK  Name = 
REMARK  9 active torsions:
REMARK  status: ('A' for Active; 'I' for Inactive)
REMARK    1  A    between atoms: C_1  and  O_2
REMARK    2  A    between atoms: O_2  and  C_3
REMARK    3  A    between atoms: C_7  and  O_9
REMARK    4  A    between atoms: O_9  and  C_10
REMARK    5  A    between atoms: C_13  and  O_24
REMARK    6  A    between atoms: C_14  and  C_16
REMARK    7  A    between atoms: C_18  and  O_23
REMARK    8  A    between atoms: C_19  and  O_22
REMARK    9  A    between atoms: O_24  and  C_25
REMARK                            x       y       z     vdW  Elec       q    Type
REMARK                         _______ _______ _______ _____ _____    ______ ____
ROOT
ATOM      1  C   UNL     1       3.996  -6.806  24.324  0.00  0.00    +0.127 A 
ATOM      2  C   UNL     1       4.386  -7.168  25.618  0.00  0.00    +0.092 A 
ATOM      3  C   UNL     1       5.344  -6.426  26.319  0.00  0.00    +0.138 A 
ATOM      4  C   UNL     1       5.922  -5.302  25.701  0.00  0.00    +0.109 A 
ATOM      5  C   UNL     1       6.978  -4.496  26.349  0.00  0.00    +0.238 A 
ATOM      6  C   UNL     1       7.561  -3.354  25.569  0.00  0.00    +0.211 A 
ATOM      7  C   UNL     1       7.017  -3.069  24.365  0.00  0.00    +0.181 A 
ATOM      8  O   UNL     1       5.996  -3.812  23.783  0.00  0.00    -0.451 OA
ATOM      9  O   UNL     1       7.364  -4.748  27.485  0.00  0.00    -0.283 OA
ATOM     10  C   UNL     1       5.513  -4.924  24.425  0.00  0.00    +0.147 A 
ATOM     11  C   UNL     1       4.555  -5.675  23.732  0.00  0.00    +0.092 A 
ENDROOT
BRANCH   7  12
ATOM     12  C   UNL     1       7.438  -1.908  23.515  0.00  0.00    +0.025 A 
ATOM     13  C   UNL     1       6.729  -0.690  23.572  0.00  0.00    +0.015 A 
ATOM     14  C   UNL     1       7.148   0.437  22.850  0.00  0.00    +0.050 A 
ATOM     15  C   UNL     1       8.278   0.350  22.054  0.00  0.00    +0.158 A 
ATOM     16  C   UNL     1       8.983  -0.841  21.962  0.00  0.00    +0.159 A 
ATOM     17  C   UNL     1       8.585  -1.954  22.697  0.00  0.00    +0.060 A 
BRANCH  15  18
ATOM     18  O   UNL     1       8.702   1.450  21.365  0.00  0.00    -0.503 OA
ATOM     19  H   UNL     1       9.288   1.920  21.993  0.00  0.00    +0.292 HD
ENDBRANCH  15  18
BRANCH  16  20
ATOM     20  O   UNL     1      10.078  -0.872  21.142  0.00  0.00    -0.503 OA
ATOM     21  H   UNL     1      10.562  -1.699  21.316  0.00  0.00    +0.292 HD
ENDBRANCH  16  20
ENDBRANCH   7  12
BRANCH   1  23
ATOM     22  C   UNL     1       2.170  -8.304  24.643  0.00  0.00    +0.277 C 
ATOM     23  O   UNL     1       3.072  -7.643  23.765  0.00  0.00    -0.495 OA
ENDBRANCH   1  23
BRANCH   3  24
ATOM     24  O   UNL     1       5.752  -6.731  27.586  0.00  0.00    -0.494 OA
ATOM     25  C   UNL     1       4.789  -6.859  28.621  0.00  0.00    +0.277 C 
ENDBRANCH   3  24
BRANCH   6  26
ATOM     26  O   UNL     1       8.657  -2.643  26.047  0.00  0.00    -0.488 OA
ATOM     27  C   UNL     1       8.389  -1.451  26.779  0.00  0.00    +0.277 C 
ENDBRANCH   6  26
TORSDOF 6
ENDMDL
MODEL 3
REMARK VINA RESULT:      -6.6      1.710      7.038
REMARK  Name = 
REMARK  9 active torsions:
REMARK  status: ('A' for Active; 'I' for Inactive)
REMARK    1  A    between atoms: C_1  and  O_2
REMARK    2  A    between atoms: O_2  and  C_3
REMARK    3  A    between atoms: C_7  and  O_9
REMARK    4  A    between atoms: O_9  and  C_10
REMARK    5  A    between atoms: C_13  and  O_24
REMARK    6  A    between atoms: C_14  and  C_16
REMARK    7  A    between atoms: C_18  and  O_23
REMARK    8  A    between atoms: C_19  and  O_22
REMARK    9  A    between atoms: O_24  and  C_25
REMARK                            x       y       z     vdW  Elec       q    Type
REMARK                         _______ _______ _______ _____ _____    ______ ____
ROOT
ATOM      1  C   UNL     1       5.463  -4.605  22.830  0.00  0.00    +0.127 A 
ATOM      2  C   UNL     1       6.606  -5.293  23.253  0.00  0.00    +0.092 A 
ATOM      3  C   UNL     1       7.794  -4.612  23.543  0.00  0.00    +0.138 A 
ATOM      4  C   UNL     1       7.830  -3.213  23.399  0.00  0.00    +0.109 A 
ATOM      5  C   UNL     1       9.057  -2.423  23.634  0.00  0.00    +0.238 A 
ATOM      6  C   UNL     1       8.991  -0.944  23.392  0.00  0.00    +0.211 A 
ATOM      7  C   UNL     1       7.791  -0.409  23.075  0.00  0.00    +0.181 A 
ATOM      8  O   UNL     1       6.634  -1.159  22.896  0.00  0.00    -0.451 OA
ATOM      9  O   UNL     1      10.094  -2.956  24.014  0.00  0.00    -0.283 OA
ATOM     10  C   UNL     1       6.685  -2.525  23.008  0.00  0.00    +0.147 A 
ATOM     11  C   UNL     1       5.502  -3.217  22.717  0.00  0.00    +0.092 A 
ENDROOT
BRANCH   7  12
ATOM     12  C   UNL     1       7.557   1.060  22.890  0.00  0.00    +0.025 A 
ATOM     13  C   UNL     1       7.790   1.667  21.638  0.00  0.00    +0.015 A 
ATOM     14  C   UNL     1       7.502   3.021  21.415  0.00  0.00    +0.050 A 
ATOM     15  C   UNL     1       6.987   3.785  22.450  0.00  0.00    +0.158 A 
ATOM     16  C   UNL     1       6.767   3.220  23.697  0.00  0.00    +0.159 A 
ATOM     17  C   UNL     1       7.027   1.870  23.916  0.00  0.00    +0.060 A 
BRANCH  15  18
ATOM     18  O   UNL     1       6.686   5.098  22.231  0.00  0.00    -0.503 OA
ATOM     19  H   UNL     1       7.160   5.322  21.404  0.00  0.00    +0.292 HD
ENDBRANCH  15  18
BRANCH  16  20
ATOM     20  O   UNL     1       6.278   4.030  24.686  0.00  0.00    -0.503 OA
ATOM     21  H   UNL     1       5.398   4.344  24.411  0.00  0.00    +0.292 HD
ENDBRANCH  16  20
ENDBRANCH   7  12
BRANCH   1  23
ATOM     22  C   UNL     1       3.210  -5.208  23.324  0.00  0.00    +0.277 C 
ATOM     23  O   UNL     1       4.393  -5.413  22.562  0.00  0.00    -0.495 OA
ENDBRANCH   1  23
BRANCH   3  24
ATOM     24  O   UNL     1       8.933  -5.235  23.968  0.00  0.00    -0.494 OA
ATOM     25  C   UNL     1       9.025  -5.689  25.309  0.00  0.00    +0.277 C 
ENDBRANCH   3  24
BRANCH   6  26
ATOM     26  O   UNL     1      10.136  -0.155  23.446  0.00  0.00    -0.488 OA
ATOM     27  C   UNL     1      10.517   0.352  24.721  0.00  0.00    +0.277 C 
ENDBRANCH   6  26
TORSDOF 6
ENDMDL
MODEL 4
REMARK VINA RESULT:      -6.6      1.983      2.870
REMARK  Name = 
REMARK  9 active torsions:
REMARK  status: ('A' for Active; 'I' for Inactive)
REMARK    1  A    between atoms: C_1  and  O_2
REMARK    2  A    between atoms: O_2  and  C_3
REMARK    3  A    between atoms: C_7  and  O_9
REMARK    4  A    between atoms: O_9  and  C_10
REMARK    5  A    between atoms: C_13  and  O_24
REMARK    6  A    between atoms: C_14  and  C_16
REMARK    7  A    between atoms: C_18  and  O_23
REMARK    8  A    between atoms: C_19  and  O_22
REMARK    9  A    between atoms: O_24  and  C_25
REMARK                            x       y       z     vdW  Elec       q    Type
REMARK                         _______ _______ _______ _____ _____    ______ ____
ROOT
ATOM      1  C   UNL     1       7.155   3.216  22.444  0.00  0.00    +0.127 A 
ATOM      2  C   UNL     1       8.471   3.377  22.891  0.00  0.00    +0.092 A 
ATOM      3  C   UNL     1       9.229   2.281  23.319  0.00  0.00    +0.138 A 
ATOM      4  C   UNL     1       8.646   1.000  23.299  0.00  0.00    +0.109 A 
ATOM      5  C   UNL     1       9.357  -0.202  23.782  0.00  0.00    +0.238 A 
ATOM      6  C   UNL     1       8.614  -1.505  23.766  0.00  0.00    +0.211 A 
ATOM      7  C   UNL     1       7.379  -1.521  23.218  0.00  0.00    +0.181 A 
ATOM      8  O   UNL     1       6.735  -0.389  22.730  0.00  0.00    -0.451 OA
ATOM      9  O   UNL     1      10.515  -0.139  24.181  0.00  0.00    -0.283 OA
ATOM     10  C   UNL     1       7.348   0.835  22.825  0.00  0.00    +0.147 A 
ATOM     11  C   UNL     1       6.598   1.940  22.402  0.00  0.00    +0.092 A 
ENDROOT
BRANCH   7  12
ATOM     12  C   UNL     1       6.556  -2.763  23.056  0.00  0.00    +0.025 A 
ATOM     13  C   UNL     1       5.446  -2.997  23.895  0.00  0.00    +0.015 A 
ATOM     14  C   UNL     1       4.610  -4.109  23.713  0.00  0.00    +0.050 A 
ATOM     15  C   UNL     1       4.886  -5.004  22.693  0.00  0.00    +0.158 A 
ATOM     16  C   UNL     1       5.982  -4.811  21.865  0.00  0.00    +0.159 A 
ATOM     17  C   UNL     1       6.799  -3.695  22.026  0.00  0.00    +0.060 A 
BRANCH  15  18
ATOM     18  O   UNL     1       4.064  -6.076  22.499  0.00  0.00    -0.503 OA
ATOM     19  H   UNL     1       4.661  -6.852  22.537  0.00  0.00    +0.292 HD
ENDBRANCH  15  18
BRANCH  16  20
ATOM     20  O   UNL     1       6.216  -5.741  20.889  0.00  0.00    -0.503 OA
ATOM     21  H   UNL     1       6.035  -6.622  21.263  0.00  0.00    +0.292 HD
ENDBRANCH  16  20
ENDBRANCH   7  12
BRANCH   1  23
ATOM     22  C   UNL     1       7.285   5.587  22.228  0.00  0.00    +0.277 C 
ATOM     23  O   UNL     1       6.541   4.384  22.085  0.00  0.00    -0.495 OA
ENDBRANCH   1  23
BRANCH   3  24
ATOM     24  O   UNL     1      10.519   2.383  23.756  0.00  0.00    -0.494 OA
ATOM     25  C   UNL     1      11.286   3.527  23.416  0.00  0.00    +0.277 C 
ENDBRANCH   3  24
BRANCH   6  26
ATOM     26  O   UNL     1       9.158  -2.649  24.341  0.00  0.00    -0.488 OA
ATOM     27  C   UNL     1       8.820  -2.919  25.698  0.00  0.00    +0.277 C 
ENDBRANCH   6  26
TORSDOF 6
ENDMDL
MODEL 5
REMARK VINA RESULT:      -6.5      2.154      7.600
REMARK  Name = 
REMARK  9 active torsions:
REMARK  status: ('A' for Active; 'I' for Inactive)
REMARK    1  A    between atoms: C_1  and  O_2
REMARK    2  A    between atoms: O_2  and  C_3
REMARK    3  A    between atoms: C_7  and  O_9
REMARK    4  A    between atoms: O_9  and  C_10
REMARK    5  A    between atoms: C_13  and  O_24
REMARK    6  A    between atoms: C_14  and  C_16
REMARK    7  A    between atoms: C_18  and  O_23
REMARK    8  A    between atoms: C_19  and  O_22
REMARK    9  A    between atoms: O_24  and  C_25
REMARK                            x       y       z     vdW  Elec       q    Type
REMARK                         _______ _______ _______ _____ _____    ______ ____
ROOT
ATOM      1  C   UNL     1       6.955  -5.252  22.741  0.00  0.00    +0.127 A 
ATOM      2  C   UNL     1       6.290  -5.587  23.926  0.00  0.00    +0.092 A 
ATOM      3  C   UNL     1       6.252  -4.702  25.009  0.00  0.00    +0.138 A 
ATOM      4  C   UNL     1       6.901  -3.458  24.897  0.00  0.00    +0.109 A 
ATOM      5  C   UNL     1       6.953  -2.488  26.010  0.00  0.00    +0.238 A 
ATOM      6  C   UNL     1       7.723  -1.219  25.793  0.00  0.00    +0.211 A 
ATOM      7  C   UNL     1       8.234  -0.993  24.563  0.00  0.00    +0.181 A 
ATOM      8  O   UNL     1       8.144  -1.897  23.510  0.00  0.00    -0.451 OA
ATOM      9  O   UNL     1       6.387  -2.710  27.075  0.00  0.00    -0.283 OA
ATOM     10  C   UNL     1       7.536  -3.112  23.708  0.00  0.00    +0.147 A 
ATOM     11  C   UNL     1       7.570  -4.007  22.630  0.00  0.00    +0.092 A 
ENDROOT
BRANCH   7  12
ATOM     12  C   UNL     1       8.951   0.266  24.177  0.00  0.00    +0.025 A 
ATOM     13  C   UNL     1      10.302   0.456  24.535  0.00  0.00    +0.015 A 
ATOM     14  C   UNL     1      11.020   1.586  24.117  0.00  0.00    +0.050 A 
ATOM     15  C   UNL     1      10.385   2.545  23.345  0.00  0.00    +0.158 A 
ATOM     16  C   UNL     1       9.052   2.395  22.994  0.00  0.00    +0.159 A 
ATOM     17  C   UNL     1       8.343   1.262  23.385  0.00  0.00    +0.060 A 
BRANCH  15  18
ATOM     18  O   UNL     1      11.085   3.636  22.919  0.00  0.00    -0.503 OA
ATOM     19  H   UNL     1      10.439   4.371  22.958  0.00  0.00    +0.292 HD
ENDBRANCH  15  18
BRANCH  16  20
ATOM     20  O   UNL     1       8.473   3.386  22.248  0.00  0.00    -0.503 OA
ATOM     21  H   UNL     1       7.746   2.991  21.735  0.00  0.00    +0.292 HD
ENDBRANCH  16  20
ENDBRANCH   7  12
BRANCH   1  23
ATOM     22  C   UNL     1       6.128  -5.996  20.633  0.00  0.00    +0.277 C 
ATOM     23  O   UNL     1       6.924  -6.230  21.787  0.00  0.00    -0.495 OA
ENDBRANCH   1  23
BRANCH   3  24
ATOM     24  O   UNL     1       5.609  -4.977  26.182  0.00  0.00    -0.494 OA
ATOM     25  C   UNL     1       5.218  -6.310  26.472  0.00  0.00    +0.277 C 
ENDBRANCH   3  24
BRANCH   6  26
ATOM     26  O   UNL     1       7.945  -0.326  26.836  0.00  0.00    -0.488 OA
ATOM     27  C   UNL     1       6.936   0.648  27.084  0.00  0.00    +0.277 C 
ENDBRANCH   6  26
TORSDOF 6
ENDMDL
MODEL 6
REMARK VINA RESULT:      -6.2      2.008      7.173
REMARK  Name = 
REMARK  9 active torsions:
REMARK  status: ('A' for Active; 'I' for Inactive)
REMARK    1  A    between atoms: C_1  and  O_2
REMARK    2  A    between atoms: O_2  and  C_3
REMARK    3  A    between atoms: C_7  and  O_9
REMARK    4  A    between atoms: O_9  and  C_10
REMARK    5  A    between atoms: C_13  and  O_24
REMARK    6  A    between atoms: C_14  and  C_16
REMARK    7  A    between atoms: C_18  and  O_23
REMARK    8  A    between atoms: C_19  and  O_22
REMARK    9  A    between atoms: O_24  and  C_25
REMARK                            x       y       z     vdW  Elec       q    Type
REMARK                         _______ _______ _______ _____ _____    ______ ____
ROOT
ATOM      1  C   UNL     1       3.854  -5.113  23.403  0.00  0.00    +0.127 A 
ATOM      2  C   UNL     1       3.942  -5.578  24.720  0.00  0.00    +0.092 A 
ATOM      3  C   UNL     1       4.858  -5.026  25.622  0.00  0.00    +0.138 A 
ATOM      4  C   UNL     1       5.703  -3.988  25.187  0.00  0.00    +0.109 A 
ATOM      5  C   UNL     1       6.734  -3.386  26.059  0.00  0.00    +0.238 A 
ATOM      6  C   UNL     1       7.616  -2.327  25.467  0.00  0.00    +0.211 A 
ATOM      7  C   UNL     1       7.350  -1.915  24.208  0.00  0.00    +0.181 A 
ATOM      8  O   UNL     1       6.351  -2.463  23.410  0.00  0.00    -0.451 OA
ATOM      9  O   UNL     1       6.864  -3.737  27.227  0.00  0.00    -0.283 OA
ATOM     10  C   UNL     1       5.596  -3.504  23.886  0.00  0.00    +0.147 A 
ATOM     11  C   UNL     1       4.677  -4.067  22.991  0.00  0.00    +0.092 A 
ENDROOT
BRANCH   7  12
ATOM     12  C   UNL     1       8.090  -0.808  23.520  0.00  0.00    +0.025 A 
ATOM     13  C   UNL     1       9.241  -1.089  22.753  0.00  0.00    +0.015 A 
ATOM     14  C   UNL     1       9.905  -0.086  22.033  0.00  0.00    +0.050 A 
ATOM     15  C   UNL     1       9.429   1.214  22.083  0.00  0.00    +0.158 A 
ATOM     16  C   UNL     1       8.312   1.523  22.845  0.00  0.00    +0.159 A 
ATOM     17  C   UNL     1       7.634   0.526  23.541  0.00  0.00    +0.060 A 
BRANCH  15  18
ATOM     18  O   UNL     1      10.060   2.189  21.368  0.00  0.00    -0.503 OA
ATOM     19  H   UNL     1      10.258   1.770  20.505  0.00  0.00    +0.292 HD
ENDBRANCH  15  18
BRANCH  16  20
ATOM     20  O   UNL     1       7.901   2.829  22.873  0.00  0.00    -0.503 OA
ATOM     21  H   UNL     1       7.602   3.070  21.979  0.00  0.00    +0.292 HD
ENDBRANCH  16  20
ENDBRANCH   7  12
BRANCH   1  23
ATOM     22  C   UNL     1       1.566  -5.665  23.025  0.00  0.00    +0.277 C 
ATOM     23  O   UNL     1       2.931  -5.770  22.639  0.00  0.00    -0.495 OA
ENDBRANCH   1  23
BRANCH   3  24
ATOM     24  O   UNL     1       4.977  -5.437  26.920  0.00  0.00    -0.494 OA
ATOM     25  C   UNL     1       4.996  -6.824  27.216  0.00  0.00    +0.277 C 
ENDBRANCH   3  24
BRANCH   6  26
ATOM     26  O   UNL     1       8.701  -1.819  26.173  0.00  0.00    -0.488 OA
ATOM     27  C   UNL     1       8.464  -0.687  27.005  0.00  0.00    +0.277 C 
ENDBRANCH   6  26
TORSDOF 6
ENDMDL
MODEL 7
REMARK VINA RESULT:      -6.2      1.760      2.154
REMARK  Name = 
REMARK  9 active torsions:
REMARK  status: ('A' for Active; 'I' for Inactive)
REMARK    1  A    between atoms: C_1  and  O_2
REMARK    2  A    between atoms: O_2  and  C_3
REMARK    3  A    between atoms: C_7  and  O_9
REMARK    4  A    between atoms: O_9  and  C_10
REMARK    5  A    between atoms: C_13  and  O_24
REMARK    6  A    between atoms: C_14  and  C_16
REMARK    7  A    between atoms: C_18  and  O_23
REMARK    8  A    between atoms: C_19  and  O_22
REMARK    9  A    between atoms: O_24  and  C_25
REMARK                            x       y       z     vdW  Elec       q    Type
REMARK                         _______ _______ _______ _____ _____    ______ ____
ROOT
ATOM      1  C   UNL     1       6.089   1.409  24.141  0.00  0.00    +0.127 A 
ATOM      2  C   UNL     1       7.098   1.409  23.171  0.00  0.00    +0.092 A 
ATOM      3  C   UNL     1       7.825   0.249  22.883  0.00  0.00    +0.138 A 
ATOM      4  C   UNL     1       7.532  -0.932  23.590  0.00  0.00    +0.109 A 
ATOM      5  C   UNL     1       8.286  -2.187  23.386  0.00  0.00    +0.238 A 
ATOM      6  C   UNL     1       7.922  -3.366  24.239  0.00  0.00    +0.211 A 
ATOM      7  C   UNL     1       6.862  -3.242  25.068  0.00  0.00    +0.181 A 
ATOM      8  O   UNL     1       6.134  -2.067  25.222  0.00  0.00    -0.451 OA
ATOM      9  O   UNL     1       9.178  -2.264  22.549  0.00  0.00    -0.283 OA
ATOM     10  C   UNL     1       6.508  -0.941  24.533  0.00  0.00    +0.147 A 
ATOM     11  C   UNL     1       5.788   0.227  24.815  0.00  0.00    +0.092 A 
ENDROOT
BRANCH   7  12
ATOM     12  C   UNL     1       6.331  -4.360  25.913  0.00  0.00    +0.025 A 
ATOM     13  C   UNL     1       5.571  -5.396  25.330  0.00  0.00    +0.015 A 
ATOM     14  C   UNL     1       5.131  -6.496  26.081  0.00  0.00    +0.050 A 
ATOM     15  C   UNL     1       5.440  -6.562  27.430  0.00  0.00    +0.158 A 
ATOM     16  C   UNL     1       6.168  -5.549  28.035  0.00  0.00    +0.159 A 
ATOM     17  C   UNL     1       6.629  -4.469  27.288  0.00  0.00    +0.060 A 
BRANCH  15  18
ATOM     18  O   UNL     1       5.031  -7.641  28.160  0.00  0.00    -0.503 OA
ATOM     19  H   UNL     1       5.770  -7.809  28.781  0.00  0.00    +0.292 HD
ENDBRANCH  15  18
BRANCH  16  20
ATOM     20  O   UNL     1       6.423  -5.660  29.375  0.00  0.00    -0.503 OA
ATOM     21  H   UNL     1       7.273  -6.121  29.483  0.00  0.00    +0.292 HD
ENDBRANCH  16  20
ENDBRANCH   7  12
BRANCH   1  23
ATOM     22  C   UNL     1       4.466   2.994  23.408  0.00  0.00    +0.277 C 
ATOM     23  O   UNL     1       5.489   2.624  24.323  0.00  0.00    -0.495 OA
ENDBRANCH   1  23
BRANCH   3  24
ATOM     24  O   UNL     1       8.812   0.194  21.941  0.00  0.00    -0.494 OA
ATOM     25  C   UNL     1       9.579   1.354  21.660  0.00  0.00    +0.277 C 
ENDBRANCH   3  24
BRANCH   6  26
ATOM     26  O   UNL     1       8.680  -4.532  24.213  0.00  0.00    -0.488 OA
ATOM     27  C   UNL     1       9.722  -4.652  25.176  0.00  0.00    +0.277 C 
ENDBRANCH   6  26
TORSDOF 6
ENDMDL
MODEL 8
REMARK VINA RESULT:      -6.1      2.689      7.828
REMARK  Name = 
REMARK  9 active torsions:
REMARK  status: ('A' for Active; 'I' for Inactive)
REMARK    1  A    between atoms: C_1  and  O_2
REMARK    2  A    between atoms: O_2  and  C_3
REMARK    3  A    between atoms: C_7  and  O_9
REMARK    4  A    between atoms: O_9  and  C_10
REMARK    5  A    between atoms: C_13  and  O_24
REMARK    6  A    between atoms: C_14  and  C_16
REMARK    7  A    between atoms: C_18  and  O_23
REMARK    8  A    between atoms: C_19  and  O_22
REMARK    9  A    between atoms: O_24  and  C_25
REMARK                            x       y       z     vdW  Elec       q    Type
REMARK                         _______ _______ _______ _____ _____    ______ ____
ROOT
ATOM      1  C   UNL     1       5.714  -4.028  22.295  0.00  0.00    +0.127 A 
ATOM      2  C   UNL     1       4.746  -4.161  23.297  0.00  0.00    +0.092 A 
ATOM      3  C   UNL     1       4.635  -3.217  24.324  0.00  0.00    +0.138 A 
ATOM      4  C   UNL     1       5.519  -2.122  24.343  0.00  0.00    +0.109 A 
ATOM      5  C   UNL     1       5.504  -1.109  25.419  0.00  0.00    +0.238 A 
ATOM      6  C   UNL     1       6.532  -0.018  25.363  0.00  0.00    +0.211 A 
ATOM      7  C   UNL     1       7.342   0.033  24.283  0.00  0.00    +0.181 A 
ATOM      8  O   UNL     1       7.319  -0.905  23.255  0.00  0.00    -0.451 OA
ATOM      9  O   UNL     1       4.680  -1.156  26.326  0.00  0.00    -0.283 OA
ATOM     10  C   UNL     1       6.461  -1.973  23.329  0.00  0.00    +0.147 A 
ATOM     11  C   UNL     1       6.565  -2.925  22.307  0.00  0.00    +0.092 A 
ENDROOT
BRANCH   7  12
ATOM     12  C   UNL     1       8.355   1.113  24.050  0.00  0.00    +0.025 A 
ATOM     13  C   UNL     1       9.728   0.855  24.243  0.00  0.00    +0.015 A 
ATOM     14  C   UNL     1      10.703   1.821  23.955  0.00  0.00    +0.050 A 
ATOM     15  C   UNL     1      10.309   3.062  23.481  0.00  0.00    +0.158 A 
ATOM     16  C   UNL     1       8.965   3.350  23.301  0.00  0.00    +0.159 A 
ATOM     17  C   UNL     1       7.995   2.386  23.561  0.00  0.00    +0.060 A 
BRANCH  15  18
ATOM     18  O   UNL     1      11.256   3.998  23.180  0.00  0.00    -0.503 OA
ATOM     19  H   UNL     1      12.094   3.492  23.135  0.00  0.00    +0.292 HD
ENDBRANCH  15  18
BRANCH  16  20
ATOM     20  O   UNL     1       8.636   4.601  22.851  0.00  0.00    -0.503 OA
ATOM     21  H   UNL     1       8.173   5.067  23.569  0.00  0.00    +0.292 HD
ENDBRANCH  16  20
ENDBRANCH   7  12
BRANCH   1  23
ATOM     22  C   UNL     1       6.750  -6.010  21.469  0.00  0.00    +0.277 C 
ATOM     23  O   UNL     1       5.711  -5.043  21.379  0.00  0.00    -0.495 OA
ENDBRANCH   1  23
BRANCH   3  24
ATOM     24  O   UNL     1       3.703  -3.295  25.320  0.00  0.00    -0.494 OA
ATOM     25  C   UNL     1       2.405  -3.788  25.028  0.00  0.00    +0.277 C 
ENDBRANCH   3  24
BRANCH   6  26
ATOM     26  O   UNL     1       6.680   0.884  26.412  0.00  0.00    -0.488 OA
ATOM     27  C   UNL     1       7.337   0.414  27.586  0.00  0.00    +0.277 C 
ENDBRANCH   6  26
TORSDOF 6
ENDMDL
MODEL 9
REMARK VINA RESULT:      -6.1      2.505      7.548
REMARK  Name = 
REMARK  9 active torsions:
REMARK  status: ('A' for Active; 'I' for Inactive)
REMARK    1  A    between atoms: C_1  and  O_2
REMARK    2  A    between atoms: O_2  and  C_3
REMARK    3  A    between atoms: C_7  and  O_9
REMARK    4  A    between atoms: O_9  and  C_10
REMARK    5  A    between atoms: C_13  and  O_24
REMARK    6  A    between atoms: C_14  and  C_16
REMARK    7  A    between atoms: C_18  and  O_23
REMARK    8  A    between atoms: C_19  and  O_22
REMARK    9  A    between atoms: O_24  and  C_25
REMARK                            x       y       z     vdW  Elec       q    Type
REMARK                         _______ _______ _______ _____ _____    ______ ____
ROOT
ATOM      1  C   UNL     1       7.241  -4.598  22.538  0.00  0.00    +0.127 A 
ATOM      2  C   UNL     1       7.035  -5.020  23.856  0.00  0.00    +0.092 A 
ATOM      3  C   UNL     1       6.958  -4.099  24.906  0.00  0.00    +0.138 A 
ATOM      4  C   UNL     1       7.097  -2.727  24.622  0.00  0.00    +0.109 A 
ATOM      5  C   UNL     1       7.081  -1.693  25.678  0.00  0.00    +0.238 A 
ATOM      6  C   UNL     1       7.296  -0.268  25.261  0.00  0.00    +0.211 A 
ATOM      7  C   UNL     1       7.388  -0.004  23.939  0.00  0.00    +0.181 A 
ATOM      8  O   UNL     1       7.362  -0.983  22.952  0.00  0.00    -0.451 OA
ATOM      9  O   UNL     1       6.897  -1.987  26.854  0.00  0.00    -0.283 OA
ATOM     10  C   UNL     1       7.271  -2.305  23.308  0.00  0.00    +0.147 A 
ATOM     11  C   UNL     1       7.349  -3.236  22.264  0.00  0.00    +0.092 A 
ENDROOT
BRANCH   7  12
ATOM     12  C   UNL     1       7.517   1.378  23.373  0.00  0.00    +0.025 A 
ATOM     13  C   UNL     1       6.435   1.971  22.689  0.00  0.00    +0.015 A 
ATOM     14  C   UNL     1       6.499   3.292  22.220  0.00  0.00    +0.050 A 
ATOM     15  C   UNL     1       7.655   4.028  22.423  0.00  0.00    +0.158 A 
ATOM     16  C   UNL     1       8.741   3.464  23.074  0.00  0.00    +0.159 A 
ATOM     17  C   UNL     1       8.673   2.163  23.564  0.00  0.00    +0.060 A 
BRANCH  15  18
ATOM     18  O   UNL     1       7.714   5.320  21.987  0.00  0.00    -0.503 OA
ATOM     19  H   UNL     1       7.701   5.855  22.807  0.00  0.00    +0.292 HD
ENDBRANCH  15  18
BRANCH  16  20
ATOM     20  O   UNL     1       9.863   4.233  23.225  0.00  0.00    -0.503 OA
ATOM     21  H   UNL     1      10.585   3.657  23.532  0.00  0.00    +0.292 HD
ENDBRANCH  16  20
ENDBRANCH   7  12
BRANCH   1  23
ATOM     22  C   UNL     1       6.174  -5.865  20.823  0.00  0.00    +0.277 C 
ATOM     23  O   UNL     1       7.318  -5.618  21.631  0.00  0.00    -0.495 OA
ENDBRANCH   1  23
BRANCH   3  24
ATOM     24  O   UNL     1       6.749  -4.457  26.208  0.00  0.00    -0.494 OA
ATOM     25  C   UNL     1       7.698  -5.280  26.869  0.00  0.00    +0.277 C 
ENDBRANCH   3  24
BRANCH   6  26
ATOM     26  O   UNL     1       7.443   0.742  26.206  0.00  0.00    -0.488 OA
ATOM     27  C   UNL     1       6.256   1.386  26.661  0.00  0.00    +0.277 C 
ENDBRANCH   6  26
TORSDOF 6
ENDMDL
