MODEL 1
REMARK VINA RESULT:      -6.9      0.000      0.000
REMARK  Name = 
REMARK  23 active torsions:
REMARK  status: ('A' for Active; 'I' for Inactive)
REMARK    1  A    between atoms: C_1  and  C_2
REMARK    2  A    between atoms: C_3  and  O_62
REMARK    3  A    between atoms: C_5  and  O_47
REMARK    4  A    between atoms: C_7  and  O_46
REMARK    5  A    between atoms: C_8  and  O_11
REMARK    6  A    between atoms: O_11  and  C_12
REMARK    7  A    between atoms: C_12  and  C_13
REMARK    8  A    between atoms: C_14  and  O_45
REMARK    9  A    between atoms: C_16  and  O_44
REMARK   10  A    between atoms: C_17  and  O_43
REMARK   11  A    between atoms: C_18  and  O_21
REMARK   12  A    between atoms: O_21  and  C_22
REMARK   13  A    between atoms: C_23  and  C_35
REMARK   14  A    between atoms: C_27  and  O_34
REMARK   15  A    between atoms: C_29  and  O_33
REMARK   16  A    between atoms: C_37  and  O_42
REMARK   17  A    between atoms: C_38  and  O_41
REMARK   18  A    between atoms: O_47  and  C_48
REMARK   19  A    between atoms: C_50  and  O_61
REMARK   20  A    between atoms: C_51  and  O_60
REMARK   21  A    between atoms: C_53  and  O_59
REMARK   22  A    between atoms: C_55  and  C_57
REMARK   23  A    between atoms: C_57  and  O_58
REMARK                            x       y       z     vdW  Elec       q    Type
REMARK                         _______ _______ _______ _____ _____    ______ ____
ROOT
ATOM      1  C   UNL     1       7.984  -3.191  23.772  0.00  0.00    +0.179 C 
ATOM      2  O   UNL     1       7.131  -2.946  24.917  0.00  0.00    -0.331 OA
ATOM      3  C   UNL     1       7.595  -3.334  26.226  0.00  0.00    +0.340 C 
ATOM      4  C   UNL     1       8.130  -4.782  26.270  0.00  0.00    +0.214 C 
ATOM      5  C   UNL     1       9.207  -4.914  25.193  0.00  0.00    +0.180 C 
ATOM      6  C   UNL     1       8.617  -4.611  23.804  0.00  0.00    +0.177 C 
ENDROOT
BRANCH   4   7
ATOM      7  O   UNL     1       7.092  -5.755  26.020  0.00  0.00    -0.383 OA
ATOM      8  H   UNL     1       6.392  -5.611  26.685  0.00  0.00    +0.210 HD
ENDBRANCH   4   7
BRANCH   6   9
ATOM      9  O   UNL     1       7.631  -5.590  23.436  0.00  0.00    -0.386 OA
ATOM     10  H   UNL     1       7.309  -5.368  22.540  0.00  0.00    +0.210 HD
ENDBRANCH   6   9
BRANCH   5  11
ATOM     11  O   UNL     1       9.787  -6.219  25.232  0.00  0.00    -0.386 OA
ATOM     12  H   UNL     1      10.469  -6.231  24.531  0.00  0.00    +0.210 HD
ENDBRANCH   5  11
BRANCH   3  13
ATOM     13  O   UNL     1       6.497  -3.230  27.163  0.00  0.00    -0.453 OA
BRANCH  13  14
ATOM     14  C   UNL     1       5.622  -2.142  27.174  0.00  0.00    +0.214 A 
ATOM     15  C   UNL     1       6.062  -0.762  27.422  0.00  0.00    +0.238 A 
ATOM     16  O   UNL     1       7.227  -0.400  27.510  0.00  0.00    -0.283 OA
ATOM     17  C   UNL     1       5.006   0.262  27.504  0.00  0.00    +0.109 A 
ATOM     18  C   UNL     1       3.788   0.076  26.898  0.00  0.00    +0.147 A 
ATOM     19  C   UNL     1       2.920   1.153  26.653  0.00  0.00    +0.092 A 
ATOM     20  C   UNL     1       3.270   2.401  27.149  0.00  0.00    +0.124 A 
ATOM     21  C   UNL     1       4.363   2.518  27.996  0.00  0.00    +0.091 A 
ATOM     22  O   UNL     1       3.445  -1.172  26.540  0.00  0.00    -0.451 OA
ATOM     23  C   UNL     1       5.261   1.453  28.121  0.00  0.00    +0.135 A 
ATOM     24  C   UNL     1       4.339  -2.211  26.763  0.00  0.00    +0.181 A 
BRANCH  24  25
ATOM     25  C   UNL     1       3.771  -3.386  26.139  0.00  0.00    +0.025 A 
ATOM     26  C   UNL     1       3.624  -4.449  27.038  0.00  0.00    +0.015 A 
ATOM     27  C   UNL     1       3.641  -5.745  26.576  0.00  0.00    +0.050 A 
ATOM     28  C   UNL     1       3.576  -5.954  25.205  0.00  0.00    +0.158 A 
ATOM     29  C   UNL     1       3.629  -4.892  24.297  0.00  0.00    +0.159 A 
ATOM     30  C   UNL     1       3.813  -3.596  24.757  0.00  0.00    +0.060 A 
BRANCH  29  31
ATOM     31  O   UNL     1       3.500  -5.132  22.960  0.00  0.00    -0.503 OA
ATOM     32  H   UNL     1       4.376  -5.329  22.591  0.00  0.00    +0.292 HD
ENDBRANCH  29  31
BRANCH  28  33
ATOM     33  O   UNL     1       3.400  -7.231  24.770  0.00  0.00    -0.503 OA
ATOM     34  H   UNL     1       3.870  -7.272  23.920  0.00  0.00    +0.292 HD
ENDBRANCH  28  33
ENDBRANCH  24  25
BRANCH  23  35
ATOM     35  O   UNL     1       6.473   1.634  28.717  0.00  0.00    -0.506 OA
ATOM     36  H   UNL     1       6.735   0.768  29.120  0.00  0.00    +0.292 HD
ENDBRANCH  23  35
BRANCH  20  37
ATOM     37  O   UNL     1       2.630   3.556  26.817  0.00  0.00    -0.507 OA
ATOM     38  H   UNL     1       2.850   4.272  27.435  0.00  0.00    +0.292 HD
ENDBRANCH  20  37
ENDBRANCH  13  14
ENDBRANCH   3  13
BRANCH   1  39
ATOM     39  C   UNL     1       9.095  -2.133  23.473  0.00  0.00    +0.197 C 
BRANCH  39  40
ATOM     40  O   UNL     1       8.791  -1.110  22.527  0.00  0.00    -0.346 OA
BRANCH  40  44
ATOM     41  C   UNL     1      10.809   2.547  23.610  0.00  0.00    +0.041 C 
ATOM     42  C   UNL     1       9.878   1.755  24.528  0.00  0.00    +0.149 C 
ATOM     43  O   UNL     1       9.659   0.425  24.010  0.00  0.00    -0.343 OA
ATOM     44  C   UNL     1       8.784   0.281  22.868  0.00  0.00    +0.282 C 
ATOM     45  C   UNL     1       7.416   0.896  23.249  0.00  0.00    +0.202 C 
ATOM     46  C   UNL     1       7.642   2.383  23.616  0.00  0.00    +0.186 C 
ATOM     47  C   UNL     1       8.581   2.520  24.816  0.00  0.00    +0.174 C 
BRANCH  47  48
ATOM     48  O   UNL     1       7.971   2.053  26.024  0.00  0.00    -0.387 OA
ATOM     49  H   UNL     1       8.349   2.568  26.767  0.00  0.00    +0.210 HD
ENDBRANCH  47  48
BRANCH  45  50
ATOM     50  O   UNL     1       6.817   0.206  24.366  0.00  0.00    -0.384 OA
ATOM     51  H   UNL     1       6.255  -0.502  23.992  0.00  0.00    +0.210 HD
ENDBRANCH  45  50
BRANCH  46  52
ATOM     52  O   UNL     1       6.377   3.018  23.798  0.00  0.00    -0.340 OA
BRANCH  52  53
ATOM     53  C   UNL     1       5.585   3.282  22.623  0.00  0.00    +0.282 C 
ATOM     54  O   UNL     1       6.255   4.329  21.866  0.00  0.00    -0.341 OA
ATOM     55  C   UNL     1       6.397   5.498  22.684  0.00  0.00    +0.178 C 
ATOM     56  C   UNL     1       4.982   5.982  23.045  0.00  0.00    +0.177 C 
ATOM     57  C   UNL     1       4.100   4.975  23.759  0.00  0.00    +0.179 C 
ATOM     58  C   UNL     1       4.109   3.690  22.953  0.00  0.00    +0.201 C 
BRANCH  58  59
ATOM     59  O   UNL     1       3.355   2.699  23.662  0.00  0.00    -0.384 OA
ATOM     60  H   UNL     1       2.827   3.173  24.339  0.00  0.00    +0.210 HD
ENDBRANCH  58  59
BRANCH  57  61
ATOM     61  O   UNL     1       4.409   4.736  25.136  0.00  0.00    -0.386 OA
ATOM     62  H   UNL     1       5.072   4.020  25.211  0.00  0.00    +0.210 HD
ENDBRANCH  57  61
BRANCH  56  63
ATOM     63  O   UNL     1       4.273   6.494  21.918  0.00  0.00    -0.386 OA
ATOM     64  H   UNL     1       4.570   7.419  21.809  0.00  0.00    +0.210 HD
ENDBRANCH  56  63
BRANCH  55  65
ATOM     65  C   UNL     1       7.275   6.656  22.122  0.00  0.00    +0.190 C 
BRANCH  65  66
ATOM     66  O   UNL     1       6.879   7.108  20.827  0.00  0.00    -0.392 OA
ATOM     67  H   UNL     1       6.390   6.384  20.399  0.00  0.00    +0.210 HD
ENDBRANCH  65  66
ENDBRANCH  55  65
ENDBRANCH  52  53
ENDBRANCH  46  52
ENDBRANCH  40  44
ENDBRANCH  39  40
ENDBRANCH   1  39
TORSDOF 22
ENDMDL
MODEL 2
REMARK VINA RESULT:      -6.8      1.982      9.365
REMARK  Name = 
REMARK  23 active torsions:
REMARK  status: ('A' for Active; 'I' for Inactive)
REMARK    1  A    between atoms: C_1  and  C_2
REMARK    2  A    between atoms: C_3  and  O_62
REMARK    3  A    between atoms: C_5  and  O_47
REMARK    4  A    between atoms: C_7  and  O_46
REMARK    5  A    between atoms: C_8  and  O_11
REMARK    6  A    between atoms: O_11  and  C_12
REMARK    7  A    between atoms: C_12  and  C_13
REMARK    8  A    between atoms: C_14  and  O_45
REMARK    9  A    between atoms: C_16  and  O_44
REMARK   10  A    between atoms: C_17  and  O_43
REMARK   11  A    between atoms: C_18  and  O_21
REMARK   12  A    between atoms: O_21  and  C_22
REMARK   13  A    between atoms: C_23  and  C_35
REMARK   14  A    between atoms: C_27  and  O_34
REMARK   15  A    between atoms: C_29  and  O_33
REMARK   16  A    between atoms: C_37  and  O_42
REMARK   17  A    between atoms: C_38  and  O_41
REMARK   18  A    between atoms: O_47  and  C_48
REMARK   19  A    between atoms: C_50  and  O_61
REMARK   20  A    between atoms: C_51  and  O_60
REMARK   21  A    between atoms: C_53  and  O_59
REMARK   22  A    between atoms: C_55  and  C_57
REMARK   23  A    between atoms: C_57  and  O_58
REMARK                            x       y       z     vdW  Elec       q    Type
REMARK                         _______ _______ _______ _____ _____    ______ ____
ROOT
ATOM      1  C   UNL     1       4.789   0.990  26.331  0.00  0.00    +0.179 C 
ATOM      2  O   UNL     1       5.898   0.328  25.675  0.00  0.00    -0.331 OA
ATOM      3  C   UNL     1       7.151   0.207  26.378  0.00  0.00    +0.340 C 
ATOM      4  C   UNL     1       7.626   1.541  26.993  0.00  0.00    +0.214 C 
ATOM      5  C   UNL     1       6.498   2.077  27.875  0.00  0.00    +0.180 C 
ATOM      6  C   UNL     1       5.225   2.304  27.039  0.00  0.00    +0.177 C 
ENDROOT
BRANCH   4   7
ATOM      7  O   UNL     1       7.943   2.525  25.984  0.00  0.00    -0.383 OA
ATOM      8  H   UNL     1       8.638   2.146  25.414  0.00  0.00    +0.210 HD
ENDBRANCH   4   7
BRANCH   6   9
ATOM      9  O   UNL     1       5.427   3.338  26.061  0.00  0.00    -0.386 OA
ATOM     10  H   UNL     1       5.271   2.949  25.177  0.00  0.00    +0.210 HD
ENDBRANCH   6   9
BRANCH   5  11
ATOM     11  O   UNL     1       6.908   3.280  28.526  0.00  0.00    -0.386 OA
ATOM     12  H   UNL     1       7.871   3.192  28.670  0.00  0.00    +0.210 HD
ENDBRANCH   5  11
BRANCH   3  13
ATOM     13  O   UNL     1       8.166  -0.250  25.453  0.00  0.00    -0.453 OA
BRANCH  13  14
ATOM     14  C   UNL     1       7.926  -1.256  24.515  0.00  0.00    +0.214 A 
ATOM     15  C   UNL     1       7.587  -2.636  24.888  0.00  0.00    +0.238 A 
ATOM     16  O   UNL     1       7.351  -3.019  26.025  0.00  0.00    -0.283 OA
ATOM     17  C   UNL     1       7.465  -3.606  23.786  0.00  0.00    +0.109 A 
ATOM     18  C   UNL     1       7.171  -3.196  22.509  0.00  0.00    +0.147 A 
ATOM     19  C   UNL     1       6.698  -4.099  21.542  0.00  0.00    +0.092 A 
ATOM     20  C   UNL     1       6.650  -5.446  21.871  0.00  0.00    +0.124 A 
ATOM     21  C   UNL     1       7.210  -5.877  23.065  0.00  0.00    +0.091 A 
ATOM     22  O   UNL     1       7.345  -1.900  22.206  0.00  0.00    -0.451 OA
ATOM     23  C   UNL     1       7.563  -4.944  24.043  0.00  0.00    +0.135 A 
ATOM     24  C   UNL     1       7.779  -1.025  23.194  0.00  0.00    +0.181 A 
BRANCH  24  25
ATOM     25  C   UNL     1       7.719   0.303  22.624  0.00  0.00    +0.025 A 
ATOM     26  C   UNL     1       8.989   0.864  22.446  0.00  0.00    +0.015 A 
ATOM     27  C   UNL     1       9.141   2.232  22.456  0.00  0.00    +0.050 A 
ATOM     28  C   UNL     1       8.000   3.020  22.418  0.00  0.00    +0.158 A 
ATOM     29  C   UNL     1       6.719   2.464  22.504  0.00  0.00    +0.159 A 
ATOM     30  C   UNL     1       6.570   1.098  22.694  0.00  0.00    +0.060 A 
BRANCH  29  31
ATOM     31  O   UNL     1       5.620   3.265  22.401  0.00  0.00    -0.503 OA
ATOM     32  H   UNL     1       5.422   3.639  23.274  0.00  0.00    +0.292 HD
ENDBRANCH  29  31
BRANCH  28  33
ATOM     33  O   UNL     1       8.164   4.359  22.235  0.00  0.00    -0.503 OA
ATOM     34  H   UNL     1       9.101   4.524  22.432  0.00  0.00    +0.292 HD
ENDBRANCH  28  33
ENDBRANCH  24  25
BRANCH  23  35
ATOM     35  O   UNL     1       7.852  -5.345  25.314  0.00  0.00    -0.506 OA
ATOM     36  H   UNL     1       8.488  -6.100  25.247  0.00  0.00    +0.292 HD
ENDBRANCH  23  35
BRANCH  20  37
ATOM     37  O   UNL     1       6.032  -6.391  21.111  0.00  0.00    -0.507 OA
ATOM     38  H   UNL     1       5.644  -6.003  20.310  0.00  0.00    +0.292 HD
ENDBRANCH  20  37
ENDBRANCH  13  14
ENDBRANCH   3  13
BRANCH   1  39
ATOM     39  C   UNL     1       3.927   0.132  27.313  0.00  0.00    +0.197 C 
BRANCH  39  40
ATOM     40  O   UNL     1       3.100  -0.882  26.746  0.00  0.00    -0.346 OA
BRANCH  40  44
ATOM     41  C   UNL     1       3.578  -3.818  29.872  0.00  0.00    +0.041 C 
ATOM     42  C   UNL     1       4.512  -3.654  28.673  0.00  0.00    +0.149 C 
ATOM     43  O   UNL     1       4.292  -2.383  28.023  0.00  0.00    -0.343 OA
ATOM     44  C   UNL     1       3.103  -2.235  27.216  0.00  0.00    +0.282 C 
ATOM     45  C   UNL     1       3.130  -3.344  26.138  0.00  0.00    +0.202 C 
ATOM     46  C   UNL     1       3.168  -4.715  26.858  0.00  0.00    +0.186 C 
ATOM     47  C   UNL     1       4.425  -4.851  27.719  0.00  0.00    +0.174 C 
BRANCH  47  48
ATOM     48  O   UNL     1       5.609  -4.954  26.920  0.00  0.00    -0.387 OA
ATOM     49  H   UNL     1       5.630  -5.855  26.534  0.00  0.00    +0.210 HD
ENDBRANCH  47  48
BRANCH  45  50
ATOM     50  O   UNL     1       4.279  -3.217  25.275  0.00  0.00    -0.384 OA
ATOM     51  H   UNL     1       4.633  -4.119  25.141  0.00  0.00    +0.210 HD
ENDBRANCH  45  50
BRANCH  46  52
ATOM     52  O   UNL     1       3.014  -5.755  25.893  0.00  0.00    -0.340 OA
BRANCH  52  53
ATOM     53  C   UNL     1       1.900  -5.665  24.983  0.00  0.00    +0.282 C 
ATOM     54  O   UNL     1       0.920  -6.664  25.386  0.00  0.00    -0.341 OA
ATOM     55  C   UNL     1       1.521  -7.965  25.362  0.00  0.00    +0.178 C 
ATOM     56  C   UNL     1       1.944  -8.249  23.910  0.00  0.00    +0.177 C 
ATOM     57  C   UNL     1       2.897  -7.245  23.289  0.00  0.00    +0.179 C 
ATOM     58  C   UNL     1       2.310  -5.860  23.484  0.00  0.00    +0.201 C 
BRANCH  58  59
ATOM     59  O   UNL     1       3.242  -4.892  22.985  0.00  0.00    -0.384 OA
ATOM     60  H   UNL     1       4.017  -4.907  23.587  0.00  0.00    +0.210 HD
ENDBRANCH  58  59
BRANCH  57  61
ATOM     61  O   UNL     1       4.255  -7.310  23.735  0.00  0.00    -0.386 OA
ATOM     62  H   UNL     1       4.301  -7.752  24.606  0.00  0.00    +0.210 HD
ENDBRANCH  57  61
BRANCH  56  63
ATOM     63  O   UNL     1       0.829  -8.423  23.038  0.00  0.00    -0.386 OA
ATOM     64  H   UNL     1       0.611  -7.534  22.696  0.00  0.00    +0.210 HD
ENDBRANCH  56  63
BRANCH  55  65
ATOM     65  C   UNL     1       0.695  -9.141  25.961  0.00  0.00    +0.190 C 
BRANCH  65  66
ATOM     66  O   UNL     1       0.869 -10.380  25.274  0.00  0.00    -0.392 OA
ATOM     67  H   UNL     1       1.399 -10.204  24.477  0.00  0.00    +0.210 HD
ENDBRANCH  65  66
ENDBRANCH  55  65
ENDBRANCH  52  53
ENDBRANCH  46  52
ENDBRANCH  40  44
ENDBRANCH  39  40
ENDBRANCH   1  39
TORSDOF 22
ENDMDL
MODEL 3
REMARK VINA RESULT:      -6.7      2.052      8.289
REMARK  Name = 
REMARK  23 active torsions:
REMARK  status: ('A' for Active; 'I' for Inactive)
REMARK    1  A    between atoms: C_1  and  C_2
REMARK    2  A    between atoms: C_3  and  O_62
REMARK    3  A    between atoms: C_5  and  O_47
REMARK    4  A    between atoms: C_7  and  O_46
REMARK    5  A    between atoms: C_8  and  O_11
REMARK    6  A    between atoms: O_11  and  C_12
REMARK    7  A    between atoms: C_12  and  C_13
REMARK    8  A    between atoms: C_14  and  O_45
REMARK    9  A    between atoms: C_16  and  O_44
REMARK   10  A    between atoms: C_17  and  O_43
REMARK   11  A    between atoms: C_18  and  O_21
REMARK   12  A    between atoms: O_21  and  C_22
REMARK   13  A    between atoms: C_23  and  C_35
REMARK   14  A    between atoms: C_27  and  O_34
REMARK   15  A    between atoms: C_29  and  O_33
REMARK   16  A    between atoms: C_37  and  O_42
REMARK   17  A    between atoms: C_38  and  O_41
REMARK   18  A    between atoms: O_47  and  C_48
REMARK   19  A    between atoms: C_50  and  O_61
REMARK   20  A    between atoms: C_51  and  O_60
REMARK   21  A    between atoms: C_53  and  O_59
REMARK   22  A    between atoms: C_55  and  C_57
REMARK   23  A    between atoms: C_57  and  O_58
REMARK                            x       y       z     vdW  Elec       q    Type
REMARK                         _______ _______ _______ _____ _____    ______ ____
ROOT
ATOM      1  C   UNL     1       9.875  -0.852  24.268  0.00  0.00    +0.179 C 
ATOM      2  O   UNL     1       8.848  -0.242  25.089  0.00  0.00    -0.331 OA
ATOM      3  C   UNL     1       7.929   0.687  24.477  0.00  0.00    +0.340 C 
ATOM      4  C   UNL     1       8.640   1.768  23.634  0.00  0.00    +0.214 C 
ATOM      5  C   UNL     1       9.532   1.056  22.617  0.00  0.00    +0.180 C 
ATOM      6  C   UNL     1      10.572   0.179  23.337  0.00  0.00    +0.177 C 
ENDROOT
BRANCH   4   7
ATOM      7  O   UNL     1       9.455   2.643  24.444  0.00  0.00    -0.383 OA
ATOM      8  H   UNL     1      10.187   2.962  23.883  0.00  0.00    +0.210 HD
ENDBRANCH   4   7
BRANCH   6   9
ATOM      9  O   UNL     1      11.486   0.983  24.102  0.00  0.00    -0.386 OA
ATOM     10  H   UNL     1      12.184   0.394  24.449  0.00  0.00    +0.210 HD
ENDBRANCH   6   9
BRANCH   5  11
ATOM     11  O   UNL     1      10.164   2.009  21.762  0.00  0.00    -0.386 OA
ATOM     12  H   UNL     1      10.122   2.863  22.235  0.00  0.00    +0.210 HD
ENDBRANCH   5  11
BRANCH   3  13
ATOM     13  O   UNL     1       7.172   1.350  25.516  0.00  0.00    -0.453 OA
BRANCH  13  14
ATOM     14  C   UNL     1       5.891   0.939  25.889  0.00  0.00    +0.214 A 
ATOM     15  C   UNL     1       5.644  -0.175  26.816  0.00  0.00    +0.238 A 
ATOM     16  O   UNL     1       6.506  -0.764  27.452  0.00  0.00    -0.283 OA
ATOM     17  C   UNL     1       4.237  -0.554  27.030  0.00  0.00    +0.109 A 
ATOM     18  C   UNL     1       3.219   0.343  26.820  0.00  0.00    +0.147 A 
ATOM     19  C   UNL     1       1.936   0.133  27.354  0.00  0.00    +0.092 A 
ATOM     20  C   UNL     1       1.685  -1.069  27.998  0.00  0.00    +0.124 A 
ATOM     21  C   UNL     1       2.637  -2.078  27.959  0.00  0.00    +0.091 A 
ATOM     22  O   UNL     1       3.483   1.438  26.090  0.00  0.00    -0.451 OA
ATOM     23  C   UNL     1       3.934  -1.791  27.524  0.00  0.00    +0.135 A 
ATOM     24  C   UNL     1       4.771   1.636  25.607  0.00  0.00    +0.181 A 
BRANCH  24  25
ATOM     25  C   UNL     1       4.789   2.952  25.007  0.00  0.00    +0.025 A 
ATOM     26  C   UNL     1       4.785   2.900  23.608  0.00  0.00    +0.015 A 
ATOM     27  C   UNL     1       5.337   3.931  22.882  0.00  0.00    +0.050 A 
ATOM     28  C   UNL     1       5.679   5.096  23.553  0.00  0.00    +0.158 A 
ATOM     29  C   UNL     1       5.601   5.193  24.946  0.00  0.00    +0.159 A 
ATOM     30  C   UNL     1       5.232   4.085  25.696  0.00  0.00    +0.060 A 
BRANCH  29  31
ATOM     31  O   UNL     1       5.887   6.375  25.565  0.00  0.00    -0.503 OA
ATOM     32  H   UNL     1       5.338   6.452  26.362  0.00  0.00    +0.292 HD
ENDBRANCH  29  31
BRANCH  28  33
ATOM     33  O   UNL     1       6.043   6.172  22.803  0.00  0.00    -0.503 OA
ATOM     34  H   UNL     1       5.866   5.907  21.884  0.00  0.00    +0.292 HD
ENDBRANCH  28  33
ENDBRANCH  24  25
BRANCH  23  35
ATOM     35  O   UNL     1       4.949  -2.677  27.733  0.00  0.00    -0.506 OA
ATOM     36  H   UNL     1       5.256  -2.558  28.667  0.00  0.00    +0.292 HD
ENDBRANCH  23  35
BRANCH  20  37
ATOM     37  O   UNL     1       0.562  -1.319  28.727  0.00  0.00    -0.507 OA
ATOM     38  H   UNL     1       0.384  -0.604  29.359  0.00  0.00    +0.292 HD
ENDBRANCH  20  37
ENDBRANCH  13  14
ENDBRANCH   3  13
BRANCH   1  39
ATOM     39  C   UNL     1       9.467  -2.112  23.437  0.00  0.00    +0.197 C 
BRANCH  39  40
ATOM     40  O   UNL     1       9.511  -3.376  24.095  0.00  0.00    -0.346 OA
BRANCH  40  44
ATOM     41  C   UNL     1       6.524  -5.900  22.271  0.00  0.00    +0.041 C 
ATOM     42  C   UNL     1       6.241  -4.569  22.966  0.00  0.00    +0.149 C 
ATOM     43  O   UNL     1       7.459  -3.814  23.144  0.00  0.00    -0.343 OA
ATOM     44  C   UNL     1       8.377  -4.247  24.174  0.00  0.00    +0.282 C 
ATOM     45  C   UNL     1       7.602  -4.258  25.513  0.00  0.00    +0.202 C 
ATOM     46  C   UNL     1       6.404  -5.228  25.368  0.00  0.00    +0.186 C 
ATOM     47  C   UNL     1       5.449  -4.766  24.265  0.00  0.00    +0.174 C 
BRANCH  47  48
ATOM     48  O   UNL     1       4.758  -3.566  24.629  0.00  0.00    -0.387 OA
ATOM     49  H   UNL     1       4.173  -3.777  25.386  0.00  0.00    +0.210 HD
ENDBRANCH  47  48
BRANCH  45  50
ATOM     50  O   UNL     1       7.122  -2.942  25.860  0.00  0.00    -0.384 OA
ATOM     51  H   UNL     1       7.461  -2.329  25.176  0.00  0.00    +0.210 HD
ENDBRANCH  45  50
BRANCH  46  52
ATOM     52  O   UNL     1       5.779  -5.394  26.640  0.00  0.00    -0.340 OA
BRANCH  52  53
ATOM     53  C   UNL     1       5.207  -6.682  26.944  0.00  0.00    +0.282 C 
ATOM     54  O   UNL     1       3.841  -6.686  26.441  0.00  0.00    -0.341 OA
ATOM     55  C   UNL     1       3.100  -5.620  27.048  0.00  0.00    +0.178 C 
ATOM     56  C   UNL     1       3.067  -5.889  28.563  0.00  0.00    +0.177 C 
ATOM     57  C   UNL     1       4.418  -6.012  29.243  0.00  0.00    +0.179 C 
ATOM     58  C   UNL     1       5.239  -7.026  28.471  0.00  0.00    +0.201 C 
BRANCH  58  59
ATOM     59  O   UNL     1       6.551  -7.087  29.046  0.00  0.00    -0.384 OA
ATOM     60  H   UNL     1       6.600  -6.374  29.717  0.00  0.00    +0.210 HD
ENDBRANCH  58  59
BRANCH  57  61
ATOM     61  O   UNL     1       5.136  -4.790  29.439  0.00  0.00    -0.386 OA
ATOM     62  H   UNL     1       5.717  -4.617  28.672  0.00  0.00    +0.210 HD
ENDBRANCH  57  61
BRANCH  56  63
ATOM     63  O   UNL     1       2.277  -7.027  28.901  0.00  0.00    -0.386 OA
ATOM     64  H   UNL     1       2.817  -7.558  29.519  0.00  0.00    +0.210 HD
ENDBRANCH  56  63
BRANCH  55  65
ATOM     65  C   UNL     1       1.677  -5.331  26.484  0.00  0.00    +0.190 C 
BRANCH  65  66
ATOM     66  O   UNL     1       0.870  -6.498  26.322  0.00  0.00    -0.392 OA
ATOM     67  H   UNL     1       0.795  -6.674  25.368  0.00  0.00    +0.210 HD
ENDBRANCH  65  66
ENDBRANCH  55  65
ENDBRANCH  52  53
ENDBRANCH  46  52
ENDBRANCH  40  44
ENDBRANCH  39  40
ENDBRANCH   1  39
TORSDOF 22
ENDMDL
MODEL 4
REMARK VINA RESULT:      -6.4      2.598      9.466
REMARK  Name = 
REMARK  23 active torsions:
REMARK  status: ('A' for Active; 'I' for Inactive)
REMARK    1  A    between atoms: C_1  and  C_2
REMARK    2  A    between atoms: C_3  and  O_62
REMARK    3  A    between atoms: C_5  and  O_47
REMARK    4  A    between atoms: C_7  and  O_46
REMARK    5  A    between atoms: C_8  and  O_11
REMARK    6  A    between atoms: O_11  and  C_12
REMARK    7  A    between atoms: C_12  and  C_13
REMARK    8  A    between atoms: C_14  and  O_45
REMARK    9  A    between atoms: C_16  and  O_44
REMARK   10  A    between atoms: C_17  and  O_43
REMARK   11  A    between atoms: C_18  and  O_21
REMARK   12  A    between atoms: O_21  and  C_22
REMARK   13  A    between atoms: C_23  and  C_35
REMARK   14  A    between atoms: C_27  and  O_34
REMARK   15  A    between atoms: C_29  and  O_33
REMARK   16  A    between atoms: C_37  and  O_42
REMARK   17  A    between atoms: C_38  and  O_41
REMARK   18  A    between atoms: O_47  and  C_48
REMARK   19  A    between atoms: C_50  and  O_61
REMARK   20  A    between atoms: C_51  and  O_60
REMARK   21  A    between atoms: C_53  and  O_59
REMARK   22  A    between atoms: C_55  and  C_57
REMARK   23  A    between atoms: C_57  and  O_58
REMARK                            x       y       z     vdW  Elec       q    Type
REMARK                         _______ _______ _______ _____ _____    ______ ____
ROOT
ATOM      1  C   UNL     1       9.116   0.080  24.522  0.00  0.00    +0.179 C 
ATOM      2  O   UNL     1       8.368   1.256  24.917  0.00  0.00    -0.331 OA
ATOM      3  C   UNL     1       7.419   1.821  23.989  0.00  0.00    +0.340 C 
ATOM      4  C   UNL     1       8.007   2.022  22.576  0.00  0.00    +0.214 C 
ATOM      5  C   UNL     1       8.569   0.679  22.108  0.00  0.00    +0.180 C 
ATOM      6  C   UNL     1       9.666   0.193  23.072  0.00  0.00    +0.177 C 
ENDROOT
BRANCH   4   7
ATOM      7  O   UNL     1       9.064   3.007  22.560  0.00  0.00    -0.383 OA
ATOM      8  H   UNL     1       8.693   3.838  22.912  0.00  0.00    +0.210 HD
ENDBRANCH   4   7
BRANCH   6   9
ATOM      9  O   UNL     1      10.801   1.075  23.052  0.00  0.00    -0.386 OA
ATOM     10  H   UNL     1      10.957   1.383  23.967  0.00  0.00    +0.210 HD
ENDBRANCH   6   9
BRANCH   5  11
ATOM     11  O   UNL     1       9.068   0.791  20.775  0.00  0.00    -0.386 OA
ATOM     12  H   UNL     1       9.335  -0.113  20.512  0.00  0.00    +0.210 HD
ENDBRANCH   5  11
BRANCH   3  13
ATOM     13  O   UNL     1       6.987   3.109  24.487  0.00  0.00    -0.453 OA
BRANCH  13  14
ATOM     14  C   UNL     1       6.081   3.915  23.794  0.00  0.00    +0.214 A 
ATOM     15  C   UNL     1       4.711   3.489  23.474  0.00  0.00    +0.238 A 
ATOM     16  O   UNL     1       4.180   2.467  23.882  0.00  0.00    -0.283 OA
ATOM     17  C   UNL     1       3.911   4.411  22.650  0.00  0.00    +0.109 A 
ATOM     18  C   UNL     1       4.191   5.754  22.610  0.00  0.00    +0.147 A 
ATOM     19  C   UNL     1       3.249   6.685  22.140  0.00  0.00    +0.092 A 
ATOM     20  C   UNL     1       2.067   6.202  21.598  0.00  0.00    +0.124 A 
ATOM     21  C   UNL     1       1.917   4.838  21.391  0.00  0.00    +0.091 A 
ATOM     22  O   UNL     1       5.396   6.161  23.039  0.00  0.00    -0.451 OA
ATOM     23  C   UNL     1       2.820   3.944  21.974  0.00  0.00    +0.135 A 
ATOM     24  C   UNL     1       6.293   5.222  23.532  0.00  0.00    +0.181 A 
BRANCH  24  25
ATOM     25  C   UNL     1       7.419   5.962  24.058  0.00  0.00    +0.025 A 
ATOM     26  C   UNL     1       8.404   6.191  23.090  0.00  0.00    +0.015 A 
ATOM     27  C   UNL     1       9.715   6.358  23.473  0.00  0.00    +0.050 A 
ATOM     28  C   UNL     1       9.989   6.519  24.824  0.00  0.00    +0.158 A 
ATOM     29  C   UNL     1       8.994   6.383  25.797  0.00  0.00    +0.159 A 
ATOM     30  C   UNL     1       7.708   6.018  25.425  0.00  0.00    +0.060 A 
BRANCH  29  31
ATOM     31  O   UNL     1       9.288   6.610  27.110  0.00  0.00    -0.503 OA
ATOM     32  H   UNL     1       9.390   7.565  27.247  0.00  0.00    +0.292 HD
ENDBRANCH  29  31
BRANCH  28  33
ATOM     33  O   UNL     1      11.256   6.874  25.173  0.00  0.00    -0.503 OA
ATOM     34  H   UNL     1      11.822   6.177  24.799  0.00  0.00    +0.292 HD
ENDBRANCH  28  33
ENDBRANCH  24  25
BRANCH  23  35
ATOM     35  O   UNL     1       2.545   2.610  22.019  0.00  0.00    -0.506 OA
ATOM     36  H   UNL     1       3.302   2.138  21.590  0.00  0.00    +0.292 HD
ENDBRANCH  23  35
BRANCH  20  37
ATOM     37  O   UNL     1       0.995   6.986  21.294  0.00  0.00    -0.507 OA
ATOM     38  H   UNL     1       0.295   6.901  21.961  0.00  0.00    +0.292 HD
ENDBRANCH  20  37
ENDBRANCH  13  14
ENDBRANCH   3  13
BRANCH   1  39
ATOM     39  C   UNL     1       8.414  -1.306  24.705  0.00  0.00    +0.197 C 
BRANCH  39  40
ATOM     40  O   UNL     1       8.209  -2.098  23.538  0.00  0.00    -0.346 OA
BRANCH  40  44
ATOM     41  C   UNL     1       7.563  -6.057  21.947  0.00  0.00    +0.041 C 
ATOM     42  C   UNL     1       6.517  -4.944  21.979  0.00  0.00    +0.149 C 
ATOM     43  O   UNL     1       7.137  -3.665  22.232  0.00  0.00    -0.343 OA
ATOM     44  C   UNL     1       7.587  -3.388  23.578  0.00  0.00    +0.282 C 
ATOM     45  C   UNL     1       6.368  -3.541  24.517  0.00  0.00    +0.202 C 
ATOM     46  C   UNL     1       5.831  -4.987  24.378  0.00  0.00    +0.186 C 
ATOM     47  C   UNL     1       5.373  -5.270  22.947  0.00  0.00    +0.174 C 
BRANCH  47  48
ATOM     48  O   UNL     1       4.193  -4.531  22.610  0.00  0.00    -0.387 OA
ATOM     49  H   UNL     1       3.642  -4.464  23.418  0.00  0.00    +0.210 HD
ENDBRANCH  47  48
BRANCH  45  50
ATOM     50  O   UNL     1       5.323  -2.601  24.189  0.00  0.00    -0.384 OA
ATOM     51  H   UNL     1       5.154  -2.074  24.995  0.00  0.00    +0.210 HD
ENDBRANCH  45  50
BRANCH  46  52
ATOM     52  O   UNL     1       4.821  -5.208  25.362  0.00  0.00    -0.340 OA
BRANCH  52  53
ATOM     53  C   UNL     1       5.021  -6.287  26.297  0.00  0.00    +0.282 C 
ATOM     54  O   UNL     1       4.289  -7.442  25.798  0.00  0.00    -0.341 OA
ATOM     55  C   UNL     1       2.901  -7.110  25.659  0.00  0.00    +0.178 C 
ATOM     56  C   UNL     1       2.371  -6.760  27.060  0.00  0.00    +0.177 C 
ATOM     57  C   UNL     1       3.088  -5.630  27.776  0.00  0.00    +0.179 C 
ATOM     58  C   UNL     1       4.574  -5.932  27.754  0.00  0.00    +0.201 C 
BRANCH  58  59
ATOM     59  O   UNL     1       5.273  -4.829  28.346  0.00  0.00    -0.384 OA
ATOM     60  H   UNL     1       4.613  -4.314  28.856  0.00  0.00    +0.210 HD
ENDBRANCH  58  59
BRANCH  57  61
ATOM     61  O   UNL     1       2.810  -4.309  27.301  0.00  0.00    -0.386 OA
ATOM     62  H   UNL     1       2.231  -3.840  27.935  0.00  0.00    +0.210 HD
ENDBRANCH  57  61
BRANCH  56  63
ATOM     63  O   UNL     1       2.318  -7.892  27.926  0.00  0.00    -0.386 OA
ATOM     64  H   UNL     1       1.450  -7.850  28.374  0.00  0.00    +0.210 HD
ENDBRANCH  56  63
BRANCH  55  65
ATOM     65  C   UNL     1       1.990  -8.150  24.942  0.00  0.00    +0.190 C 
BRANCH  65  66
ATOM     66  O   UNL     1       2.318  -9.508  25.235  0.00  0.00    -0.392 OA
ATOM     67  H   UNL     1       2.874  -9.511  26.033  0.00  0.00    +0.210 HD
ENDBRANCH  65  66
ENDBRANCH  55  65
ENDBRANCH  52  53
ENDBRANCH  46  52
ENDBRANCH  40  44
ENDBRANCH  39  40
ENDBRANCH   1  39
TORSDOF 22
ENDMDL
MODEL 5
REMARK VINA RESULT:      -6.3      1.975      8.092
REMARK  Name = 
REMARK  23 active torsions:
REMARK  status: ('A' for Active; 'I' for Inactive)
REMARK    1  A    between atoms: C_1  and  C_2
REMARK    2  A    between atoms: C_3  and  O_62
REMARK    3  A    between atoms: C_5  and  O_47
REMARK    4  A    between atoms: C_7  and  O_46
REMARK    5  A    between atoms: C_8  and  O_11
REMARK    6  A    between atoms: O_11  and  C_12
REMARK    7  A    between atoms: C_12  and  C_13
REMARK    8  A    between atoms: C_14  and  O_45
REMARK    9  A    between atoms: C_16  and  O_44
REMARK   10  A    between atoms: C_17  and  O_43
REMARK   11  A    between atoms: C_18  and  O_21
REMARK   12  A    between atoms: O_21  and  C_22
REMARK   13  A    between atoms: C_23  and  C_35
REMARK   14  A    between atoms: C_27  and  O_34
REMARK   15  A    between atoms: C_29  and  O_33
REMARK   16  A    between atoms: C_37  and  O_42
REMARK   17  A    between atoms: C_38  and  O_41
REMARK   18  A    between atoms: O_47  and  C_48
REMARK   19  A    between atoms: C_50  and  O_61
REMARK   20  A    between atoms: C_51  and  O_60
REMARK   21  A    between atoms: C_53  and  O_59
REMARK   22  A    between atoms: C_55  and  C_57
REMARK   23  A    between atoms: C_57  and  O_58
REMARK                            x       y       z     vdW  Elec       q    Type
REMARK                         _______ _______ _______ _____ _____    ______ ____
ROOT
ATOM      1  C   UNL     1       9.586   0.936  24.458  0.00  0.00    +0.179 C 
ATOM      2  O   UNL     1       8.246   1.487  24.463  0.00  0.00    -0.331 OA
ATOM      3  C   UNL     1       7.238   0.872  23.634  0.00  0.00    +0.340 C 
ATOM      4  C   UNL     1       7.710   0.648  22.181  0.00  0.00    +0.214 C 
ATOM      5  C   UNL     1       9.010  -0.154  22.230  0.00  0.00    +0.180 C 
ATOM      6  C   UNL     1      10.084   0.615  23.021  0.00  0.00    +0.177 C 
ENDROOT
BRANCH   4   7
ATOM      7  O   UNL     1       7.949   1.892  21.488  0.00  0.00    -0.383 OA
ATOM      8  H   UNL     1       8.831   2.212  21.756  0.00  0.00    +0.210 HD
ENDBRANCH   4   7
BRANCH   6   9
ATOM      9  O   UNL     1      10.448   1.833  22.350  0.00  0.00    -0.386 OA
ATOM     10  H   UNL     1      11.350   1.718  21.991  0.00  0.00    +0.210 HD
ENDBRANCH   6   9
BRANCH   5  11
ATOM     11  O   UNL     1       9.458  -0.449  20.907  0.00  0.00    -0.386 OA
ATOM     12  H   UNL     1      10.327  -0.885  21.009  0.00  0.00    +0.210 HD
ENDBRANCH   5  11
BRANCH   3  13
ATOM     13  O   UNL     1       6.071   1.726  23.604  0.00  0.00    -0.453 OA
BRANCH  13  14
ATOM     14  C   UNL     1       5.356   2.059  24.756  0.00  0.00    +0.214 A 
ATOM     15  C   UNL     1       4.687   1.060  25.602  0.00  0.00    +0.238 A 
ATOM     16  O   UNL     1       4.789  -0.151  25.473  0.00  0.00    -0.283 OA
ATOM     17  C   UNL     1       3.887   1.578  26.725  0.00  0.00    +0.109 A 
ATOM     18  C   UNL     1       4.141   2.812  27.270  0.00  0.00    +0.147 A 
ATOM     19  C   UNL     1       3.654   3.166  28.539  0.00  0.00    +0.092 A 
ATOM     20  C   UNL     1       2.801   2.282  29.183  0.00  0.00    +0.124 A 
ATOM     21  C   UNL     1       2.332   1.167  28.502  0.00  0.00    +0.091 A 
ATOM     22  O   UNL     1       4.877   3.678  26.555  0.00  0.00    -0.451 OA
ATOM     23  C   UNL     1       2.926   0.791  27.294  0.00  0.00    +0.135 A 
ATOM     24  C   UNL     1       5.376   3.286  25.319  0.00  0.00    +0.181 A 
BRANCH  24  25
ATOM     25  C   UNL     1       6.246   4.349  24.869  0.00  0.00    +0.025 A 
ATOM     26  C   UNL     1       6.032   4.680  23.525  0.00  0.00    +0.015 A 
ATOM     27  C   UNL     1       7.055   5.220  22.781  0.00  0.00    +0.050 A 
ATOM     28  C   UNL     1       8.203   5.631  23.443  0.00  0.00    +0.158 A 
ATOM     29  C   UNL     1       8.391   5.388  24.808  0.00  0.00    +0.159 A 
ATOM     30  C   UNL     1       7.444   4.665  25.518  0.00  0.00    +0.060 A 
BRANCH  29  31
ATOM     31  O   UNL     1       9.505   5.862  25.438  0.00  0.00    -0.503 OA
ATOM     32  H   UNL     1       9.287   6.040  26.366  0.00  0.00    +0.292 HD
ENDBRANCH  29  31
BRANCH  28  33
ATOM     33  O   UNL     1       9.124   6.336  22.731  0.00  0.00    -0.503 OA
ATOM     34  H   UNL     1       9.941   6.278  23.255  0.00  0.00    +0.292 HD
ENDBRANCH  28  33
ENDBRANCH  24  25
BRANCH  23  35
ATOM     35  O   UNL     1       2.680  -0.435  26.751  0.00  0.00    -0.506 OA
ATOM     36  H   UNL     1       1.952  -0.850  27.278  0.00  0.00    +0.292 HD
ENDBRANCH  23  35
BRANCH  20  37
ATOM     37  O   UNL     1       2.421   2.406  30.485  0.00  0.00    -0.507 OA
ATOM     38  H   UNL     1       3.058   2.935  30.990  0.00  0.00    +0.292 HD
ENDBRANCH  20  37
ENDBRANCH  13  14
ENDBRANCH   3  13
BRANCH   1  39
ATOM     39  C   UNL     1       9.855  -0.292  25.389  0.00  0.00    +0.197 C 
BRANCH  39  40
ATOM     40  O   UNL     1       8.729  -0.890  26.028  0.00  0.00    -0.346 OA
BRANCH  40  44
ATOM     41  C   UNL     1       9.930  -5.013  25.616  0.00  0.00    +0.041 C 
ATOM     42  C   UNL     1       9.180  -4.208  24.554  0.00  0.00    +0.149 C 
ATOM     43  O   UNL     1       9.247  -2.795  24.842  0.00  0.00    -0.343 OA
ATOM     44  C   UNL     1       8.429  -2.286  25.919  0.00  0.00    +0.282 C 
ATOM     45  C   UNL     1       6.961  -2.657  25.604  0.00  0.00    +0.202 C 
ATOM     46  C   UNL     1       6.868  -4.199  25.492  0.00  0.00    +0.186 C 
ATOM     47  C   UNL     1       7.750  -4.725  24.358  0.00  0.00    +0.174 C 
BRANCH  47  48
ATOM     48  O   UNL     1       7.243  -4.348  23.073  0.00  0.00    -0.387 OA
ATOM     49  H   UNL     1       7.920  -3.788  22.638  0.00  0.00    +0.210 HD
ENDBRANCH  47  48
BRANCH  45  50
ATOM     50  O   UNL     1       6.513  -2.053  24.373  0.00  0.00    -0.384 OA
ATOM     51  H   UNL     1       5.535  -2.047  24.401  0.00  0.00    +0.210 HD
ENDBRANCH  45  50
BRANCH  46  52
ATOM     52  O   UNL     1       5.496  -4.578  25.380  0.00  0.00    -0.340 OA
BRANCH  52  53
ATOM     53  C   UNL     1       4.864  -5.156  26.539  0.00  0.00    +0.282 C 
ATOM     54  O   UNL     1       4.328  -6.452  26.148  0.00  0.00    -0.341 OA
ATOM     55  C   UNL     1       3.402  -6.284  25.066  0.00  0.00    +0.178 C 
ATOM     56  C   UNL     1       2.246  -5.410  25.583  0.00  0.00    +0.177 C 
ATOM     57  C   UNL     1       2.637  -4.048  26.125  0.00  0.00    +0.179 C 
ATOM     58  C   UNL     1       3.740  -4.250  27.145  0.00  0.00    +0.201 C 
BRANCH  58  59
ATOM     59  O   UNL     1       4.185  -2.965  27.599  0.00  0.00    -0.384 OA
ATOM     60  H   UNL     1       4.250  -2.390  26.807  0.00  0.00    +0.210 HD
ENDBRANCH  58  59
BRANCH  57  61
ATOM     61  O   UNL     1       2.993  -3.063  25.149  0.00  0.00    -0.386 OA
ATOM     62  H   UNL     1       3.867  -2.679  25.365  0.00  0.00    +0.210 HD
ENDBRANCH  57  61
BRANCH  56  63
ATOM     63  O   UNL     1       1.445  -6.079  26.556  0.00  0.00    -0.386 OA
ATOM     64  H   UNL     1       1.771  -6.999  26.588  0.00  0.00    +0.210 HD
ENDBRANCH  56  63
BRANCH  55  65
ATOM     65  C   UNL     1       2.880  -7.576  24.370  0.00  0.00    +0.190 C 
BRANCH  65  66
ATOM     66  O   UNL     1       2.759  -8.697  25.245  0.00  0.00    -0.392 OA
ATOM     67  H   UNL     1       1.949  -8.576  25.770  0.00  0.00    +0.210 HD
ENDBRANCH  65  66
ENDBRANCH  55  65
ENDBRANCH  52  53
ENDBRANCH  46  52
ENDBRANCH  40  44
ENDBRANCH  39  40
ENDBRANCH   1  39
TORSDOF 22
ENDMDL
MODEL 6
REMARK VINA RESULT:      -6.3      2.519      9.201
REMARK  Name = 
REMARK  23 active torsions:
REMARK  status: ('A' for Active; 'I' for Inactive)
REMARK    1  A    between atoms: C_1  and  C_2
REMARK    2  A    between atoms: C_3  and  O_62
REMARK    3  A    between atoms: C_5  and  O_47
REMARK    4  A    between atoms: C_7  and  O_46
REMARK    5  A    between atoms: C_8  and  O_11
REMARK    6  A    between atoms: O_11  and  C_12
REMARK    7  A    between atoms: C_12  and  C_13
REMARK    8  A    between atoms: C_14  and  O_45
REMARK    9  A    between atoms: C_16  and  O_44
REMARK   10  A    between atoms: C_17  and  O_43
REMARK   11  A    between atoms: C_18  and  O_21
REMARK   12  A    between atoms: O_21  and  C_22
REMARK   13  A    between atoms: C_23  and  C_35
REMARK   14  A    between atoms: C_27  and  O_34
REMARK   15  A    between atoms: C_29  and  O_33
REMARK   16  A    between atoms: C_37  and  O_42
REMARK   17  A    between atoms: C_38  and  O_41
REMARK   18  A    between atoms: O_47  and  C_48
REMARK   19  A    between atoms: C_50  and  O_61
REMARK   20  A    between atoms: C_51  and  O_60
REMARK   21  A    between atoms: C_53  and  O_59
REMARK   22  A    between atoms: C_55  and  C_57
REMARK   23  A    between atoms: C_57  and  O_58
REMARK                            x       y       z     vdW  Elec       q    Type
REMARK                         _______ _______ _______ _____ _____    ______ ____
ROOT
ATOM      1  C   UNL     1       9.117   0.956  24.855  0.00  0.00    +0.179 C 
ATOM      2  O   UNL     1       8.585   2.197  24.328  0.00  0.00    -0.331 OA
ATOM      3  C   UNL     1       8.023   2.204  22.999  0.00  0.00    +0.340 C 
ATOM      4  C   UNL     1       8.945   1.541  21.953  0.00  0.00    +0.214 C 
ATOM      5  C   UNL     1       9.280   0.134  22.450  0.00  0.00    +0.180 C 
ATOM      6  C   UNL     1       9.991   0.203  23.814  0.00  0.00    +0.177 C 
ENDROOT
BRANCH   4   7
ATOM      7  O   UNL     1      10.173   2.277  21.763  0.00  0.00    -0.383 OA
ATOM      8  H   UNL     1       9.932   3.172  21.456  0.00  0.00    +0.210 HD
ENDBRANCH   4   7
BRANCH   6   9
ATOM      9  O   UNL     1      11.271   0.847  23.698  0.00  0.00    -0.386 OA
ATOM     10  H   UNL     1      11.733   0.457  22.930  0.00  0.00    +0.210 HD
ENDBRANCH   6   9
BRANCH   5  11
ATOM     11  O   UNL     1      10.078  -0.553  21.487  0.00  0.00    -0.386 OA
ATOM     12  H   UNL     1      10.033  -1.500  21.727  0.00  0.00    +0.210 HD
ENDBRANCH   5  11
BRANCH   3  13
ATOM     13  O   UNL     1       7.793   3.574  22.595  0.00  0.00    -0.453 OA
BRANCH  13  14
ATOM     14  C   UNL     1       6.598   4.244  22.861  0.00  0.00    +0.214 A 
ATOM     15  C   UNL     1       5.277   3.618  22.707  0.00  0.00    +0.238 A 
ATOM     16  O   UNL     1       5.083   2.436  22.466  0.00  0.00    -0.283 OA
ATOM     17  C   UNL     1       4.107   4.487  22.928  0.00  0.00    +0.109 A 
ATOM     18  C   UNL     1       4.196   5.614  23.706  0.00  0.00    +0.147 A 
ATOM     19  C   UNL     1       3.049   6.241  24.221  0.00  0.00    +0.092 A 
ATOM     20  C   UNL     1       1.809   5.763  23.824  0.00  0.00    +0.124 A 
ATOM     21  C   UNL     1       1.734   4.804  22.824  0.00  0.00    +0.091 A 
ATOM     22  O   UNL     1       5.418   6.106  23.967  0.00  0.00    -0.451 OA
ATOM     23  C   UNL     1       2.890   4.129  22.422  0.00  0.00    +0.135 A 
ATOM     24  C   UNL     1       6.535   5.445  23.474  0.00  0.00    +0.181 A 
BRANCH  24  25
ATOM     25  C   UNL     1       7.690   6.104  24.042  0.00  0.00    +0.025 A 
ATOM     26  C   UNL     1       8.706   6.306  23.100  0.00  0.00    +0.015 A 
ATOM     27  C   UNL     1      10.016   6.387  23.511  0.00  0.00    +0.050 A 
ATOM     28  C   UNL     1      10.272   6.492  24.871  0.00  0.00    +0.158 A 
ATOM     29  C   UNL     1       9.251   6.384  25.821  0.00  0.00    +0.159 A 
ATOM     30  C   UNL     1       7.955   6.103  25.415  0.00  0.00    +0.060 A 
BRANCH  29  31
ATOM     31  O   UNL     1       9.532   6.555  27.146  0.00  0.00    -0.503 OA
ATOM     32  H   UNL     1      10.234   7.219  27.234  0.00  0.00    +0.292 HD
ENDBRANCH  29  31
BRANCH  28  33
ATOM     33  O   UNL     1      11.550   6.764  25.253  0.00  0.00    -0.503 OA
ATOM     34  H   UNL     1      11.951   5.894  25.418  0.00  0.00    +0.292 HD
ENDBRANCH  28  33
ENDBRANCH  24  25
BRANCH  23  35
ATOM     35  O   UNL     1       2.807   3.006  21.654  0.00  0.00    -0.506 OA
ATOM     36  H   UNL     1       1.995   2.515  21.935  0.00  0.00    +0.292 HD
ENDBRANCH  23  35
BRANCH  20  37
ATOM     37  O   UNL     1       0.631   6.141  24.395  0.00  0.00    -0.507 OA
ATOM     38  H   UNL     1       0.560   7.108  24.451  0.00  0.00    +0.292 HD
ENDBRANCH  20  37
ENDBRANCH  13  14
ENDBRANCH   3  13
BRANCH   1  39
ATOM     39  C   UNL     1       8.096  -0.040  25.496  0.00  0.00    +0.197 C 
BRANCH  39  40
ATOM     40  O   UNL     1       7.477  -0.992  24.634  0.00  0.00    -0.346 OA
BRANCH  40  44
ATOM     41  C   UNL     1       9.428  -4.648  25.837  0.00  0.00    +0.041 C 
ATOM     42  C   UNL     1       8.881  -4.365  24.438  0.00  0.00    +0.149 C 
ATOM     43  O   UNL     1       8.623  -2.955  24.264  0.00  0.00    -0.343 OA
ATOM     44  C   UNL     1       7.461  -2.396  24.917  0.00  0.00    +0.282 C 
ATOM     45  C   UNL     1       6.226  -3.188  24.428  0.00  0.00    +0.202 C 
ATOM     46  C   UNL     1       6.431  -4.678  24.799  0.00  0.00    +0.186 C 
ATOM     47  C   UNL     1       7.672  -5.252  24.113  0.00  0.00    +0.174 C 
BRANCH  47  48
ATOM     48  O   UNL     1       7.491  -5.368  22.697  0.00  0.00    -0.387 OA
ATOM     49  H   UNL     1       6.537  -5.522  22.531  0.00  0.00    +0.210 HD
ENDBRANCH  47  48
BRANCH  45  50
ATOM     50  O   UNL     1       6.046  -3.064  23.001  0.00  0.00    -0.384 OA
ATOM     51  H   UNL     1       5.318  -2.425  22.863  0.00  0.00    +0.210 HD
ENDBRANCH  45  50
BRANCH  46  52
ATOM     52  O   UNL     1       5.232  -5.399  24.520  0.00  0.00    -0.340 OA
BRANCH  52  53
ATOM     53  C   UNL     1       3.991  -4.848  25.004  0.00  0.00    +0.282 C 
ATOM     54  O   UNL     1       3.957  -5.041  26.447  0.00  0.00    -0.341 OA
ATOM     55  C   UNL     1       4.072  -6.437  26.750  0.00  0.00    +0.178 C 
ATOM     56  C   UNL     1       2.853  -7.144  26.131  0.00  0.00    +0.177 C 
ATOM     57  C   UNL     1       2.675  -6.968  24.634  0.00  0.00    +0.179 C 
ATOM     58  C   UNL     1       2.729  -5.483  24.328  0.00  0.00    +0.201 C 
BRANCH  58  59
ATOM     59  O   UNL     1       2.655  -5.305  22.908  0.00  0.00    -0.384 OA
ATOM     60  H   UNL     1       3.312  -4.616  22.673  0.00  0.00    +0.210 HD
ENDBRANCH  58  59
BRANCH  57  61
ATOM     61  O   UNL     1       3.572  -7.711  23.804  0.00  0.00    -0.386 OA
ATOM     62  H   UNL     1       4.012  -7.113  23.167  0.00  0.00    +0.210 HD
ENDBRANCH  57  61
BRANCH  56  63
ATOM     63  O   UNL     1       1.631  -6.800  26.782  0.00  0.00    -0.386 OA
ATOM     64  H   UNL     1       1.572  -5.825  26.751  0.00  0.00    +0.210 HD
ENDBRANCH  56  63
BRANCH  55  65
ATOM     65  C   UNL     1       4.265  -6.827  28.245  0.00  0.00    +0.190 C 
BRANCH  65  66
ATOM     66  O   UNL     1       5.448  -7.586  28.498  0.00  0.00    -0.392 OA
ATOM     67  H   UNL     1       6.211  -7.035  28.249  0.00  0.00    +0.210 HD
ENDBRANCH  65  66
ENDBRANCH  55  65
ENDBRANCH  52  53
ENDBRANCH  46  52
ENDBRANCH  40  44
ENDBRANCH  39  40
ENDBRANCH   1  39
TORSDOF 22
ENDMDL
MODEL 7
REMARK VINA RESULT:      -6.2      2.430      7.912
REMARK  Name = 
REMARK  23 active torsions:
REMARK  status: ('A' for Active; 'I' for Inactive)
REMARK    1  A    between atoms: C_1  and  C_2
REMARK    2  A    between atoms: C_3  and  O_62
REMARK    3  A    between atoms: C_5  and  O_47
REMARK    4  A    between atoms: C_7  and  O_46
REMARK    5  A    between atoms: C_8  and  O_11
REMARK    6  A    between atoms: O_11  and  C_12
REMARK    7  A    between atoms: C_12  and  C_13
REMARK    8  A    between atoms: C_14  and  O_45
REMARK    9  A    between atoms: C_16  and  O_44
REMARK   10  A    between atoms: C_17  and  O_43
REMARK   11  A    between atoms: C_18  and  O_21
REMARK   12  A    between atoms: O_21  and  C_22
REMARK   13  A    between atoms: C_23  and  C_35
REMARK   14  A    between atoms: C_27  and  O_34
REMARK   15  A    between atoms: C_29  and  O_33
REMARK   16  A    between atoms: C_37  and  O_42
REMARK   17  A    between atoms: C_38  and  O_41
REMARK   18  A    between atoms: O_47  and  C_48
REMARK   19  A    between atoms: C_50  and  O_61
REMARK   20  A    between atoms: C_51  and  O_60
REMARK   21  A    between atoms: C_53  and  O_59
REMARK   22  A    between atoms: C_55  and  C_57
REMARK   23  A    between atoms: C_57  and  O_58
REMARK                            x       y       z     vdW  Elec       q    Type
REMARK                         _______ _______ _______ _____ _____    ______ ____
ROOT
ATOM      1  C   UNL     1       8.628  -2.945  24.943  0.00  0.00    +0.179 C 
ATOM      2  O   UNL     1       7.798  -1.758  24.902  0.00  0.00    -0.331 OA
ATOM      3  C   UNL     1       6.501  -1.838  24.277  0.00  0.00    +0.340 C 
ATOM      4  C   UNL     1       6.546  -2.498  22.881  0.00  0.00    +0.214 C 
ATOM      5  C   UNL     1       7.220  -3.862  23.031  0.00  0.00    +0.180 C 
ATOM      6  C   UNL     1       8.647  -3.697  23.583  0.00  0.00    +0.177 C 
ENDROOT
BRANCH   4   7
ATOM      7  O   UNL     1       7.288  -1.707  21.928  0.00  0.00    -0.383 OA
ATOM      8  H   UNL     1       6.658  -1.097  21.500  0.00  0.00    +0.210 HD
ENDBRANCH   4   7
BRANCH   6   9
ATOM      9  O   UNL     1       9.484  -2.993  22.651  0.00  0.00    -0.386 OA
ATOM     10  H   UNL     1      10.087  -2.418  23.164  0.00  0.00    +0.210 HD
ENDBRANCH   6   9
BRANCH   5  11
ATOM     11  O   UNL     1       7.228  -4.549  21.779  0.00  0.00    -0.386 OA
ATOM     12  H   UNL     1       7.181  -3.854  21.092  0.00  0.00    +0.210 HD
ENDBRANCH   5  11
BRANCH   3  13
ATOM     13  O   UNL     1       5.969  -0.501  24.127  0.00  0.00    -0.453 OA
BRANCH  13  14
ATOM     14  C   UNL     1       6.721   0.641  24.409  0.00  0.00    +0.214 A 
ATOM     15  C   UNL     1       7.552   1.322  23.406  0.00  0.00    +0.238 A 
ATOM     16  O   UNL     1       7.573   1.055  22.213  0.00  0.00    -0.283 OA
ATOM     17  C   UNL     1       8.366   2.453  23.882  0.00  0.00    +0.109 A 
ATOM     18  C   UNL     1       8.017   3.155  25.009  0.00  0.00    +0.147 A 
ATOM     19  C   UNL     1       8.549   4.429  25.272  0.00  0.00    +0.092 A 
ATOM     20  C   UNL     1       9.536   4.913  24.426  0.00  0.00    +0.124 A 
ATOM     21  C   UNL     1      10.075   4.079  23.457  0.00  0.00    +0.091 A 
ATOM     22  O   UNL     1       7.143   2.592  25.859  0.00  0.00    -0.451 OA
ATOM     23  C   UNL     1       9.444   2.869  23.153  0.00  0.00    +0.135 A 
ATOM     24  C   UNL     1       6.607   1.347  25.553  0.00  0.00    +0.181 A 
BRANCH  24  25
ATOM     25  C   UNL     1       5.596   1.077  26.552  0.00  0.00    +0.025 A 
ATOM     26  C   UNL     1       5.987   0.072  27.446  0.00  0.00    +0.015 A 
ATOM     27  C   UNL     1       5.032  -0.693  28.076  0.00  0.00    +0.050 A 
ATOM     28  C   UNL     1       3.705  -0.297  27.981  0.00  0.00    +0.158 A 
ATOM     29  C   UNL     1       3.313   0.766  27.161  0.00  0.00    +0.159 A 
ATOM     30  C   UNL     1       4.251   1.412  26.370  0.00  0.00    +0.060 A 
BRANCH  29  31
ATOM     31  O   UNL     1       2.008   1.166  27.141  0.00  0.00    -0.503 OA
ATOM     32  H   UNL     1       1.700   1.183  26.220  0.00  0.00    +0.292 HD
ENDBRANCH  29  31
BRANCH  28  33
ATOM     33  O   UNL     1       2.797  -0.944  28.761  0.00  0.00    -0.503 OA
ATOM     34  H   UNL     1       2.599  -0.321  29.481  0.00  0.00    +0.292 HD
ENDBRANCH  28  33
ENDBRANCH  24  25
BRANCH  23  35
ATOM     35  O   UNL     1       9.784   2.170  22.034  0.00  0.00    -0.506 OA
ATOM     36  H   UNL     1      10.701   1.823  22.170  0.00  0.00    +0.292 HD
ENDBRANCH  23  35
BRANCH  20  37
ATOM     37  O   UNL     1       9.989   6.197  24.445  0.00  0.00    -0.507 OA
ATOM     38  H   UNL     1       9.847   6.609  25.313  0.00  0.00    +0.292 HD
ENDBRANCH  20  37
ENDBRANCH  13  14
ENDBRANCH   3  13
BRANCH   1  39
ATOM     39  C   UNL     1       8.356  -3.963  26.098  0.00  0.00    +0.197 C 
BRANCH  39  40
ATOM     40  O   UNL     1       7.564  -3.516  27.195  0.00  0.00    -0.346 OA
BRANCH  40  44
ATOM     41  C   UNL     1       4.402  -4.559  29.940  0.00  0.00    +0.041 C 
ATOM     42  C   UNL     1       5.245  -5.561  29.152  0.00  0.00    +0.149 C 
ATOM     43  O   UNL     1       6.426  -4.927  28.617  0.00  0.00    -0.343 OA
ATOM     44  C   UNL     1       6.266  -4.050  27.480  0.00  0.00    +0.282 C 
ATOM     45  C   UNL     1       5.589  -4.866  26.354  0.00  0.00    +0.202 C 
ATOM     46  C   UNL     1       4.226  -5.378  26.882  0.00  0.00    +0.186 C 
ATOM     47  C   UNL     1       4.411  -6.293  28.093  0.00  0.00    +0.174 C 
BRANCH  47  48
ATOM     48  O   UNL     1       5.023  -7.536  27.732  0.00  0.00    -0.387 OA
ATOM     49  H   UNL     1       5.297  -7.472  26.793  0.00  0.00    +0.210 HD
ENDBRANCH  47  48
BRANCH  45  50
ATOM     50  O   UNL     1       6.403  -5.987  25.947  0.00  0.00    -0.384 OA
ATOM     51  H   UNL     1       5.857  -6.528  25.343  0.00  0.00    +0.210 HD
ENDBRANCH  45  50
BRANCH  46  52
ATOM     52  O   UNL     1       3.504  -5.980  25.808  0.00  0.00    -0.340 OA
BRANCH  52  53
ATOM     53  C   UNL     1       2.116  -5.627  25.652  0.00  0.00    +0.282 C 
ATOM     54  O   UNL     1       1.415  -6.804  25.157  0.00  0.00    -0.341 OA
ATOM     55  C   UNL     1       1.998  -7.226  23.918  0.00  0.00    +0.178 C 
ATOM     56  C   UNL     1       1.809  -6.082  22.907  0.00  0.00    +0.177 C 
ATOM     57  C   UNL     1       2.398  -4.742  23.307  0.00  0.00    +0.179 C 
ATOM     58  C   UNL     1       1.894  -4.406  24.697  0.00  0.00    +0.201 C 
BRANCH  58  59
ATOM     59  O   UNL     1       2.514  -3.187  25.127  0.00  0.00    -0.384 OA
ATOM     60  H   UNL     1       3.452  -3.398  25.319  0.00  0.00    +0.210 HD
ENDBRANCH  58  59
BRANCH  57  61
ATOM     61  O   UNL     1       3.822  -4.631  23.221  0.00  0.00    -0.386 OA
ATOM     62  H   UNL     1       4.169  -5.276  22.572  0.00  0.00    +0.210 HD
ENDBRANCH  57  61
BRANCH  56  63
ATOM     63  O   UNL     1       0.443  -5.892  22.542  0.00  0.00    -0.386 OA
ATOM     64  H   UNL     1       0.323  -4.928  22.434  0.00  0.00    +0.210 HD
ENDBRANCH  56  63
BRANCH  55  65
ATOM     65  C   UNL     1       1.522  -8.591  23.337  0.00  0.00    +0.190 C 
BRANCH  65  66
ATOM     66  O   UNL     1       1.451  -8.621  21.911  0.00  0.00    -0.392 OA
ATOM     67  H   UNL     1       0.955  -9.418  21.657  0.00  0.00    +0.210 HD
ENDBRANCH  65  66
ENDBRANCH  55  65
ENDBRANCH  52  53
ENDBRANCH  46  52
ENDBRANCH  40  44
ENDBRANCH  39  40
ENDBRANCH   1  39
TORSDOF 22
ENDMDL
MODEL 8
REMARK VINA RESULT:      -6.1      2.100      8.664
REMARK  Name = 
REMARK  23 active torsions:
REMARK  status: ('A' for Active; 'I' for Inactive)
REMARK    1  A    between atoms: C_1  and  C_2
REMARK    2  A    between atoms: C_3  and  O_62
REMARK    3  A    between atoms: C_5  and  O_47
REMARK    4  A    between atoms: C_7  and  O_46
REMARK    5  A    between atoms: C_8  and  O_11
REMARK    6  A    between atoms: O_11  and  C_12
REMARK    7  A    between atoms: C_12  and  C_13
REMARK    8  A    between atoms: C_14  and  O_45
REMARK    9  A    between atoms: C_16  and  O_44
REMARK   10  A    between atoms: C_17  and  O_43
REMARK   11  A    between atoms: C_18  and  O_21
REMARK   12  A    between atoms: O_21  and  C_22
REMARK   13  A    between atoms: C_23  and  C_35
REMARK   14  A    between atoms: C_27  and  O_34
REMARK   15  A    between atoms: C_29  and  O_33
REMARK   16  A    between atoms: C_37  and  O_42
REMARK   17  A    between atoms: C_38  and  O_41
REMARK   18  A    between atoms: O_47  and  C_48
REMARK   19  A    between atoms: C_50  and  O_61
REMARK   20  A    between atoms: C_51  and  O_60
REMARK   21  A    between atoms: C_53  and  O_59
REMARK   22  A    between atoms: C_55  and  C_57
REMARK   23  A    between atoms: C_57  and  O_58
REMARK                            x       y       z     vdW  Elec       q    Type
REMARK                         _______ _______ _______ _____ _____    ______ ____
ROOT
ATOM      1  C   UNL     1       4.046   1.174  26.738  0.00  0.00    +0.179 C 
ATOM      2  O   UNL     1       5.002   1.226  25.651  0.00  0.00    -0.331 OA
ATOM      3  C   UNL     1       5.539   2.505  25.256  0.00  0.00    +0.340 C 
ATOM      4  C   UNL     1       4.446   3.576  25.047  0.00  0.00    +0.214 C 
ATOM      5  C   UNL     1       3.613   3.650  26.327  0.00  0.00    +0.180 C 
ATOM      6  C   UNL     1       2.965   2.285  26.623  0.00  0.00    +0.177 C 
ENDROOT
BRANCH   4   7
ATOM      7  O   UNL     1       3.578   3.261  23.937  0.00  0.00    -0.383 OA
ATOM      8  H   UNL     1       2.692   3.607  24.151  0.00  0.00    +0.210 HD
ENDBRANCH   4   7
BRANCH   6   9
ATOM      9  O   UNL     1       2.014   1.933  25.605  0.00  0.00    -0.386 OA
ATOM     10  H   UNL     1       1.195   1.635  26.050  0.00  0.00    +0.210 HD
ENDBRANCH   6   9
BRANCH   5  11
ATOM     11  O   UNL     1       2.626   4.676  26.215  0.00  0.00    -0.386 OA
ATOM     12  H   UNL     1       3.072   5.507  26.473  0.00  0.00    +0.210 HD
ENDBRANCH   5  11
BRANCH   3  13
ATOM     13  O   UNL     1       6.260   2.347  24.012  0.00  0.00    -0.453 OA
BRANCH  13  14
ATOM     14  C   UNL     1       7.554   2.840  23.828  0.00  0.00    +0.214 A 
ATOM     15  C   UNL     1       7.918   4.244  24.066  0.00  0.00    +0.238 A 
ATOM     16  O   UNL     1       7.186   5.085  24.567  0.00  0.00    -0.283 OA
ATOM     17  C   UNL     1       9.298   4.632  23.728  0.00  0.00    +0.109 A 
ATOM     18  C   UNL     1      10.309   3.704  23.692  0.00  0.00    +0.147 A 
ATOM     19  C   UNL     1      11.659   4.091  23.735  0.00  0.00    +0.092 A 
ATOM     20  C   UNL     1      11.954   5.446  23.690  0.00  0.00    +0.124 A 
ATOM     21  C   UNL     1      10.937   6.358  23.446  0.00  0.00    +0.091 A 
ATOM     22  O   UNL     1       9.973   2.407  23.619  0.00  0.00    -0.451 OA
ATOM     23  C   UNL     1       9.603   5.948  23.525  0.00  0.00    +0.135 A 
ATOM     24  C   UNL     1       8.629   2.054  23.615  0.00  0.00    +0.181 A 
BRANCH  24  25
ATOM     25  C   UNL     1       8.582   0.610  23.691  0.00  0.00    +0.025 A 
ATOM     26  C   UNL     1       9.000   0.128  24.937  0.00  0.00    +0.015 A 
ATOM     27  C   UNL     1       9.542  -1.132  25.037  0.00  0.00    +0.050 A 
ATOM     28  C   UNL     1       9.452  -1.975  23.939  0.00  0.00    +0.158 A 
ATOM     29  C   UNL     1       8.951  -1.531  22.711  0.00  0.00    +0.159 A 
ATOM     30  C   UNL     1       8.587  -0.202  22.553  0.00  0.00    +0.060 A 
BRANCH  29  31
ATOM     31  O   UNL     1       8.820  -2.406  21.672  0.00  0.00    -0.503 OA
ATOM     32  H   UNL     1       9.508  -2.215  21.014  0.00  0.00    +0.292 HD
ENDBRANCH  29  31
BRANCH  28  33
ATOM     33  O   UNL     1       9.817  -3.275  24.110  0.00  0.00    -0.503 OA
ATOM     34  H   UNL     1      10.405  -3.470  23.361  0.00  0.00    +0.292 HD
ENDBRANCH  28  33
ENDBRANCH  24  25
BRANCH  23  35
ATOM     35  O   UNL     1       8.596   6.865  23.565  0.00  0.00    -0.506 OA
ATOM     36  H   UNL     1       8.631   7.380  22.720  0.00  0.00    +0.292 HD
ENDBRANCH  23  35
BRANCH  20  37
ATOM     37  O   UNL     1      13.192   5.962  23.923  0.00  0.00    -0.507 OA
ATOM     38  H   UNL     1      13.149   6.912  24.116  0.00  0.00    +0.292 HD
ENDBRANCH  20  37
ENDBRANCH  13  14
ENDBRANCH   3  13
BRANCH   1  39
ATOM     39  C   UNL     1       4.622   1.157  28.192  0.00  0.00    +0.197 C 
BRANCH  39  40
ATOM     40  O   UNL     1       4.971  -0.109  28.746  0.00  0.00    -0.346 OA
BRANCH  40  44
ATOM     41  C   UNL     1       2.786  -3.827  28.902  0.00  0.00    +0.041 C 
ATOM     42  C   UNL     1       4.310  -3.706  28.881  0.00  0.00    +0.149 C 
ATOM     43  O   UNL     1       4.720  -2.356  29.189  0.00  0.00    -0.343 OA
ATOM     44  C   UNL     1       4.548  -1.349  28.166  0.00  0.00    +0.282 C 
ATOM     45  C   UNL     1       5.314  -1.825  26.910  0.00  0.00    +0.202 C 
ATOM     46  C   UNL     1       4.726  -3.190  26.476  0.00  0.00    +0.186 C 
ATOM     47  C   UNL     1       4.903  -4.242  27.573  0.00  0.00    +0.174 C 
BRANCH  47  48
ATOM     48  O   UNL     1       6.277  -4.604  27.745  0.00  0.00    -0.387 OA
ATOM     49  H   UNL     1       6.470  -4.592  28.706  0.00  0.00    +0.210 HD
ENDBRANCH  47  48
BRANCH  45  50
ATOM     50  O   UNL     1       6.726  -1.966  27.171  0.00  0.00    -0.384 OA
ATOM     51  H   UNL     1       7.195  -1.592  26.397  0.00  0.00    +0.210 HD
ENDBRANCH  45  50
BRANCH  46  52
ATOM     52  O   UNL     1       5.292  -3.565  25.220  0.00  0.00    -0.340 OA
BRANCH  52  53
ATOM     53  C   UNL     1       4.401  -3.686  24.093  0.00  0.00    +0.282 C 
ATOM     54  O   UNL     1       3.703  -4.957  24.218  0.00  0.00    -0.341 OA
ATOM     55  C   UNL     1       4.655  -6.028  24.259  0.00  0.00    +0.178 C 
ATOM     56  C   UNL     1       5.418  -6.016  22.923  0.00  0.00    +0.177 C 
ATOM     57  C   UNL     1       6.133  -4.721  22.580  0.00  0.00    +0.179 C 
ATOM     58  C   UNL     1       5.135  -3.587  22.713  0.00  0.00    +0.201 C 
BRANCH  58  59
ATOM     59  O   UNL     1       5.818  -2.348  22.483  0.00  0.00    -0.384 OA
ATOM     60  H   UNL     1       6.646  -2.564  22.004  0.00  0.00    +0.210 HD
ENDBRANCH  58  59
BRANCH  57  61
ATOM     61  O   UNL     1       7.335  -4.456  23.311  0.00  0.00    -0.386 OA
ATOM     62  H   UNL     1       7.576  -3.512  23.226  0.00  0.00    +0.210 HD
ENDBRANCH  57  61
BRANCH  56  63
ATOM     63  O   UNL     1       4.598  -6.393  21.818  0.00  0.00    -0.386 OA
ATOM     64  H   UNL     1       5.032  -6.029  21.022  0.00  0.00    +0.210 HD
ENDBRANCH  56  63
BRANCH  55  65
ATOM     65  C   UNL     1       4.114  -7.449  24.599  0.00  0.00    +0.190 C 
BRANCH  65  66
ATOM     66  O   UNL     1       3.067  -7.892  23.735  0.00  0.00    -0.392 OA
ATOM     67  H   UNL     1       3.282  -8.797  23.452  0.00  0.00    +0.210 HD
ENDBRANCH  65  66
ENDBRANCH  55  65
ENDBRANCH  52  53
ENDBRANCH  46  52
ENDBRANCH  40  44
ENDBRANCH  39  40
ENDBRANCH   1  39
TORSDOF 22
ENDMDL
MODEL 9
REMARK VINA RESULT:      -5.9      2.139      8.610
REMARK  Name = 
REMARK  23 active torsions:
REMARK  status: ('A' for Active; 'I' for Inactive)
REMARK    1  A    between atoms: C_1  and  C_2
REMARK    2  A    between atoms: C_3  and  O_62
REMARK    3  A    between atoms: C_5  and  O_47
REMARK    4  A    between atoms: C_7  and  O_46
REMARK    5  A    between atoms: C_8  and  O_11
REMARK    6  A    between atoms: O_11  and  C_12
REMARK    7  A    between atoms: C_12  and  C_13
REMARK    8  A    between atoms: C_14  and  O_45
REMARK    9  A    between atoms: C_16  and  O_44
REMARK   10  A    between atoms: C_17  and  O_43
REMARK   11  A    between atoms: C_18  and  O_21
REMARK   12  A    between atoms: O_21  and  C_22
REMARK   13  A    between atoms: C_23  and  C_35
REMARK   14  A    between atoms: C_27  and  O_34
REMARK   15  A    between atoms: C_29  and  O_33
REMARK   16  A    between atoms: C_37  and  O_42
REMARK   17  A    between atoms: C_38  and  O_41
REMARK   18  A    between atoms: O_47  and  C_48
REMARK   19  A    between atoms: C_50  and  O_61
REMARK   20  A    between atoms: C_51  and  O_60
REMARK   21  A    between atoms: C_53  and  O_59
REMARK   22  A    between atoms: C_55  and  C_57
REMARK   23  A    between atoms: C_57  and  O_58
REMARK                            x       y       z     vdW  Elec       q    Type
REMARK                         _______ _______ _______ _____ _____    ______ ____
ROOT
ATOM      1  C   UNL     1       4.101  -0.222  26.810  0.00  0.00    +0.179 C 
ATOM      2  O   UNL     1       4.823   0.242  25.642  0.00  0.00    -0.331 OA
ATOM      3  C   UNL     1       5.273   1.612  25.601  0.00  0.00    +0.340 C 
ATOM      4  C   UNL     1       4.162   2.620  25.968  0.00  0.00    +0.214 C 
ATOM      5  C   UNL     1       3.598   2.219  27.331  0.00  0.00    +0.180 C 
ATOM      6  C   UNL     1       3.020   0.794  27.274  0.00  0.00    +0.177 C 
ENDROOT
BRANCH   4   7
ATOM      7  O   UNL     1       3.091   2.628  24.999  0.00  0.00    -0.383 OA
ATOM      8  H   UNL     1       3.454   2.289  24.159  0.00  0.00    +0.210 HD
ENDBRANCH   4   7
BRANCH   6   9
ATOM      9  O   UNL     1       1.886   0.731  26.394  0.00  0.00    -0.386 OA
ATOM     10  H   UNL     1       1.584  -0.199  26.360  0.00  0.00    +0.210 HD
ENDBRANCH   6   9
BRANCH   5  11
ATOM     11  O   UNL     1       2.610   3.160  27.753  0.00  0.00    -0.386 OA
ATOM     12  H   UNL     1       2.123   3.418  26.945  0.00  0.00    +0.210 HD
ENDBRANCH   5  11
BRANCH   3  13
ATOM     13  O   UNL     1       5.734   1.914  24.264  0.00  0.00    -0.453 OA
BRANCH  13  14
ATOM     14  C   UNL     1       7.003   2.438  24.008  0.00  0.00    +0.214 A 
ATOM     15  C   UNL     1       7.338   3.856  24.195  0.00  0.00    +0.238 A 
ATOM     16  O   UNL     1       6.605   4.690  24.708  0.00  0.00    -0.283 OA
ATOM     17  C   UNL     1       8.690   4.274  23.785  0.00  0.00    +0.109 A 
ATOM     18  C   UNL     1       9.724   3.373  23.726  0.00  0.00    +0.147 A 
ATOM     19  C   UNL     1      11.063   3.797  23.697  0.00  0.00    +0.092 A 
ATOM     20  C   UNL     1      11.317   5.158  23.605  0.00  0.00    +0.124 A 
ATOM     21  C   UNL     1      10.265   6.035  23.386  0.00  0.00    +0.091 A 
ATOM     22  O   UNL     1       9.421   2.065  23.699  0.00  0.00    -0.451 OA
ATOM     23  C   UNL     1       8.948   5.591  23.536  0.00  0.00    +0.135 A 
ATOM     24  C   UNL     1       8.090   1.676  23.766  0.00  0.00    +0.181 A 
BRANCH  24  25
ATOM     25  C   UNL     1       8.086   0.234  23.879  0.00  0.00    +0.025 A 
ATOM     26  C   UNL     1       9.108  -0.237  24.713  0.00  0.00    +0.015 A 
ATOM     27  C   UNL     1       9.616  -1.503  24.526  0.00  0.00    +0.050 A 
ATOM     28  C   UNL     1       8.947  -2.358  23.662  0.00  0.00    +0.158 A 
ATOM     29  C   UNL     1       7.865  -1.924  22.890  0.00  0.00    +0.159 A 
ATOM     30  C   UNL     1       7.476  -0.593  22.930  0.00  0.00    +0.060 A 
BRANCH  29  31
ATOM     31  O   UNL     1       7.193  -2.809  22.098  0.00  0.00    -0.503 OA
ATOM     32  H   UNL     1       6.239  -2.666  22.208  0.00  0.00    +0.292 HD
ENDBRANCH  29  31
BRANCH  28  33
ATOM     33  O   UNL     1       9.342  -3.660  23.632  0.00  0.00    -0.503 OA
ATOM     34  H   UNL     1       9.480  -3.900  24.564  0.00  0.00    +0.292 HD
ENDBRANCH  28  33
ENDBRANCH  24  25
BRANCH  23  35
ATOM     35  O   UNL     1       7.918   6.482  23.600  0.00  0.00    -0.506 OA
ATOM     36  H   UNL     1       7.088   5.963  23.750  0.00  0.00    +0.292 HD
ENDBRANCH  23  35
BRANCH  20  37
ATOM     37  O   UNL     1      12.549   5.713  23.769  0.00  0.00    -0.507 OA
ATOM     38  H   UNL     1      12.903   6.042  22.928  0.00  0.00    +0.292 HD
ENDBRANCH  20  37
ENDBRANCH  13  14
ENDBRANCH   3  13
BRANCH   1  39
ATOM     39  C   UNL     1       4.954  -0.674  28.040  0.00  0.00    +0.197 C 
BRANCH  39  40
ATOM     40  O   UNL     1       4.342  -1.564  28.972  0.00  0.00    -0.346 OA
BRANCH  40  44
ATOM     41  C   UNL     1       3.363  -5.571  30.237  0.00  0.00    +0.041 C 
ATOM     42  C   UNL     1       4.762  -5.091  29.853  0.00  0.00    +0.149 C 
ATOM     43  O   UNL     1       4.819  -3.648  29.829  0.00  0.00    -0.343 OA
ATOM     44  C   UNL     1       4.195  -2.966  28.719  0.00  0.00    +0.282 C 
ATOM     45  C   UNL     1       4.836  -3.508  27.419  0.00  0.00    +0.202 C 
ATOM     46  C   UNL     1       4.594  -5.036  27.364  0.00  0.00    +0.186 C 
ATOM     47  C   UNL     1       5.248  -5.742  28.553  0.00  0.00    +0.174 C 
BRANCH  47  48
ATOM     48  O   UNL     1       6.677  -5.711  28.469  0.00  0.00    -0.387 OA
ATOM     49  H   UNL     1       6.962  -6.493  27.950  0.00  0.00    +0.210 HD
ENDBRANCH  47  48
BRANCH  45  50
ATOM     50  O   UNL     1       6.253  -3.239  27.375  0.00  0.00    -0.384 OA
ATOM     51  H   UNL     1       6.672  -3.821  28.041  0.00  0.00    +0.210 HD
ENDBRANCH  45  50
BRANCH  46  52
ATOM     52  O   UNL     1       5.018  -5.531  26.094  0.00  0.00    -0.340 OA
BRANCH  52  53
ATOM     53  C   UNL     1       4.297  -6.648  25.535  0.00  0.00    +0.282 C 
ATOM     54  O   UNL     1       5.034  -7.107  24.367  0.00  0.00    -0.341 OA
ATOM     55  C   UNL     1       5.162  -6.034  23.425  0.00  0.00    +0.178 C 
ATOM     56  C   UNL     1       3.743  -5.636  22.985  0.00  0.00    +0.177 C 
ATOM     57  C   UNL     1       2.798  -5.218  24.097  0.00  0.00    +0.179 C 
ATOM     58  C   UNL     1       2.817  -6.300  25.159  0.00  0.00    +0.201 C 
BRANCH  58  59
ATOM     59  O   UNL     1       2.000  -5.877  26.258  0.00  0.00    -0.384 OA
ATOM     60  H   UNL     1       1.067  -5.985  25.977  0.00  0.00    +0.210 HD
ENDBRANCH  58  59
BRANCH  57  61
ATOM     61  O   UNL     1       3.026  -3.922  24.660  0.00  0.00    -0.386 OA
ATOM     62  H   UNL     1       2.277  -3.671  25.236  0.00  0.00    +0.210 HD
ENDBRANCH  57  61
BRANCH  56  63
ATOM     63  O   UNL     1       3.109  -6.644  22.199  0.00  0.00    -0.386 OA
ATOM     64  H   UNL     1       3.382  -7.499  22.585  0.00  0.00    +0.210 HD
ENDBRANCH  56  63
BRANCH  55  65
ATOM     65  C   UNL     1       6.099  -6.269  22.203  0.00  0.00    +0.190 C 
BRANCH  65  66
ATOM     66  O   UNL     1       5.802  -5.441  21.078  0.00  0.00    -0.392 OA
ATOM     67  H   UNL     1       4.853  -5.228  21.111  0.00  0.00    +0.210 HD
ENDBRANCH  65  66
ENDBRANCH  55  65
ENDBRANCH  52  53
ENDBRANCH  46  52
ENDBRANCH  40  44
ENDBRANCH  39  40
ENDBRANCH   1  39
TORSDOF 22
ENDMDL
