MODEL 1
REMARK VINA RESULT:      -7.2      0.000      0.000
REMARK  Name = 
REMARK  12 active torsions:
REMARK  status: ('A' for Active; 'I' for Inactive)
REMARK    1  A    between atoms: C_3  and  O_34
REMARK    2  A    between atoms: C_4  and  O_33
REMARK    3  A    between atoms: C_6  and  C_7
REMARK    4  A    between atoms: C_8  and  O_20
REMARK    5  A    between atoms: C_12  and  O_19
REMARK    6  A    between atoms: C_14  and  O_18
REMARK    7  A    between atoms: O_20  and  C_21
REMARK    8  A    between atoms: C_22  and  O_32
REMARK    9  A    between atoms: C_23  and  O_31
REMARK   10  A    between atoms: C_24  and  O_30
REMARK   11  A    between atoms: C_25  and  C_27
REMARK   12  A    between atoms: C_27  and  O_29
REMARK                            x       y       z     vdW  Elec       q    Type
REMARK                         _______ _______ _______ _____ _____    ______ ____
ROOT
ATOM      1  C   UNL     1       7.650  -1.457  23.849  0.00  0.00    +0.181 A 
ATOM      2  O   UNL     1       7.788  -2.592  23.084  0.00  0.00    -0.451 OA
ATOM      3  C   UNL     1       6.750  -3.489  23.053  0.00  0.00    +0.147 A 
ATOM      4  C   UNL     1       5.578  -3.313  23.785  0.00  0.00    +0.109 A 
ATOM      5  C   UNL     1       4.577  -4.299  23.702  0.00  0.00    +0.135 A 
ATOM      6  C   UNL     1       4.734  -5.413  22.873  0.00  0.00    +0.091 A 
ATOM      7  C   UNL     1       5.903  -5.548  22.133  0.00  0.00    +0.124 A 
ATOM      8  C   UNL     1       5.433  -2.066  24.597  0.00  0.00    +0.238 A 
ATOM      9  O   UNL     1       4.409  -1.866  25.257  0.00  0.00    -0.283 OA
ATOM     10  C   UNL     1       6.917  -4.604  22.232  0.00  0.00    +0.092 A 
ATOM     11  C   UNL     1       6.564  -1.087  24.554  0.00  0.00    +0.214 A 
ENDROOT
BRANCH   1  13
ATOM     12  C   UNL     1       9.641  -0.274  24.825  0.00  0.00    +0.015 A 
ATOM     13  C   UNL     1       8.776  -0.526  23.748  0.00  0.00    +0.025 A 
ATOM     14  C   UNL     1       8.878   0.236  22.579  0.00  0.00    +0.060 A 
ATOM     15  C   UNL     1       9.774   1.285  22.531  0.00  0.00    +0.159 A 
ATOM     16  C   UNL     1      10.583   1.587  23.623  0.00  0.00    +0.158 A 
ATOM     17  C   UNL     1      10.546   0.791  24.768  0.00  0.00    +0.050 A 
BRANCH  15  18
ATOM     18  O   UNL     1       9.819   2.045  21.402  0.00  0.00    -0.503 OA
ATOM     19  H   UNL     1      10.330   2.838  21.659  0.00  0.00    +0.292 HD
ENDBRANCH  15  18
BRANCH  16  20
ATOM     20  O   UNL     1      11.377   2.695  23.538  0.00  0.00    -0.503 OA
ATOM     21  H   UNL     1      11.796   2.842  24.405  0.00  0.00    +0.292 HD
ENDBRANCH  16  20
ENDBRANCH   1  13
BRANCH   5  22
ATOM     22  O   UNL     1       3.413  -4.246  24.416  0.00  0.00    -0.506 OA
ATOM     23  H   UNL     1       2.668  -4.510  23.835  0.00  0.00    +0.292 HD
ENDBRANCH   5  22
BRANCH   7  24
ATOM     24  O   UNL     1       6.092  -6.594  21.280  0.00  0.00    -0.507 OA
ATOM     25  H   UNL     1       5.863  -7.424  21.732  0.00  0.00    +0.292 HD
ENDBRANCH   7  24
BRANCH  11  26
ATOM     26  O   UNL     1       6.595   0.023  25.384  0.00  0.00    -0.453 OA
BRANCH  26  27
ATOM     27  C   UNL     1       5.587   1.042  25.232  0.00  0.00    +0.340 C 
ATOM     28  O   UNL     1       5.727   1.773  23.992  0.00  0.00    -0.322 OA
ATOM     29  C   UNL     1       6.930   2.568  23.833  0.00  0.00    +0.261 C 
ATOM     30  C   UNL     1       7.512   3.236  25.102  0.00  0.00    +0.185 C 
ATOM     31  C   UNL     1       7.213   2.470  26.397  0.00  0.00    +0.180 C 
ATOM     32  C   UNL     1       5.723   2.073  26.365  0.00  0.00    +0.214 C 
BRANCH  29  33
ATOM     33  C   UNL     1       6.619   3.677  22.807  0.00  0.00    +0.337 C 
ATOM     34  O   UNL     1       5.498   4.101  22.558  0.00  0.00    -0.248 OA
BRANCH  33  35
ATOM     35  O   UNL     1       7.732   4.150  22.186  0.00  0.00    -0.479 OA
ATOM     36  H   UNL     1       7.734   5.130  22.241  0.00  0.00    +0.295 HD
ENDBRANCH  33  35
ENDBRANCH  29  33
BRANCH  30  37
ATOM     37  O   UNL     1       6.954   4.555  25.294  0.00  0.00    -0.386 OA
ATOM     38  H   UNL     1       6.329   4.497  26.049  0.00  0.00    +0.210 HD
ENDBRANCH  30  37
BRANCH  31  39
ATOM     39  O   UNL     1       7.508   3.345  27.496  0.00  0.00    -0.386 OA
ATOM     40  H   UNL     1       7.246   4.246  27.230  0.00  0.00    +0.210 HD
ENDBRANCH  31  39
BRANCH  32  41
ATOM     41  O   UNL     1       5.220   1.629  27.616  0.00  0.00    -0.383 OA
ATOM     42  H   UNL     1       5.831   1.880  28.337  0.00  0.00    +0.210 HD
ENDBRANCH  32  41
ENDBRANCH  26  27
ENDBRANCH  11  26
TORSDOF 12
ENDMDL
MODEL 2
REMARK VINA RESULT:      -7.1      2.098      7.212
REMARK  Name = 
REMARK  12 active torsions:
REMARK  status: ('A' for Active; 'I' for Inactive)
REMARK    1  A    between atoms: C_3  and  O_34
REMARK    2  A    between atoms: C_4  and  O_33
REMARK    3  A    between atoms: C_6  and  C_7
REMARK    4  A    between atoms: C_8  and  O_20
REMARK    5  A    between atoms: C_12  and  O_19
REMARK    6  A    between atoms: C_14  and  O_18
REMARK    7  A    between atoms: O_20  and  C_21
REMARK    8  A    between atoms: C_22  and  O_32
REMARK    9  A    between atoms: C_23  and  O_31
REMARK   10  A    between atoms: C_24  and  O_30
REMARK   11  A    between atoms: C_25  and  C_27
REMARK   12  A    between atoms: C_27  and  O_29
REMARK                            x       y       z     vdW  Elec       q    Type
REMARK                         _______ _______ _______ _____ _____    ______ ____
ROOT
ATOM      1  C   UNL     1       7.189  -1.386  23.270  0.00  0.00    +0.181 A 
ATOM      2  O   UNL     1       8.219  -0.657  22.722  0.00  0.00    -0.451 OA
ATOM      3  C   UNL     1       8.434   0.617  23.183  0.00  0.00    +0.147 A 
ATOM      4  C   UNL     1       7.637   1.212  24.158  0.00  0.00    +0.109 A 
ATOM      5  C   UNL     1       7.926   2.533  24.552  0.00  0.00    +0.135 A 
ATOM      6  C   UNL     1       9.014   3.221  24.009  0.00  0.00    +0.091 A 
ATOM      7  C   UNL     1       9.809   2.591  23.059  0.00  0.00    +0.124 A 
ATOM      8  C   UNL     1       6.532   0.402  24.758  0.00  0.00    +0.238 A 
ATOM      9  O   UNL     1       5.804   0.888  25.629  0.00  0.00    -0.283 OA
ATOM     10  C   UNL     1       9.515   1.303  22.630  0.00  0.00    +0.092 A 
ATOM     11  C   UNL     1       6.371  -1.003  24.270  0.00  0.00    +0.214 A 
ENDROOT
BRANCH   1  13
ATOM     12  C   UNL     1       6.082  -3.173  21.891  0.00  0.00    +0.015 A 
ATOM     13  C   UNL     1       7.097  -2.760  22.772  0.00  0.00    +0.025 A 
ATOM     14  C   UNL     1       7.967  -3.705  23.324  0.00  0.00    +0.060 A 
ATOM     15  C   UNL     1       7.766  -5.046  23.063  0.00  0.00    +0.159 A 
ATOM     16  C   UNL     1       6.716  -5.468  22.252  0.00  0.00    +0.158 A 
ATOM     17  C   UNL     1       5.885  -4.534  21.633  0.00  0.00    +0.050 A 
BRANCH  15  18
ATOM     18  O   UNL     1       8.594  -5.951  23.655  0.00  0.00    -0.503 OA
ATOM     19  H   UNL     1       9.461  -5.806  23.229  0.00  0.00    +0.292 HD
ENDBRANCH  15  18
BRANCH  16  20
ATOM     20  O   UNL     1       6.521  -6.812  22.114  0.00  0.00    -0.503 OA
ATOM     21  H   UNL     1       5.632  -7.031  22.445  0.00  0.00    +0.292 HD
ENDBRANCH  16  20
ENDBRANCH   1  13
BRANCH   5  22
ATOM     22  O   UNL     1       7.177   3.223  25.463  0.00  0.00    -0.506 OA
ATOM     23  H   UNL     1       7.738   3.905  25.889  0.00  0.00    +0.292 HD
ENDBRANCH   5  22
BRANCH   7  24
ATOM     24  O   UNL     1      10.904   3.203  22.524  0.00  0.00    -0.507 OA
ATOM     25  H   UNL     1      11.146   2.760  21.693  0.00  0.00    +0.292 HD
ENDBRANCH   7  24
BRANCH  11  26
ATOM     26  O   UNL     1       5.291  -1.784  24.649  0.00  0.00    -0.453 OA
BRANCH  26  27
ATOM     27  C   UNL     1       5.083  -2.064  26.047  0.00  0.00    +0.340 C 
ATOM     28  O   UNL     1       6.127  -2.898  26.602  0.00  0.00    -0.322 OA
ATOM     29  C   UNL     1       6.235  -4.247  26.078  0.00  0.00    +0.261 C 
ATOM     30  C   UNL     1       4.922  -4.956  25.670  0.00  0.00    +0.185 C 
ATOM     31  C   UNL     1       3.815  -3.997  25.214  0.00  0.00    +0.180 C 
ATOM     32  C   UNL     1       3.765  -2.835  26.227  0.00  0.00    +0.214 C 
BRANCH  29  33
ATOM     33  C   UNL     1       6.931  -5.106  27.152  0.00  0.00    +0.337 C 
ATOM     34  O   UNL     1       6.614  -5.135  28.335  0.00  0.00    -0.248 OA
BRANCH  33  35
ATOM     35  O   UNL     1       7.957  -5.846  26.655  0.00  0.00    -0.479 OA
ATOM     36  H   UNL     1       8.148  -5.550  25.739  0.00  0.00    +0.295 HD
ENDBRANCH  33  35
ENDBRANCH  29  33
BRANCH  30  37
ATOM     37  O   UNL     1       4.364  -5.691  26.782  0.00  0.00    -0.386 OA
ATOM     38  H   UNL     1       4.427  -5.111  27.572  0.00  0.00    +0.210 HD
ENDBRANCH  30  37
BRANCH  31  39
ATOM     39  O   UNL     1       2.584  -4.735  25.189  0.00  0.00    -0.386 OA
ATOM     40  H   UNL     1       2.003  -4.313  24.529  0.00  0.00    +0.210 HD
ENDBRANCH  31  39
BRANCH  32  41
ATOM     41  O   UNL     1       2.602  -2.027  26.119  0.00  0.00    -0.383 OA
ATOM     42  H   UNL     1       2.552  -1.623  25.230  0.00  0.00    +0.210 HD
ENDBRANCH  32  41
ENDBRANCH  26  27
ENDBRANCH  11  26
TORSDOF 12
ENDMDL
MODEL 3
REMARK VINA RESULT:      -6.9      2.173      7.932
REMARK  Name = 
REMARK  12 active torsions:
REMARK  status: ('A' for Active; 'I' for Inactive)
REMARK    1  A    between atoms: C_3  and  O_34
REMARK    2  A    between atoms: C_4  and  O_33
REMARK    3  A    between atoms: C_6  and  C_7
REMARK    4  A    between atoms: C_8  and  O_20
REMARK    5  A    between atoms: C_12  and  O_19
REMARK    6  A    between atoms: C_14  and  O_18
REMARK    7  A    between atoms: O_20  and  C_21
REMARK    8  A    between atoms: C_22  and  O_32
REMARK    9  A    between atoms: C_23  and  O_31
REMARK   10  A    between atoms: C_24  and  O_30
REMARK   11  A    between atoms: C_25  and  C_27
REMARK   12  A    between atoms: C_27  and  O_29
REMARK                            x       y       z     vdW  Elec       q    Type
REMARK                         _______ _______ _______ _____ _____    ______ ____
ROOT
ATOM      1  C   UNL     1       6.696  -1.173  25.044  0.00  0.00    +0.181 A 
ATOM      2  O   UNL     1       7.293   0.067  25.036  0.00  0.00    -0.451 OA
ATOM      3  C   UNL     1       8.129   0.383  23.995  0.00  0.00    +0.147 A 
ATOM      4  C   UNL     1       8.422  -0.508  22.965  0.00  0.00    +0.109 A 
ATOM      5  C   UNL     1       9.309  -0.097  21.951  0.00  0.00    +0.135 A 
ATOM      6  C   UNL     1       9.852   1.190  21.952  0.00  0.00    +0.091 A 
ATOM      7  C   UNL     1       9.519   2.066  22.978  0.00  0.00    +0.124 A 
ATOM      8  C   UNL     1       7.753  -1.845  22.975  0.00  0.00    +0.238 A 
ATOM      9  O   UNL     1       7.979  -2.663  22.079  0.00  0.00    -0.283 OA
ATOM     10  C   UNL     1       8.677   1.665  24.008  0.00  0.00    +0.092 A 
ATOM     11  C   UNL     1       6.802  -2.125  24.096  0.00  0.00    +0.214 A 
ENDROOT
BRANCH   1  13
ATOM     12  C   UNL     1       5.934  -2.397  27.102  0.00  0.00    +0.015 A 
ATOM     13  C   UNL     1       5.758  -1.380  26.149  0.00  0.00    +0.025 A 
ATOM     14  C   UNL     1       4.581  -0.625  26.144  0.00  0.00    +0.060 A 
ATOM     15  C   UNL     1       3.567  -0.946  27.024  0.00  0.00    +0.159 A 
ATOM     16  C   UNL     1       3.704  -2.002  27.921  0.00  0.00    +0.158 A 
ATOM     17  C   UNL     1       4.901  -2.716  27.990  0.00  0.00    +0.050 A 
BRANCH  15  18
ATOM     18  O   UNL     1       2.409  -0.231  26.965  0.00  0.00    -0.503 OA
ATOM     19  H   UNL     1       1.720  -0.896  26.767  0.00  0.00    +0.292 HD
ENDBRANCH  15  18
BRANCH  16  20
ATOM     20  O   UNL     1       2.627  -2.322  28.696  0.00  0.00    -0.503 OA
ATOM     21  H   UNL     1       2.831  -2.092  29.620  0.00  0.00    +0.292 HD
ENDBRANCH  16  20
ENDBRANCH   1  13
BRANCH   5  22
ATOM     22  O   UNL     1       9.699  -0.909  20.924  0.00  0.00    -0.506 OA
ATOM     23  H   UNL     1      10.605  -0.660  20.644  0.00  0.00    +0.292 HD
ENDBRANCH   5  22
BRANCH   7  24
ATOM     24  O   UNL     1       9.991   3.345  23.007  0.00  0.00    -0.507 OA
ATOM     25  H   UNL     1      10.782   3.409  22.445  0.00  0.00    +0.292 HD
ENDBRANCH   7  24
BRANCH  11  26
ATOM     26  O   UNL     1       6.248  -3.382  24.281  0.00  0.00    -0.453 OA
BRANCH  26  27
ATOM     27  C   UNL     1       4.929  -3.651  23.766  0.00  0.00    +0.340 C 
ATOM     28  O   UNL     1       4.060  -4.239  24.761  0.00  0.00    -0.322 OA
ATOM     29  C   UNL     1       4.423  -5.556  25.251  0.00  0.00    +0.261 C 
ATOM     30  C   UNL     1       5.089  -6.528  24.248  0.00  0.00    +0.185 C 
ATOM     31  C   UNL     1       5.889  -5.825  23.143  0.00  0.00    +0.180 C 
ATOM     32  C   UNL     1       5.024  -4.664  22.613  0.00  0.00    +0.214 C 
BRANCH  29  33
ATOM     33  C   UNL     1       3.139  -6.222  25.784  0.00  0.00    +0.337 C 
ATOM     34  O   UNL     1       2.002  -5.848  25.527  0.00  0.00    -0.248 OA
BRANCH  33  35
ATOM     35  O   UNL     1       3.391  -7.288  26.589  0.00  0.00    -0.479 OA
ATOM     36  H   UNL     1       2.861  -8.053  26.278  0.00  0.00    +0.295 HD
ENDBRANCH  33  35
ENDBRANCH  29  33
BRANCH  30  37
ATOM     37  O   UNL     1       4.095  -7.322  23.561  0.00  0.00    -0.386 OA
ATOM     38  H   UNL     1       4.104  -7.044  22.619  0.00  0.00    +0.210 HD
ENDBRANCH  30  37
BRANCH  31  39
ATOM     39  O   UNL     1       6.162  -6.796  22.121  0.00  0.00    -0.386 OA
ATOM     40  H   UNL     1       6.092  -6.342  21.261  0.00  0.00    +0.210 HD
ENDBRANCH  31  39
BRANCH  32  41
ATOM     41  O   UNL     1       5.491  -4.110  21.392  0.00  0.00    -0.383 OA
ATOM     42  H   UNL     1       6.315  -3.605  21.542  0.00  0.00    +0.210 HD
ENDBRANCH  32  41
ENDBRANCH  26  27
ENDBRANCH  11  26
TORSDOF 12
ENDMDL
MODEL 4
REMARK VINA RESULT:      -6.9      2.872      7.847
REMARK  Name = 
REMARK  12 active torsions:
REMARK  status: ('A' for Active; 'I' for Inactive)
REMARK    1  A    between atoms: C_3  and  O_34
REMARK    2  A    between atoms: C_4  and  O_33
REMARK    3  A    between atoms: C_6  and  C_7
REMARK    4  A    between atoms: C_8  and  O_20
REMARK    5  A    between atoms: C_12  and  O_19
REMARK    6  A    between atoms: C_14  and  O_18
REMARK    7  A    between atoms: O_20  and  C_21
REMARK    8  A    between atoms: C_22  and  O_32
REMARK    9  A    between atoms: C_23  and  O_31
REMARK   10  A    between atoms: C_24  and  O_30
REMARK   11  A    between atoms: C_25  and  C_27
REMARK   12  A    between atoms: C_27  and  O_29
REMARK                            x       y       z     vdW  Elec       q    Type
REMARK                         _______ _______ _______ _____ _____    ______ ____
ROOT
ATOM      1  C   UNL     1       8.658  -2.131  24.532  0.00  0.00    +0.181 A 
ATOM      2  O   UNL     1       9.484  -1.089  24.885  0.00  0.00    -0.451 OA
ATOM      3  C   UNL     1       9.650  -0.056  23.997  0.00  0.00    +0.147 A 
ATOM      4  C   UNL     1       9.042  -0.034  22.744  0.00  0.00    +0.109 A 
ATOM      5  C   UNL     1       9.289   1.062  21.894  0.00  0.00    +0.135 A 
ATOM      6  C   UNL     1      10.093   2.125  22.311  0.00  0.00    +0.091 A 
ATOM      7  C   UNL     1      10.663   2.089  23.578  0.00  0.00    +0.124 A 
ATOM      8  C   UNL     1       8.133  -1.164  22.379  0.00  0.00    +0.238 A 
ATOM      9  O   UNL     1       7.569  -1.181  21.281  0.00  0.00    -0.283 OA
ATOM     10  C   UNL     1      10.461   0.998  24.415  0.00  0.00    +0.092 A 
ATOM     11  C   UNL     1       7.933  -2.238  23.402  0.00  0.00    +0.214 A 
ENDROOT
BRANCH   1  13
ATOM     12  C   UNL     1       9.322  -4.257  25.696  0.00  0.00    +0.015 A 
ATOM     13  C   UNL     1       8.482  -3.137  25.580  0.00  0.00    +0.025 A 
ATOM     14  C   UNL     1       7.342  -3.036  26.385  0.00  0.00    +0.060 A 
ATOM     15  C   UNL     1       7.010  -4.081  27.224  0.00  0.00    +0.159 A 
ATOM     16  C   UNL     1       7.798  -5.227  27.288  0.00  0.00    +0.158 A 
ATOM     17  C   UNL     1       8.979  -5.311  26.549  0.00  0.00    +0.050 A 
BRANCH  15  18
ATOM     18  O   UNL     1       5.867  -3.982  27.958  0.00  0.00    -0.503 OA
ATOM     19  H   UNL     1       5.409  -4.834  27.815  0.00  0.00    +0.292 HD
ENDBRANCH  15  18
BRANCH  16  20
ATOM     20  O   UNL     1       7.360  -6.257  28.069  0.00  0.00    -0.503 OA
ATOM     21  H   UNL     1       7.186  -5.916  28.964  0.00  0.00    +0.292 HD
ENDBRANCH  16  20
ENDBRANCH   1  13
BRANCH   5  22
ATOM     22  O   UNL     1       8.782   1.157  20.629  0.00  0.00    -0.506 OA
ATOM     23  H   UNL     1       8.031   0.534  20.537  0.00  0.00    +0.292 HD
ENDBRANCH   5  22
BRANCH   7  24
ATOM     24  O   UNL     1      11.424   3.117  24.050  0.00  0.00    -0.507 OA
ATOM     25  H   UNL     1      12.276   2.769  24.364  0.00  0.00    +0.292 HD
ENDBRANCH   7  24
BRANCH  11  26
ATOM     26  O   UNL     1       7.233  -3.398  23.109  0.00  0.00    -0.453 OA
BRANCH  26  27
ATOM     27  C   UNL     1       5.800  -3.338  22.972  0.00  0.00    +0.340 C 
ATOM     28  O   UNL     1       5.115  -3.821  24.151  0.00  0.00    -0.322 OA
ATOM     29  C   UNL     1       5.289  -5.224  24.480  0.00  0.00    +0.261 C 
ATOM     30  C   UNL     1       5.429  -6.217  23.301  0.00  0.00    +0.185 C 
ATOM     31  C   UNL     1       6.046  -5.598  22.040  0.00  0.00    +0.180 C 
ATOM     32  C   UNL     1       5.356  -4.239  21.808  0.00  0.00    +0.214 C 
BRANCH  29  33
ATOM     33  C   UNL     1       4.075  -5.654  25.328  0.00  0.00    +0.337 C 
ATOM     34  O   UNL     1       2.907  -5.432  25.036  0.00  0.00    -0.248 OA
BRANCH  33  35
ATOM     35  O   UNL     1       4.430  -6.318  26.460  0.00  0.00    -0.479 OA
ATOM     36  H   UNL     1       3.975  -5.905  27.226  0.00  0.00    +0.295 HD
ENDBRANCH  33  35
ENDBRANCH  29  33
BRANCH  30  37
ATOM     37  O   UNL     1       4.137  -6.720  22.894  0.00  0.00    -0.386 OA
ATOM     38  H   UNL     1       3.868  -7.395  23.555  0.00  0.00    +0.210 HD
ENDBRANCH  30  37
BRANCH  31  39
ATOM     39  O   UNL     1       5.813  -6.507  20.953  0.00  0.00    -0.386 OA
ATOM     40  H   UNL     1       5.933  -6.007  20.124  0.00  0.00    +0.210 HD
ENDBRANCH  31  39
BRANCH  32  41
ATOM     41  O   UNL     1       5.596  -3.684  20.523  0.00  0.00    -0.383 OA
ATOM     42  H   UNL     1       5.114  -4.192  19.839  0.00  0.00    +0.210 HD
ENDBRANCH  32  41
ENDBRANCH  26  27
ENDBRANCH  11  26
TORSDOF 12
ENDMDL
MODEL 5
REMARK VINA RESULT:      -6.8      3.277      7.863
REMARK  Name = 
REMARK  12 active torsions:
REMARK  status: ('A' for Active; 'I' for Inactive)
REMARK    1  A    between atoms: C_3  and  O_34
REMARK    2  A    between atoms: C_4  and  O_33
REMARK    3  A    between atoms: C_6  and  C_7
REMARK    4  A    between atoms: C_8  and  O_20
REMARK    5  A    between atoms: C_12  and  O_19
REMARK    6  A    between atoms: C_14  and  O_18
REMARK    7  A    between atoms: O_20  and  C_21
REMARK    8  A    between atoms: C_22  and  O_32
REMARK    9  A    between atoms: C_23  and  O_31
REMARK   10  A    between atoms: C_24  and  O_30
REMARK   11  A    between atoms: C_25  and  C_27
REMARK   12  A    between atoms: C_27  and  O_29
REMARK                            x       y       z     vdW  Elec       q    Type
REMARK                         _______ _______ _______ _____ _____    ______ ____
ROOT
ATOM      1  C   UNL     1       7.503  -3.070  25.431  0.00  0.00    +0.181 A 
ATOM      2  O   UNL     1       8.440  -2.108  25.729  0.00  0.00    -0.451 OA
ATOM      3  C   UNL     1       9.027  -1.424  24.694  0.00  0.00    +0.147 A 
ATOM      4  C   UNL     1       8.735  -1.684  23.357  0.00  0.00    +0.109 A 
ATOM      5  C   UNL     1       9.404  -0.942  22.364  0.00  0.00    +0.135 A 
ATOM      6  C   UNL     1      10.311   0.063  22.710  0.00  0.00    +0.091 A 
ATOM      7  C   UNL     1      10.560   0.319  24.053  0.00  0.00    +0.124 A 
ATOM      8  C   UNL     1       7.701  -2.719  23.047  0.00  0.00    +0.238 A 
ATOM      9  O   UNL     1       7.407  -2.977  21.876  0.00  0.00    -0.283 OA
ATOM     10  C   UNL     1       9.939  -0.430  25.045  0.00  0.00    +0.092 A 
ATOM     11  C   UNL     1       7.043  -3.396  24.208  0.00  0.00    +0.214 A 
ENDROOT
BRANCH   1  13
ATOM     12  C   UNL     1       7.171  -4.990  27.019  0.00  0.00    +0.015 A 
ATOM     13  C   UNL     1       6.876  -3.679  26.606  0.00  0.00    +0.025 A 
ATOM     14  C   UNL     1       5.845  -2.968  27.228  0.00  0.00    +0.060 A 
ATOM     15  C   UNL     1       5.071  -3.594  28.184  0.00  0.00    +0.159 A 
ATOM     16  C   UNL     1       5.309  -4.918  28.545  0.00  0.00    +0.158 A 
ATOM     17  C   UNL     1       6.382  -5.617  27.989  0.00  0.00    +0.050 A 
BRANCH  15  18
ATOM     18  O   UNL     1       4.039  -2.899  28.738  0.00  0.00    -0.503 OA
ATOM     19  H   UNL     1       3.562  -2.518  27.974  0.00  0.00    +0.292 HD
ENDBRANCH  15  18
BRANCH  16  20
ATOM     20  O   UNL     1       4.447  -5.501  29.428  0.00  0.00    -0.503 OA
ATOM     21  H   UNL     1       4.320  -6.431  29.168  0.00  0.00    +0.292 HD
ENDBRANCH  16  20
ENDBRANCH   1  13
BRANCH   5  22
ATOM     22  O   UNL     1       9.227  -1.152  21.026  0.00  0.00    -0.506 OA
ATOM     23  H   UNL     1       8.503  -1.800  20.896  0.00  0.00    +0.292 HD
ENDBRANCH   5  22
BRANCH   7  24
ATOM     24  O   UNL     1      11.407   1.313  24.447  0.00  0.00    -0.507 OA
ATOM     25  H   UNL     1      11.779   1.748  23.660  0.00  0.00    +0.292 HD
ENDBRANCH   7  24
BRANCH  11  26
ATOM     26  O   UNL     1       6.186  -4.471  24.030  0.00  0.00    -0.453 OA
BRANCH  26  27
ATOM     27  C   UNL     1       4.931  -4.264  23.351  0.00  0.00    +0.340 C 
ATOM     28  O   UNL     1       3.959  -3.594  24.186  0.00  0.00    -0.322 OA
ATOM     29  C   UNL     1       3.504  -4.310  25.364  0.00  0.00    +0.261 C 
ATOM     30  C   UNL     1       3.386  -5.849  25.257  0.00  0.00    +0.185 C 
ATOM     31  C   UNL     1       4.364  -6.477  24.255  0.00  0.00    +0.180 C 
ATOM     32  C   UNL     1       4.321  -5.623  22.971  0.00  0.00    +0.214 C 
BRANCH  29  33
ATOM     33  C   UNL     1       2.118  -3.748  25.740  0.00  0.00    +0.337 C 
ATOM     34  O   UNL     1       1.400  -3.101  24.988  0.00  0.00    -0.248 OA
BRANCH  33  35
ATOM     35  O   UNL     1       1.758  -4.041  27.017  0.00  0.00    -0.479 OA
ATOM     36  H   UNL     1       2.452  -4.605  27.422  0.00  0.00    +0.295 HD
ENDBRANCH  33  35
ENDBRANCH  29  33
BRANCH  30  37
ATOM     37  O   UNL     1       2.069  -6.237  24.808  0.00  0.00    -0.386 OA
ATOM     38  H   UNL     1       2.042  -6.099  23.836  0.00  0.00    +0.210 HD
ENDBRANCH  30  37
BRANCH  31  39
ATOM     39  O   UNL     1       3.931  -7.824  24.014  0.00  0.00    -0.386 OA
ATOM     40  H   UNL     1       4.187  -8.357  24.789  0.00  0.00    +0.210 HD
ENDBRANCH  31  39
BRANCH  32  41
ATOM     41  O   UNL     1       4.935  -6.241  21.850  0.00  0.00    -0.383 OA
ATOM     42  H   UNL     1       5.555  -6.938  22.144  0.00  0.00    +0.210 HD
ENDBRANCH  32  41
ENDBRANCH  26  27
ENDBRANCH  11  26
TORSDOF 12
ENDMDL
MODEL 6
REMARK VINA RESULT:      -6.8      2.282      7.026
REMARK  Name = 
REMARK  12 active torsions:
REMARK  status: ('A' for Active; 'I' for Inactive)
REMARK    1  A    between atoms: C_3  and  O_34
REMARK    2  A    between atoms: C_4  and  O_33
REMARK    3  A    between atoms: C_6  and  C_7
REMARK    4  A    between atoms: C_8  and  O_20
REMARK    5  A    between atoms: C_12  and  O_19
REMARK    6  A    between atoms: C_14  and  O_18
REMARK    7  A    between atoms: O_20  and  C_21
REMARK    8  A    between atoms: C_22  and  O_32
REMARK    9  A    between atoms: C_23  and  O_31
REMARK   10  A    between atoms: C_24  and  O_30
REMARK   11  A    between atoms: C_25  and  C_27
REMARK   12  A    between atoms: C_27  and  O_29
REMARK                            x       y       z     vdW  Elec       q    Type
REMARK                         _______ _______ _______ _____ _____    ______ ____
ROOT
ATOM      1  C   UNL     1       8.371  -0.066  24.010  0.00  0.00    +0.181 A 
ATOM      2  O   UNL     1       9.349   0.692  23.409  0.00  0.00    -0.451 OA
ATOM      3  C   UNL     1       9.451   2.017  23.750  0.00  0.00    +0.147 A 
ATOM      4  C   UNL     1       8.589   2.632  24.655  0.00  0.00    +0.109 A 
ATOM      5  C   UNL     1       8.762   4.003  24.926  0.00  0.00    +0.135 A 
ATOM      6  C   UNL     1       9.801   4.725  24.334  0.00  0.00    +0.091 A 
ATOM      7  C   UNL     1      10.663   4.077  23.457  0.00  0.00    +0.124 A 
ATOM      8  C   UNL     1       7.542   1.793  25.315  0.00  0.00    +0.238 A 
ATOM      9  O   UNL     1       6.760   2.296  26.127  0.00  0.00    -0.283 OA
ATOM     10  C   UNL     1      10.483   2.735  23.148  0.00  0.00    +0.092 A 
ATOM     11  C   UNL     1       7.505   0.340  24.959  0.00  0.00    +0.214 A 
ENDROOT
BRANCH   1  13
ATOM     12  C   UNL     1       7.484  -2.043  22.736  0.00  0.00    +0.015 A 
ATOM     13  C   UNL     1       8.400  -1.483  23.643  0.00  0.00    +0.025 A 
ATOM     14  C   UNL     1       9.280  -2.312  24.345  0.00  0.00    +0.060 A 
ATOM     15  C   UNL     1       9.180  -3.682  24.202  0.00  0.00    +0.159 A 
ATOM     16  C   UNL     1       8.225  -4.247  23.363  0.00  0.00    +0.158 A 
ATOM     17  C   UNL     1       7.390  -3.431  22.598  0.00  0.00    +0.050 A 
BRANCH  15  18
ATOM     18  O   UNL     1      10.012  -4.471  24.937  0.00  0.00    -0.503 OA
ATOM     19  H   UNL     1      10.631  -3.845  25.364  0.00  0.00    +0.292 HD
ENDBRANCH  15  18
BRANCH  16  20
ATOM     20  O   UNL     1       8.121  -5.608  23.342  0.00  0.00    -0.503 OA
ATOM     21  H   UNL     1       7.644  -5.870  22.535  0.00  0.00    +0.292 HD
ENDBRANCH  16  20
ENDBRANCH   1  13
BRANCH   5  22
ATOM     22  O   UNL     1       7.942   4.711  25.758  0.00  0.00    -0.506 OA
ATOM     23  H   UNL     1       7.389   5.319  25.223  0.00  0.00    +0.292 HD
ENDBRANCH   5  22
BRANCH   7  24
ATOM     24  O   UNL     1      11.716   4.725  22.881  0.00  0.00    -0.507 OA
ATOM     25  H   UNL     1      11.904   4.326  22.014  0.00  0.00    +0.292 HD
ENDBRANCH   7  24
BRANCH  11  26
ATOM     26  O   UNL     1       6.485  -0.489  25.397  0.00  0.00    -0.453 OA
BRANCH  26  27
ATOM     27  C   UNL     1       6.529  -1.008  26.741  0.00  0.00    +0.340 C 
ATOM     28  O   UNL     1       6.983  -2.380  26.785  0.00  0.00    -0.322 OA
ATOM     29  C   UNL     1       6.135  -3.372  26.149  0.00  0.00    +0.261 C 
ATOM     30  C   UNL     1       4.606  -3.143  26.214  0.00  0.00    +0.185 C 
ATOM     31  C   UNL     1       4.203  -1.665  26.296  0.00  0.00    +0.180 C 
ATOM     32  C   UNL     1       5.114  -0.995  27.345  0.00  0.00    +0.214 C 
BRANCH  29  33
ATOM     33  C   UNL     1       6.445  -4.733  26.802  0.00  0.00    +0.337 C 
ATOM     34  O   UNL     1       6.810  -4.883  27.961  0.00  0.00    -0.248 OA
BRANCH  33  35
ATOM     35  O   UNL     1       6.274  -5.779  25.951  0.00  0.00    -0.479 OA
ATOM     36  H   UNL     1       6.880  -6.505  26.215  0.00  0.00    +0.295 HD
ENDBRANCH  33  35
ENDBRANCH  29  33
BRANCH  30  37
ATOM     37  O   UNL     1       4.040  -3.764  27.390  0.00  0.00    -0.386 OA
ATOM     38  H   UNL     1       4.286  -3.205  28.159  0.00  0.00    +0.210 HD
ENDBRANCH  30  37
BRANCH  31  39
ATOM     39  O   UNL     1       2.821  -1.613  26.680  0.00  0.00    -0.386 OA
ATOM     40  H   UNL     1       2.294  -1.909  25.915  0.00  0.00    +0.210 HD
ENDBRANCH  31  39
BRANCH  32  41
ATOM     41  O   UNL     1       4.671   0.290  27.755  0.00  0.00    -0.383 OA
ATOM     42  H   UNL     1       3.722   0.262  27.989  0.00  0.00    +0.210 HD
ENDBRANCH  32  41
ENDBRANCH  26  27
ENDBRANCH  11  26
TORSDOF 12
ENDMDL
MODEL 7
REMARK VINA RESULT:      -6.6      2.899      7.766
REMARK  Name = 
REMARK  12 active torsions:
REMARK  status: ('A' for Active; 'I' for Inactive)
REMARK    1  A    between atoms: C_3  and  O_34
REMARK    2  A    between atoms: C_4  and  O_33
REMARK    3  A    between atoms: C_6  and  C_7
REMARK    4  A    between atoms: C_8  and  O_20
REMARK    5  A    between atoms: C_12  and  O_19
REMARK    6  A    between atoms: C_14  and  O_18
REMARK    7  A    between atoms: O_20  and  C_21
REMARK    8  A    between atoms: C_22  and  O_32
REMARK    9  A    between atoms: C_23  and  O_31
REMARK   10  A    between atoms: C_24  and  O_30
REMARK   11  A    between atoms: C_25  and  C_27
REMARK   12  A    between atoms: C_27  and  O_29
REMARK                            x       y       z     vdW  Elec       q    Type
REMARK                         _______ _______ _______ _____ _____    ______ ____
ROOT
ATOM      1  C   UNL     1       6.473  -1.116  25.271  0.00  0.00    +0.181 A 
ATOM      2  O   UNL     1       6.693   0.080  24.629  0.00  0.00    -0.451 OA
ATOM      3  C   UNL     1       7.679   0.140  23.677  0.00  0.00    +0.147 A 
ATOM      4  C   UNL     1       8.485  -0.951  23.356  0.00  0.00    +0.109 A 
ATOM      5  C   UNL     1       9.484  -0.785  22.378  0.00  0.00    +0.135 A 
ATOM      6  C   UNL     1       9.641   0.433  21.712  0.00  0.00    +0.091 A 
ATOM      7  C   UNL     1       8.803   1.495  22.033  0.00  0.00    +0.124 A 
ATOM      8  C   UNL     1       8.223  -2.250  24.048  0.00  0.00    +0.238 A 
ATOM      9  O   UNL     1       8.909  -3.244  23.789  0.00  0.00    -0.283 OA
ATOM     10  C   UNL     1       7.838   1.361  23.023  0.00  0.00    +0.092 A 
ATOM     11  C   UNL     1       7.098  -2.286  25.034  0.00  0.00    +0.214 A 
ENDROOT
BRANCH   1  13
ATOM     12  C   UNL     1       5.420  -0.468  27.459  0.00  0.00    +0.015 A 
ATOM     13  C   UNL     1       5.345  -1.097  26.205  0.00  0.00    +0.025 A 
ATOM     14  C   UNL     1       4.224  -1.865  25.877  0.00  0.00    +0.060 A 
ATOM     15  C   UNL     1       3.239  -2.066  26.824  0.00  0.00    +0.159 A 
ATOM     16  C   UNL     1       3.343  -1.508  28.094  0.00  0.00    +0.158 A 
ATOM     17  C   UNL     1       4.418  -0.677  28.413  0.00  0.00    +0.050 A 
BRANCH  15  18
ATOM     18  O   UNL     1       2.183  -2.862  26.499  0.00  0.00    -0.503 OA
ATOM     19  H   UNL     1       1.907  -2.555  25.613  0.00  0.00    +0.292 HD
ENDBRANCH  15  18
BRANCH  16  20
ATOM     20  O   UNL     1       2.380  -1.825  29.009  0.00  0.00    -0.503 OA
ATOM     21  H   UNL     1       1.627  -2.225  28.539  0.00  0.00    +0.292 HD
ENDBRANCH  16  20
ENDBRANCH   1  13
BRANCH   5  22
ATOM     22  O   UNL     1      10.357  -1.775  22.025  0.00  0.00    -0.506 OA
ATOM     23  H   UNL     1      11.149  -1.724  22.600  0.00  0.00    +0.292 HD
ENDBRANCH   5  22
BRANCH   7  24
ATOM     24  O   UNL     1       8.888   2.693  21.388  0.00  0.00    -0.507 OA
ATOM     25  H   UNL     1       7.993   2.997  21.156  0.00  0.00    +0.292 HD
ENDBRANCH   7  24
BRANCH  11  26
ATOM     26  O   UNL     1       6.870  -3.393  25.835  0.00  0.00    -0.453 OA
BRANCH  26  27
ATOM     27  C   UNL     1       7.045  -4.711  25.279  0.00  0.00    +0.340 C 
ATOM     28  O   UNL     1       5.816  -5.245  24.735  0.00  0.00    -0.322 OA
ATOM     29  C   UNL     1       4.739  -5.498  25.676  0.00  0.00    +0.261 C 
ATOM     30  C   UNL     1       5.135  -5.971  27.095  0.00  0.00    +0.185 C 
ATOM     31  C   UNL     1       6.510  -5.470  27.554  0.00  0.00    +0.180 C 
ATOM     32  C   UNL     1       7.493  -5.682  26.384  0.00  0.00    +0.214 C 
BRANCH  29  33
ATOM     33  C   UNL     1       3.822  -6.569  25.051  0.00  0.00    +0.337 C 
ATOM     34  O   UNL     1       2.639  -6.719  25.327  0.00  0.00    -0.248 OA
BRANCH  33  35
ATOM     35  O   UNL     1       4.464  -7.352  24.146  0.00  0.00    -0.479 OA
ATOM     36  H   UNL     1       5.433  -7.266  24.281  0.00  0.00    +0.295 HD
ENDBRANCH  33  35
ENDBRANCH  29  33
BRANCH  30  37
ATOM     37  O   UNL     1       5.206  -7.412  27.159  0.00  0.00    -0.386 OA
ATOM     38  H   UNL     1       5.765  -7.707  26.407  0.00  0.00    +0.210 HD
ENDBRANCH  30  37
BRANCH  31  39
ATOM     39  O   UNL     1       6.886  -6.233  28.710  0.00  0.00    -0.386 OA
ATOM     40  H   UNL     1       6.926  -5.618  29.466  0.00  0.00    +0.210 HD
ENDBRANCH  31  39
BRANCH  32  41
ATOM     41  O   UNL     1       8.859  -5.552  26.750  0.00  0.00    -0.383 OA
ATOM     42  H   UNL     1       9.431  -5.652  25.963  0.00  0.00    +0.210 HD
ENDBRANCH  32  41
ENDBRANCH  26  27
ENDBRANCH  11  26
TORSDOF 12
ENDMDL
MODEL 8
REMARK VINA RESULT:      -6.5      2.409      6.910
REMARK  Name = 
REMARK  12 active torsions:
REMARK  status: ('A' for Active; 'I' for Inactive)
REMARK    1  A    between atoms: C_3  and  O_34
REMARK    2  A    between atoms: C_4  and  O_33
REMARK    3  A    between atoms: C_6  and  C_7
REMARK    4  A    between atoms: C_8  and  O_20
REMARK    5  A    between atoms: C_12  and  O_19
REMARK    6  A    between atoms: C_14  and  O_18
REMARK    7  A    between atoms: O_20  and  C_21
REMARK    8  A    between atoms: C_22  and  O_32
REMARK    9  A    between atoms: C_23  and  O_31
REMARK   10  A    between atoms: C_24  and  O_30
REMARK   11  A    between atoms: C_25  and  C_27
REMARK   12  A    between atoms: C_27  and  O_29
REMARK                            x       y       z     vdW  Elec       q    Type
REMARK                         _______ _______ _______ _____ _____    ______ ____
ROOT
ATOM      1  C   UNL     1       6.497  -0.118  23.619  0.00  0.00    +0.181 A 
ATOM      2  O   UNL     1       6.972   0.865  22.783  0.00  0.00    -0.451 OA
ATOM      3  C   UNL     1       6.642   2.169  23.051  0.00  0.00    +0.147 A 
ATOM      4  C   UNL     1       5.821   2.536  24.116  0.00  0.00    +0.109 A 
ATOM      5  C   UNL     1       5.523   3.900  24.299  0.00  0.00    +0.135 A 
ATOM      6  C   UNL     1       6.069   4.872  23.457  0.00  0.00    +0.091 A 
ATOM      7  C   UNL     1       6.907   4.478  22.420  0.00  0.00    +0.124 A 
ATOM      8  C   UNL     1       5.326   1.460  25.029  0.00  0.00    +0.238 A 
ATOM      9  O   UNL     1       4.601   1.741  25.989  0.00  0.00    -0.283 OA
ATOM     10  C   UNL     1       7.181   3.134  22.201  0.00  0.00    +0.092 A 
ATOM     11  C   UNL     1       5.761   0.059  24.734  0.00  0.00    +0.214 A 
ENDROOT
BRANCH   1  13
ATOM     12  C   UNL     1       6.157  -2.423  22.677  0.00  0.00    +0.015 A 
ATOM     13  C   UNL     1       6.975  -1.463  23.297  0.00  0.00    +0.025 A 
ATOM     14  C   UNL     1       8.241  -1.826  23.768  0.00  0.00    +0.060 A 
ATOM     15  C   UNL     1       8.638  -3.147  23.694  0.00  0.00    +0.159 A 
ATOM     16  C   UNL     1       7.802  -4.117  23.149  0.00  0.00    +0.158 A 
ATOM     17  C   UNL     1       6.567  -3.758  22.607  0.00  0.00    +0.050 A 
BRANCH  15  18
ATOM     18  O   UNL     1       9.853  -3.486  24.207  0.00  0.00    -0.503 OA
ATOM     19  H   UNL     1      10.476  -2.846  23.809  0.00  0.00    +0.292 HD
ENDBRANCH  15  18
BRANCH  16  20
ATOM     20  O   UNL     1       8.220  -5.416  23.195  0.00  0.00    -0.503 OA
ATOM     21  H   UNL     1       7.628  -5.952  22.638  0.00  0.00    +0.292 HD
ENDBRANCH  16  20
ENDBRANCH   1  13
BRANCH   5  22
ATOM     22  O   UNL     1       4.691   4.359  25.281  0.00  0.00    -0.506 OA
ATOM     23  H   UNL     1       5.226   4.608  26.064  0.00  0.00    +0.292 HD
ENDBRANCH   5  22
BRANCH   7  24
ATOM     24  O   UNL     1       7.497   5.388  21.593  0.00  0.00    -0.507 OA
ATOM     25  H   UNL     1       6.809   5.879  21.112  0.00  0.00    +0.292 HD
ENDBRANCH   7  24
BRANCH  11  26
ATOM     26  O   UNL     1       5.239  -1.024  25.425  0.00  0.00    -0.453 OA
BRANCH  26  27
ATOM     27  C   UNL     1       5.833  -1.407  26.681  0.00  0.00    +0.340 C 
ATOM     28  O   UNL     1       6.537  -2.667  26.594  0.00  0.00    -0.322 OA
ATOM     29  C   UNL     1       5.739  -3.846  26.310  0.00  0.00    +0.261 C 
ATOM     30  C   UNL     1       4.307  -3.890  26.894  0.00  0.00    +0.185 C 
ATOM     31  C   UNL     1       3.671  -2.506  27.080  0.00  0.00    +0.180 C 
ATOM     32  C   UNL     1       4.729  -1.595  27.736  0.00  0.00    +0.214 C 
BRANCH  29  33
ATOM     33  C   UNL     1       6.513  -5.068  26.844  0.00  0.00    +0.337 C 
ATOM     34  O   UNL     1       7.420  -5.014  27.665  0.00  0.00    -0.248 OA
BRANCH  33  35
ATOM     35  O   UNL     1       6.087  -6.240  26.304  0.00  0.00    -0.479 OA
ATOM     36  H   UNL     1       6.833  -6.658  25.821  0.00  0.00    +0.295 HD
ENDBRANCH  33  35
ENDBRANCH  29  33
BRANCH  30  37
ATOM     37  O   UNL     1       4.302  -4.497  28.205  0.00  0.00    -0.386 OA
ATOM     38  H   UNL     1       3.512  -4.156  28.679  0.00  0.00    +0.210 HD
ENDBRANCH  30  37
BRANCH  31  39
ATOM     39  O   UNL     1       2.515  -2.668  27.916  0.00  0.00    -0.386 OA
ATOM     40  H   UNL     1       2.778  -2.433  28.825  0.00  0.00    +0.210 HD
ENDBRANCH  31  39
BRANCH  32  41
ATOM     41  O   UNL     1       4.203  -0.379  28.247  0.00  0.00    -0.383 OA
ATOM     42  H   UNL     1       3.731   0.108  27.543  0.00  0.00    +0.210 HD
ENDBRANCH  32  41
ENDBRANCH  26  27
ENDBRANCH  11  26
TORSDOF 12
ENDMDL
MODEL 9
REMARK VINA RESULT:      -6.5      2.642      4.962
REMARK  Name = 
REMARK  12 active torsions:
REMARK  status: ('A' for Active; 'I' for Inactive)
REMARK    1  A    between atoms: C_3  and  O_34
REMARK    2  A    between atoms: C_4  and  O_33
REMARK    3  A    between atoms: C_6  and  C_7
REMARK    4  A    between atoms: C_8  and  O_20
REMARK    5  A    between atoms: C_12  and  O_19
REMARK    6  A    between atoms: C_14  and  O_18
REMARK    7  A    between atoms: O_20  and  C_21
REMARK    8  A    between atoms: C_22  and  O_32
REMARK    9  A    between atoms: C_23  and  O_31
REMARK   10  A    between atoms: C_24  and  O_30
REMARK   11  A    between atoms: C_25  and  C_27
REMARK   12  A    between atoms: C_27  and  O_29
REMARK                            x       y       z     vdW  Elec       q    Type
REMARK                         _______ _______ _______ _____ _____    ______ ____
ROOT
ATOM      1  C   UNL     1       6.732  -0.642  26.200  0.00  0.00    +0.181 A 
ATOM      2  O   UNL     1       6.356  -1.802  26.836  0.00  0.00    -0.451 OA
ATOM      3  C   UNL     1       7.063  -2.949  26.577  0.00  0.00    +0.147 A 
ATOM      4  C   UNL     1       8.125  -2.993  25.675  0.00  0.00    +0.109 A 
ATOM      5  C   UNL     1       8.777  -4.223  25.461  0.00  0.00    +0.135 A 
ATOM      6  C   UNL     1       8.397  -5.367  26.167  0.00  0.00    +0.091 A 
ATOM      7  C   UNL     1       7.353  -5.286  27.081  0.00  0.00    +0.124 A 
ATOM      8  C   UNL     1       8.535  -1.721  25.004  0.00  0.00    +0.238 A 
ATOM      9  O   UNL     1       9.474  -1.714  24.202  0.00  0.00    -0.283 OA
ATOM     10  C   UNL     1       6.673  -4.090  27.276  0.00  0.00    +0.092 A 
ATOM     11  C   UNL     1       7.775  -0.483  25.363  0.00  0.00    +0.214 A 
ENDROOT
BRANCH   1  13
ATOM     12  C   UNL     1       6.224   1.217  27.814  0.00  0.00    +0.015 A 
ATOM     13  C   UNL     1       5.970   0.539  26.609  0.00  0.00    +0.025 A 
ATOM     14  C   UNL     1       4.862   0.893  25.832  0.00  0.00    +0.060 A 
ATOM     15  C   UNL     1       3.982   1.848  26.301  0.00  0.00    +0.159 A 
ATOM     16  C   UNL     1       4.187   2.469  27.530  0.00  0.00    +0.158 A 
ATOM     17  C   UNL     1       5.327   2.183  28.282  0.00  0.00    +0.050 A 
BRANCH  15  18
ATOM     18  O   UNL     1       2.882   2.137  25.552  0.00  0.00    -0.503 OA
ATOM     19  H   UNL     1       3.206   2.757  24.869  0.00  0.00    +0.292 HD
ENDBRANCH  15  18
BRANCH  16  20
ATOM     20  O   UNL     1       3.228   3.333  27.973  0.00  0.00    -0.503 OA
ATOM     21  H   UNL     1       2.421   3.196  27.446  0.00  0.00    +0.292 HD
ENDBRANCH  16  20
ENDBRANCH   1  13
BRANCH   5  22
ATOM     22  O   UNL     1       9.794  -4.384  24.564  0.00  0.00    -0.506 OA
ATOM     23  H   UNL     1       9.510  -5.011  23.866  0.00  0.00    +0.292 HD
ENDBRANCH   5  22
BRANCH   7  24
ATOM     24  O   UNL     1       6.968  -6.363  27.824  0.00  0.00    -0.507 OA
ATOM     25  H   UNL     1       7.432  -6.347  28.678  0.00  0.00    +0.292 HD
ENDBRANCH   7  24
BRANCH  11  26
ATOM     26  O   UNL     1       7.975   0.712  24.690  0.00  0.00    -0.453 OA
BRANCH  26  27
ATOM     27  C   UNL     1       8.924   1.663  25.213  0.00  0.00    +0.340 C 
ATOM     28  O   UNL     1       8.308   2.932  25.534  0.00  0.00    -0.322 OA
ATOM     29  C   UNL     1       7.759   3.692  24.427  0.00  0.00    +0.261 C 
ATOM     30  C   UNL     1       8.496   3.601  23.070  0.00  0.00    +0.185 C 
ATOM     31  C   UNL     1       9.234   2.273  22.853  0.00  0.00    +0.180 C 
ATOM     32  C   UNL     1       9.999   1.954  24.153  0.00  0.00    +0.214 C 
BRANCH  29  33
ATOM     33  C   UNL     1       7.723   5.173  24.855  0.00  0.00    +0.337 C 
ATOM     34  O   UNL     1       6.959   6.013  24.397  0.00  0.00    -0.248 OA
BRANCH  33  35
ATOM     35  O   UNL     1       8.643   5.469  25.811  0.00  0.00    -0.479 OA
ATOM     36  H   UNL     1       9.366   4.807  25.772  0.00  0.00    +0.295 HD
ENDBRANCH  33  35
ENDBRANCH  29  33
BRANCH  30  37
ATOM     37  O   UNL     1       9.506   4.628  22.960  0.00  0.00    -0.386 OA
ATOM     38  H   UNL     1       9.444   4.998  22.052  0.00  0.00    +0.210 HD
ENDBRANCH  30  37
BRANCH  31  39
ATOM     39  O   UNL     1      10.124   2.449  21.740  0.00  0.00    -0.386 OA
ATOM     40  H   UNL     1       9.876   3.280  21.296  0.00  0.00    +0.210 HD
ENDBRANCH  31  39
BRANCH  32  41
ATOM     41  O   UNL     1      10.967   0.924  24.012  0.00  0.00    -0.383 OA
ATOM     42  H   UNL     1      10.576   0.058  24.243  0.00  0.00    +0.210 HD
ENDBRANCH  32  41
ENDBRANCH  26  27
ENDBRANCH  11  26
TORSDOF 12
ENDMDL
