MODEL 1
REMARK VINA RESULT:      -7.1      0.000      0.000
REMARK  Name = 
REMARK  9 active torsions:
REMARK  status: ('A' for Active; 'I' for Inactive)
REMARK    1  A    between atoms: C_3  and  O_25
REMARK    2  A    between atoms: C_4  and  O_24
REMARK    3  A    between atoms: C_6  and  C_7
REMARK    4  A    between atoms: C_8  and  O_20
REMARK    5  A    between atoms: C_12  and  O_19
REMARK    6  A    between atoms: C_14  and  O_18
REMARK    7  A    between atoms: O_20  and  C_21
REMARK    8  A    between atoms: C_21  and  C_22
REMARK    9  A    between atoms: C_22  and  O_23
REMARK                            x       y       z     vdW  Elec       q    Type
REMARK                         _______ _______ _______ _____ _____    ______ ____
ROOT
ATOM      1  C   UNL     1       7.110  -2.648  23.967  0.00  0.00    +0.181 A 
ATOM      2  O   UNL     1       7.356  -1.695  22.990  0.00  0.00    -0.451 OA
ATOM      3  C   UNL     1       8.305  -0.736  23.222  0.00  0.00    +0.147 A 
ATOM      4  C   UNL     1       8.989  -0.629  24.425  0.00  0.00    +0.109 A 
ATOM      5  C   UNL     1       9.947   0.378  24.596  0.00  0.00    +0.135 A 
ATOM      6  C   UNL     1      10.228   1.272  23.565  0.00  0.00    +0.091 A 
ATOM      7  C   UNL     1       9.534   1.153  22.362  0.00  0.00    +0.124 A 
ATOM      8  C   UNL     1       8.692  -1.603  25.482  0.00  0.00    +0.238 A 
ATOM      9  O   UNL     1       9.260  -1.506  26.568  0.00  0.00    -0.283 OA
ATOM     10  C   UNL     1       8.572   0.160  22.184  0.00  0.00    +0.092 A 
ATOM     11  C   UNL     1       7.722  -2.698  25.177  0.00  0.00    +0.211 A 
ENDROOT
BRANCH   1  13
ATOM     12  C   UNL     1       4.755  -3.483  24.046  0.00  0.00    +0.015 A 
ATOM     13  C   UNL     1       6.063  -3.590  23.538  0.00  0.00    +0.025 A 
ATOM     14  C   UNL     1       6.380  -4.641  22.667  0.00  0.00    +0.060 A 
ATOM     15  C   UNL     1       5.424  -5.609  22.393  0.00  0.00    +0.159 A 
ATOM     16  C   UNL     1       4.154  -5.542  22.960  0.00  0.00    +0.158 A 
ATOM     17  C   UNL     1       3.798  -4.465  23.762  0.00  0.00    +0.050 A 
BRANCH  15  18
ATOM     18  O   UNL     1       5.755  -6.660  21.587  0.00  0.00    -0.503 OA
ATOM     19  H   UNL     1       5.007  -7.286  21.678  0.00  0.00    +0.292 HD
ENDBRANCH  15  18
BRANCH  16  20
ATOM     20  O   UNL     1       3.296  -6.578  22.718  0.00  0.00    -0.503 OA
ATOM     21  H   UNL     1       2.883  -6.430  21.850  0.00  0.00    +0.292 HD
ENDBRANCH  16  20
ENDBRANCH   1  13
BRANCH   5  22
ATOM     22  O   UNL     1      10.659   0.545  25.754  0.00  0.00    -0.506 OA
ATOM     23  H   UNL     1      10.136   1.124  26.354  0.00  0.00    +0.292 HD
ENDBRANCH   5  22
BRANCH   7  24
ATOM     24  O   UNL     1       9.777   1.995  21.321  0.00  0.00    -0.507 OA
ATOM     25  H   UNL     1       9.927   1.469  20.517  0.00  0.00    +0.292 HD
ENDBRANCH   7  24
BRANCH  11  26
ATOM     26  O   UNL     1       7.542  -3.612  26.201  0.00  0.00    -0.483 OA
BRANCH  26  27
ATOM     27  C   UNL     1       8.651  -4.443  26.563  0.00  0.00    +0.257 C 
BRANCH  27  28
ATOM     28  C   UNL     1       8.959  -5.403  25.415  0.00  0.00    +0.196 C 
BRANCH  28  29
ATOM     29  O   UNL     1      10.298  -5.221  24.958  0.00  0.00    -0.392 OA
ATOM     30  H   UNL     1      10.246  -5.181  23.985  0.00  0.00    +0.210 HD
ENDBRANCH  28  29
ENDBRANCH  27  28
ENDBRANCH  26  27
ENDBRANCH  11  26
TORSDOF 9
ENDMDL
MODEL 2
REMARK VINA RESULT:      -7.1      1.667      1.936
REMARK  Name = 
REMARK  9 active torsions:
REMARK  status: ('A' for Active; 'I' for Inactive)
REMARK    1  A    between atoms: C_3  and  O_25
REMARK    2  A    between atoms: C_4  and  O_24
REMARK    3  A    between atoms: C_6  and  C_7
REMARK    4  A    between atoms: C_8  and  O_20
REMARK    5  A    between atoms: C_12  and  O_19
REMARK    6  A    between atoms: C_14  and  O_18
REMARK    7  A    between atoms: O_20  and  C_21
REMARK    8  A    between atoms: C_21  and  C_22
REMARK    9  A    between atoms: C_22  and  O_23
REMARK                            x       y       z     vdW  Elec       q    Type
REMARK                         _______ _______ _______ _____ _____    ______ ____
ROOT
ATOM      1  C   UNL     1       7.434  -1.665  23.029  0.00  0.00    +0.181 A 
ATOM      2  O   UNL     1       6.809  -0.484  22.657  0.00  0.00    -0.451 OA
ATOM      3  C   UNL     1       7.497   0.694  22.764  0.00  0.00    +0.147 A 
ATOM      4  C   UNL     1       8.777   0.773  23.295  0.00  0.00    +0.109 A 
ATOM      5  C   UNL     1       9.424   2.012  23.377  0.00  0.00    +0.135 A 
ATOM      6  C   UNL     1       8.799   3.170  22.921  0.00  0.00    +0.091 A 
ATOM      7  C   UNL     1       7.514   3.077  22.389  0.00  0.00    +0.124 A 
ATOM      8  C   UNL     1       9.422  -0.468  23.740  0.00  0.00    +0.238 A 
ATOM      9  O   UNL     1      10.541  -0.419  24.247  0.00  0.00    -0.283 OA
ATOM     10  C   UNL     1       6.857   1.850  22.312  0.00  0.00    +0.092 A 
ATOM     11  C   UNL     1       8.691  -1.755  23.530  0.00  0.00    +0.211 A 
ENDROOT
BRANCH   1  13
ATOM     12  C   UNL     1       5.426  -3.002  23.684  0.00  0.00    +0.015 A 
ATOM     13  C   UNL     1       6.540  -2.820  22.844  0.00  0.00    +0.025 A 
ATOM     14  C   UNL     1       6.831  -3.781  21.867  0.00  0.00    +0.060 A 
ATOM     15  C   UNL     1       6.070  -4.941  21.806  0.00  0.00    +0.159 A 
ATOM     16  C   UNL     1       5.016  -5.153  22.691  0.00  0.00    +0.158 A 
ATOM     17  C   UNL     1       4.664  -4.175  23.612  0.00  0.00    +0.050 A 
BRANCH  15  18
ATOM     18  O   UNL     1       6.391  -5.900  20.888  0.00  0.00    -0.503 OA
ATOM     19  H   UNL     1       7.196  -5.559  20.446  0.00  0.00    +0.292 HD
ENDBRANCH  15  18
BRANCH  16  20
ATOM     20  O   UNL     1       4.370  -6.356  22.632  0.00  0.00    -0.503 OA
ATOM     21  H   UNL     1       3.437  -6.208  22.863  0.00  0.00    +0.292 HD
ENDBRANCH  16  20
ENDBRANCH   1  13
BRANCH   5  22
ATOM     22  O   UNL     1      10.686   2.166  23.890  0.00  0.00    -0.506 OA
ATOM     23  H   UNL     1      10.653   2.872  24.574  0.00  0.00    +0.292 HD
ENDBRANCH   5  22
BRANCH   7  24
ATOM     24  O   UNL     1       6.862   4.177  21.922  0.00  0.00    -0.507 OA
ATOM     25  H   UNL     1       7.351   4.973  22.192  0.00  0.00    +0.292 HD
ENDBRANCH   7  24
BRANCH  11  26
ATOM     26  O   UNL     1       9.390  -2.886  23.918  0.00  0.00    -0.483 OA
BRANCH  26  27
ATOM     27  C   UNL     1       9.018  -3.519  25.147  0.00  0.00    +0.257 C 
BRANCH  27  28
ATOM     28  C   UNL     1       8.905  -5.026  24.925  0.00  0.00    +0.196 C 
BRANCH  28  29
ATOM     29  O   UNL     1      10.127  -5.675  25.274  0.00  0.00    -0.392 OA
ATOM     30  H   UNL     1      10.230  -6.409  24.640  0.00  0.00    +0.210 HD
ENDBRANCH  28  29
ENDBRANCH  27  28
ENDBRANCH  26  27
ENDBRANCH  11  26
TORSDOF 9
ENDMDL
MODEL 3
REMARK VINA RESULT:      -6.9      3.021      6.850
REMARK  Name = 
REMARK  9 active torsions:
REMARK  status: ('A' for Active; 'I' for Inactive)
REMARK    1  A    between atoms: C_3  and  O_25
REMARK    2  A    between atoms: C_4  and  O_24
REMARK    3  A    between atoms: C_6  and  C_7
REMARK    4  A    between atoms: C_8  and  O_20
REMARK    5  A    between atoms: C_12  and  O_19
REMARK    6  A    between atoms: C_14  and  O_18
REMARK    7  A    between atoms: O_20  and  C_21
REMARK    8  A    between atoms: C_21  and  C_22
REMARK    9  A    between atoms: C_22  and  O_23
REMARK                            x       y       z     vdW  Elec       q    Type
REMARK                         _______ _______ _______ _____ _____    ______ ____
ROOT
ATOM      1  C   UNL     1       8.133  -0.513  24.724  0.00  0.00    +0.181 A 
ATOM      2  O   UNL     1       7.394  -1.283  25.610  0.00  0.00    -0.451 OA
ATOM      3  C   UNL     1       7.766  -2.582  25.831  0.00  0.00    +0.147 A 
ATOM      4  C   UNL     1       8.813  -3.191  25.154  0.00  0.00    +0.109 A 
ATOM      5  C   UNL     1       9.138  -4.525  25.426  0.00  0.00    +0.135 A 
ATOM      6  C   UNL     1       8.427  -5.248  26.381  0.00  0.00    +0.091 A 
ATOM      7  C   UNL     1       7.378  -4.624  27.055  0.00  0.00    +0.124 A 
ATOM      8  C   UNL     1       9.562  -2.395  24.174  0.00  0.00    +0.238 A 
ATOM      9  O   UNL     1      10.471  -2.924  23.537  0.00  0.00    -0.283 OA
ATOM     10  C   UNL     1       7.039  -3.299  26.784  0.00  0.00    +0.092 A 
ATOM     11  C   UNL     1       9.202  -0.954  24.015  0.00  0.00    +0.211 A 
ENDROOT
BRANCH   1  13
ATOM     12  C   UNL     1       6.340   1.072  24.001  0.00  0.00    +0.015 A 
ATOM     13  C   UNL     1       7.584   0.849  24.619  0.00  0.00    +0.025 A 
ATOM     14  C   UNL     1       8.331   1.942  25.079  0.00  0.00    +0.060 A 
ATOM     15  C   UNL     1       7.872   3.229  24.835  0.00  0.00    +0.159 A 
ATOM     16  C   UNL     1       6.677   3.447  24.154  0.00  0.00    +0.158 A 
ATOM     17  C   UNL     1       5.887   2.375  23.761  0.00  0.00    +0.050 A 
BRANCH  15  18
ATOM     18  O   UNL     1       8.629   4.293  25.238  0.00  0.00    -0.503 OA
ATOM     19  H   UNL     1       9.496   4.157  24.803  0.00  0.00    +0.292 HD
ENDBRANCH  15  18
BRANCH  16  20
ATOM     20  O   UNL     1       6.336   4.740  23.869  0.00  0.00    -0.503 OA
ATOM     21  H   UNL     1       7.097   5.306  24.083  0.00  0.00    +0.292 HD
ENDBRANCH  16  20
ENDBRANCH   1  13
BRANCH   5  22
ATOM     22  O   UNL     1      10.157  -5.191  24.797  0.00  0.00    -0.506 OA
ATOM     23  H   UNL     1       9.910  -6.142  24.740  0.00  0.00    +0.292 HD
ENDBRANCH   5  22
BRANCH   7  24
ATOM     24  O   UNL     1       6.656  -5.283  28.002  0.00  0.00    -0.507 OA
ATOM     25  H   UNL     1       7.191  -5.357  28.812  0.00  0.00    +0.292 HD
ENDBRANCH   7  24
BRANCH  11  26
ATOM     26  O   UNL     1       9.996  -0.256  23.120  0.00  0.00    -0.483 OA
BRANCH  26  27
ATOM     27  C   UNL     1       9.583  -0.208  21.750  0.00  0.00    +0.257 C 
BRANCH  27  28
ATOM     28  C   UNL     1       8.997   1.170  21.447  0.00  0.00    +0.196 C 
BRANCH  28  29
ATOM     29  O   UNL     1      10.013   2.170  21.513  0.00  0.00    -0.392 OA
ATOM     30  H   UNL     1       9.555   3.001  21.743  0.00  0.00    +0.210 HD
ENDBRANCH  28  29
ENDBRANCH  27  28
ENDBRANCH  26  27
ENDBRANCH  11  26
TORSDOF 9
ENDMDL
MODEL 4
REMARK VINA RESULT:      -6.8      1.887      6.498
REMARK  Name = 
REMARK  9 active torsions:
REMARK  status: ('A' for Active; 'I' for Inactive)
REMARK    1  A    between atoms: C_3  and  O_25
REMARK    2  A    between atoms: C_4  and  O_24
REMARK    3  A    between atoms: C_6  and  C_7
REMARK    4  A    between atoms: C_8  and  O_20
REMARK    5  A    between atoms: C_12  and  O_19
REMARK    6  A    between atoms: C_14  and  O_18
REMARK    7  A    between atoms: O_20  and  C_21
REMARK    8  A    between atoms: C_21  and  C_22
REMARK    9  A    between atoms: C_22  and  O_23
REMARK                            x       y       z     vdW  Elec       q    Type
REMARK                         _______ _______ _______ _____ _____    ______ ____
ROOT
ATOM      1  C   UNL     1       7.285  -3.075  24.195  0.00  0.00    +0.181 A 
ATOM      2  O   UNL     1       6.336  -3.839  23.532  0.00  0.00    -0.451 OA
ATOM      3  C   UNL     1       5.741  -4.879  24.194  0.00  0.00    +0.147 A 
ATOM      4  C   UNL     1       6.095  -5.252  25.483  0.00  0.00    +0.109 A 
ATOM      5  C   UNL     1       5.447  -6.328  26.101  0.00  0.00    +0.135 A 
ATOM      6  C   UNL     1       4.441  -7.026  25.437  0.00  0.00    +0.091 A 
ATOM      7  C   UNL     1       4.095  -6.641  24.143  0.00  0.00    +0.124 A 
ATOM      8  C   UNL     1       7.138  -4.479  26.168  0.00  0.00    +0.238 A 
ATOM      9  O   UNL     1       7.492  -4.813  27.297  0.00  0.00    -0.283 OA
ATOM     10  C   UNL     1       4.740  -5.577  23.515  0.00  0.00    +0.092 A 
ATOM     11  C   UNL     1       7.710  -3.291  25.465  0.00  0.00    +0.211 A 
ENDROOT
BRANCH   1  13
ATOM     12  C   UNL     1       9.076  -2.134  22.726  0.00  0.00    +0.015 A 
ATOM     13  C   UNL     1       7.809  -2.008  23.325  0.00  0.00    +0.025 A 
ATOM     14  C   UNL     1       7.073  -0.830  23.141  0.00  0.00    +0.060 A 
ATOM     15  C   UNL     1       7.644   0.227  22.447  0.00  0.00    +0.159 A 
ATOM     16  C   UNL     1       8.930   0.127  21.921  0.00  0.00    +0.158 A 
ATOM     17  C   UNL     1       9.642  -1.060  22.026  0.00  0.00    +0.050 A 
BRANCH  15  18
ATOM     18  O   UNL     1       6.945   1.393  22.316  0.00  0.00    -0.503 OA
ATOM     19  H   UNL     1       7.624   2.067  22.109  0.00  0.00    +0.292 HD
ENDBRANCH  15  18
BRANCH  16  20
ATOM     20  O   UNL     1       9.462   1.239  21.331  0.00  0.00    -0.503 OA
ATOM     21  H   UNL     1      10.121   0.946  20.677  0.00  0.00    +0.292 HD
ENDBRANCH  16  20
ENDBRANCH   1  13
BRANCH   5  22
ATOM     22  O   UNL     1       5.744  -6.753  27.370  0.00  0.00    -0.506 OA
ATOM     23  H   UNL     1       4.941  -6.635  27.926  0.00  0.00    +0.292 HD
ENDBRANCH   5  22
BRANCH   7  24
ATOM     24  O   UNL     1       3.113  -7.285  23.453  0.00  0.00    -0.507 OA
ATOM     25  H   UNL     1       2.373  -7.471  24.057  0.00  0.00    +0.292 HD
ENDBRANCH   7  24
BRANCH  11  26
ATOM     26  O   UNL     1       8.641  -2.578  26.201  0.00  0.00    -0.483 OA
BRANCH  26  27
ATOM     27  C   UNL     1       8.284  -1.264  26.645  0.00  0.00    +0.257 C 
BRANCH  27  28
ATOM     28  C   UNL     1       9.263  -0.249  26.060  0.00  0.00    +0.196 C 
BRANCH  28  29
ATOM     29  O   UNL     1       8.607   0.993  25.813  0.00  0.00    -0.392 OA
ATOM     30  H   UNL     1       9.003   1.347  24.995  0.00  0.00    +0.210 HD
ENDBRANCH  28  29
ENDBRANCH  27  28
ENDBRANCH  26  27
ENDBRANCH  11  26
TORSDOF 9
ENDMDL
MODEL 5
REMARK VINA RESULT:      -6.7      1.996      4.095
REMARK  Name = 
REMARK  9 active torsions:
REMARK  status: ('A' for Active; 'I' for Inactive)
REMARK    1  A    between atoms: C_3  and  O_25
REMARK    2  A    between atoms: C_4  and  O_24
REMARK    3  A    between atoms: C_6  and  C_7
REMARK    4  A    between atoms: C_8  and  O_20
REMARK    5  A    between atoms: C_12  and  O_19
REMARK    6  A    between atoms: C_14  and  O_18
REMARK    7  A    between atoms: O_20  and  C_21
REMARK    8  A    between atoms: C_21  and  C_22
REMARK    9  A    between atoms: C_22  and  O_23
REMARK                            x       y       z     vdW  Elec       q    Type
REMARK                         _______ _______ _______ _____ _____    ______ ____
ROOT
ATOM      1  C   UNL     1       8.134  -1.578  24.392  0.00  0.00    +0.181 A 
ATOM      2  O   UNL     1       8.127  -0.458  25.210  0.00  0.00    -0.451 OA
ATOM      3  C   UNL     1       8.294   0.777  24.645  0.00  0.00    +0.147 A 
ATOM      4  C   UNL     1       8.541   0.959  23.291  0.00  0.00    +0.109 A 
ATOM      5  C   UNL     1       8.705   2.252  22.779  0.00  0.00    +0.135 A 
ATOM      6  C   UNL     1       8.613   3.363  23.615  0.00  0.00    +0.091 A 
ATOM      7  C   UNL     1       8.363   3.166  24.971  0.00  0.00    +0.124 A 
ATOM      8  C   UNL     1       8.605  -0.228  22.431  0.00  0.00    +0.238 A 
ATOM      9  O   UNL     1       8.858  -0.094  21.236  0.00  0.00    -0.283 OA
ATOM     10  C   UNL     1       8.208   1.883  25.494  0.00  0.00    +0.092 A 
ATOM     11  C   UNL     1       8.328  -1.560  23.049  0.00  0.00    +0.211 A 
ENDROOT
BRANCH   1  13
ATOM     12  C   UNL     1       6.883  -2.910  26.099  0.00  0.00    +0.015 A 
ATOM     13  C   UNL     1       7.940  -2.809  25.177  0.00  0.00    +0.025 A 
ATOM     14  C   UNL     1       8.851  -3.868  25.054  0.00  0.00    +0.060 A 
ATOM     15  C   UNL     1       8.747  -4.956  25.909  0.00  0.00    +0.159 A 
ATOM     16  C   UNL     1       7.744  -5.016  26.873  0.00  0.00    +0.158 A 
ATOM     17  C   UNL     1       6.787  -4.014  26.955  0.00  0.00    +0.050 A 
BRANCH  15  18
ATOM     18  O   UNL     1       9.668  -5.961  25.822  0.00  0.00    -0.503 OA
ATOM     19  H   UNL     1       9.464  -6.411  24.977  0.00  0.00    +0.292 HD
ENDBRANCH  15  18
BRANCH  16  20
ATOM     20  O   UNL     1       7.758  -6.074  27.739  0.00  0.00    -0.503 OA
ATOM     21  H   UNL     1       7.947  -6.879  27.226  0.00  0.00    +0.292 HD
ENDBRANCH  16  20
ENDBRANCH   1  13
BRANCH   5  22
ATOM     22  O   UNL     1       8.953   2.507  21.456  0.00  0.00    -0.506 OA
ATOM     23  H   UNL     1       8.682   3.435  21.268  0.00  0.00    +0.292 HD
ENDBRANCH   5  22
BRANCH   7  24
ATOM     24  O   UNL     1       8.255   4.218  25.829  0.00  0.00    -0.507 OA
ATOM     25  H   UNL     1       8.383   5.045  25.333  0.00  0.00    +0.292 HD
ENDBRANCH   7  24
BRANCH  11  26
ATOM     26  O   UNL     1       8.343  -2.624  22.162  0.00  0.00    -0.483 OA
BRANCH  26  27
ATOM     27  C   UNL     1       7.089  -3.205  21.788  0.00  0.00    +0.257 C 
BRANCH  27  28
ATOM     28  C   UNL     1       7.135  -4.711  22.044  0.00  0.00    +0.196 C 
BRANCH  28  29
ATOM     29  O   UNL     1       6.231  -5.068  23.088  0.00  0.00    -0.392 OA
ATOM     30  H   UNL     1       6.777  -5.174  23.890  0.00  0.00    +0.210 HD
ENDBRANCH  28  29
ENDBRANCH  27  28
ENDBRANCH  26  27
ENDBRANCH  11  26
TORSDOF 9
ENDMDL
MODEL 6
REMARK VINA RESULT:      -6.7      2.245      6.461
REMARK  Name = 
REMARK  9 active torsions:
REMARK  status: ('A' for Active; 'I' for Inactive)
REMARK    1  A    between atoms: C_3  and  O_25
REMARK    2  A    between atoms: C_4  and  O_24
REMARK    3  A    between atoms: C_6  and  C_7
REMARK    4  A    between atoms: C_8  and  O_20
REMARK    5  A    between atoms: C_12  and  O_19
REMARK    6  A    between atoms: C_14  and  O_18
REMARK    7  A    between atoms: O_20  and  C_21
REMARK    8  A    between atoms: C_21  and  C_22
REMARK    9  A    between atoms: C_22  and  O_23
REMARK                            x       y       z     vdW  Elec       q    Type
REMARK                         _______ _______ _______ _____ _____    ______ ____
ROOT
ATOM      1  C   UNL     1       7.545  -0.855  23.061  0.00  0.00    +0.181 A 
ATOM      2  O   UNL     1       6.786  -1.733  22.302  0.00  0.00    -0.451 OA
ATOM      3  C   UNL     1       6.961  -3.080  22.472  0.00  0.00    +0.147 A 
ATOM      4  C   UNL     1       7.918  -3.613  23.324  0.00  0.00    +0.109 A 
ATOM      5  C   UNL     1       8.045  -5.002  23.448  0.00  0.00    +0.135 A 
ATOM      6  C   UNL     1       7.212  -5.858  22.731  0.00  0.00    +0.091 A 
ATOM      7  C   UNL     1       6.255  -5.309  21.880  0.00  0.00    +0.124 A 
ATOM      8  C   UNL     1       8.761  -2.687  24.088  0.00  0.00    +0.238 A 
ATOM      9  O   UNL     1       9.639  -3.136  24.821  0.00  0.00    -0.283 OA
ATOM     10  C   UNL     1       6.126  -3.929  21.741  0.00  0.00    +0.092 A 
ATOM     11  C   UNL     1       8.493  -1.223  23.959  0.00  0.00    +0.211 A 
ENDROOT
BRANCH   1  13
ATOM     12  C   UNL     1       7.916   1.227  21.727  0.00  0.00    +0.015 A 
ATOM     13  C   UNL     1       7.218   0.544  22.740  0.00  0.00    +0.025 A 
ATOM     14  C   UNL     1       6.248   1.225  23.488  0.00  0.00    +0.060 A 
ATOM     15  C   UNL     1       6.059   2.584  23.279  0.00  0.00    +0.159 A 
ATOM     16  C   UNL     1       6.807   3.273  22.328  0.00  0.00    +0.158 A 
ATOM     17  C   UNL     1       7.715   2.597  21.523  0.00  0.00    +0.050 A 
BRANCH  15  18
ATOM     18  O   UNL     1       5.151   3.256  24.047  0.00  0.00    -0.503 OA
ATOM     19  H   UNL     1       4.817   2.585  24.678  0.00  0.00    +0.292 HD
ENDBRANCH  15  18
BRANCH  16  20
ATOM     20  O   UNL     1       6.632   4.626  22.241  0.00  0.00    -0.503 OA
ATOM     21  H   UNL     1       5.999   4.802  21.522  0.00  0.00    +0.292 HD
ENDBRANCH  16  20
ENDBRANCH   1  13
BRANCH   5  22
ATOM     22  O   UNL     1       8.967  -5.599  24.268  0.00  0.00    -0.506 OA
ATOM     23  H   UNL     1       8.641  -5.532  25.194  0.00  0.00    +0.292 HD
ENDBRANCH   5  22
BRANCH   7  24
ATOM     24  O   UNL     1       5.411  -6.101  21.163  0.00  0.00    -0.507 OA
ATOM     25  H   UNL     1       5.280  -6.938  21.641  0.00  0.00    +0.292 HD
ENDBRANCH   7  24
BRANCH  11  26
ATOM     26  O   UNL     1       9.287  -0.418  24.759  0.00  0.00    -0.483 OA
BRANCH  26  27
ATOM     27  C   UNL     1      10.518   0.069  24.212  0.00  0.00    +0.257 C 
BRANCH  27  28
ATOM     28  C   UNL     1      10.500   1.597  24.207  0.00  0.00    +0.196 C 
BRANCH  28  29
ATOM     29  O   UNL     1       9.391   2.085  24.960  0.00  0.00    -0.392 OA
ATOM     30  H   UNL     1       9.755   2.364  25.821  0.00  0.00    +0.210 HD
ENDBRANCH  28  29
ENDBRANCH  27  28
ENDBRANCH  26  27
ENDBRANCH  11  26
TORSDOF 9
ENDMDL
MODEL 7
REMARK VINA RESULT:      -6.6      1.695      6.575
REMARK  Name = 
REMARK  9 active torsions:
REMARK  status: ('A' for Active; 'I' for Inactive)
REMARK    1  A    between atoms: C_3  and  O_25
REMARK    2  A    between atoms: C_4  and  O_24
REMARK    3  A    between atoms: C_6  and  C_7
REMARK    4  A    between atoms: C_8  and  O_20
REMARK    5  A    between atoms: C_12  and  O_19
REMARK    6  A    between atoms: C_14  and  O_18
REMARK    7  A    between atoms: O_20  and  C_21
REMARK    8  A    between atoms: C_21  and  C_22
REMARK    9  A    between atoms: C_22  and  O_23
REMARK                            x       y       z     vdW  Elec       q    Type
REMARK                         _______ _______ _______ _____ _____    ______ ____
ROOT
ATOM      1  C   UNL     1       8.240  -1.680  24.081  0.00  0.00    +0.181 A 
ATOM      2  O   UNL     1       7.900  -2.449  22.979  0.00  0.00    -0.451 OA
ATOM      3  C   UNL     1       7.175  -3.595  23.167  0.00  0.00    +0.147 A 
ATOM      4  C   UNL     1       6.822  -4.064  24.424  0.00  0.00    +0.109 A 
ATOM      5  C   UNL     1       6.081  -5.247  24.545  0.00  0.00    +0.135 A 
ATOM      6  C   UNL     1       5.685  -5.954  23.413  0.00  0.00    +0.091 A 
ATOM      7  C   UNL     1       6.046  -5.471  22.156  0.00  0.00    +0.124 A 
ATOM      8  C   UNL     1       7.229  -3.282  25.597  0.00  0.00    +0.238 A 
ATOM      9  O   UNL     1       6.958  -3.697  26.722  0.00  0.00    -0.283 OA
ATOM     10  C   UNL     1       6.791  -4.301  22.024  0.00  0.00    +0.092 A 
ATOM     11  C   UNL     1       7.938  -1.987  25.368  0.00  0.00    +0.211 A 
ENDROOT
BRANCH   1  13
ATOM     12  C   UNL     1      10.189  -0.141  24.371  0.00  0.00    +0.015 A 
ATOM     13  C   UNL     1       9.015  -0.493  23.682  0.00  0.00    +0.025 A 
ATOM     14  C   UNL     1       8.548   0.332  22.649  0.00  0.00    +0.060 A 
ATOM     15  C   UNL     1       9.202   1.527  22.386  0.00  0.00    +0.159 A 
ATOM     16  C   UNL     1      10.320   1.909  23.123  0.00  0.00    +0.158 A 
ATOM     17  C   UNL     1      10.842   1.067  24.096  0.00  0.00    +0.050 A 
BRANCH  15  18
ATOM     18  O   UNL     1       8.713   2.354  21.415  0.00  0.00    -0.503 OA
ATOM     19  H   UNL     1       9.041   3.243  21.658  0.00  0.00    +0.292 HD
ENDBRANCH  15  18
BRANCH  16  20
ATOM     20  O   UNL     1      10.856   3.141  22.870  0.00  0.00    -0.503 OA
ATOM     21  H   UNL     1      11.501   3.046  22.148  0.00  0.00    +0.292 HD
ENDBRANCH  16  20
ENDBRANCH   1  13
BRANCH   5  22
ATOM     22  O   UNL     1       5.698  -5.770  25.752  0.00  0.00    -0.506 OA
ATOM     23  H   UNL     1       6.439  -6.320  26.095  0.00  0.00    +0.292 HD
ENDBRANCH   5  22
BRANCH   7  24
ATOM     24  O   UNL     1       5.677  -6.120  21.018  0.00  0.00    -0.507 OA
ATOM     25  H   UNL     1       6.476  -6.426  20.555  0.00  0.00    +0.292 HD
ENDBRANCH   7  24
BRANCH  11  26
ATOM     26  O   UNL     1       8.231  -1.277  26.520  0.00  0.00    -0.483 OA
BRANCH  26  27
ATOM     27  C   UNL     1       7.179  -0.523  27.132  0.00  0.00    +0.257 C 
BRANCH  27  28
ATOM     28  C   UNL     1       6.898   0.725  26.296  0.00  0.00    +0.196 C 
BRANCH  28  29
ATOM     29  O   UNL     1       7.989   1.640  26.384  0.00  0.00    -0.392 OA
ATOM     30  H   UNL     1       8.412   1.637  25.505  0.00  0.00    +0.210 HD
ENDBRANCH  28  29
ENDBRANCH  27  28
ENDBRANCH  26  27
ENDBRANCH  11  26
TORSDOF 9
ENDMDL
MODEL 8
REMARK VINA RESULT:      -6.5      3.345      6.163
REMARK  Name = 
REMARK  9 active torsions:
REMARK  status: ('A' for Active; 'I' for Inactive)
REMARK    1  A    between atoms: C_3  and  O_25
REMARK    2  A    between atoms: C_4  and  O_24
REMARK    3  A    between atoms: C_6  and  C_7
REMARK    4  A    between atoms: C_8  and  O_20
REMARK    5  A    between atoms: C_12  and  O_19
REMARK    6  A    between atoms: C_14  and  O_18
REMARK    7  A    between atoms: O_20  and  C_21
REMARK    8  A    between atoms: C_21  and  C_22
REMARK    9  A    between atoms: C_22  and  O_23
REMARK                            x       y       z     vdW  Elec       q    Type
REMARK                         _______ _______ _______ _____ _____    ______ ____
ROOT
ATOM      1  C   UNL     1       9.280   1.679  23.638  0.00  0.00    +0.181 A 
ATOM      2  O   UNL     1      10.597   2.046  23.406  0.00  0.00    -0.451 OA
ATOM      3  C   UNL     1      10.941   3.369  23.482  0.00  0.00    +0.147 A 
ATOM      4  C   UNL     1      10.015   4.375  23.715  0.00  0.00    +0.109 A 
ATOM      5  C   UNL     1      10.435   5.710  23.778  0.00  0.00    +0.135 A 
ATOM      6  C   UNL     1      11.779   6.038  23.620  0.00  0.00    +0.091 A 
ATOM      7  C   UNL     1      12.699   5.017  23.389  0.00  0.00    +0.124 A 
ATOM      8  C   UNL     1       8.610   3.996  23.906  0.00  0.00    +0.238 A 
ATOM      9  O   UNL     1       7.766   4.874  24.077  0.00  0.00    -0.283 OA
ATOM     10  C   UNL     1      12.291   3.687  23.313  0.00  0.00    +0.092 A 
ATOM     11  C   UNL     1       8.269   2.541  23.911  0.00  0.00    +0.211 A 
ENDROOT
BRANCH   1  13
ATOM     12  C   UNL     1       8.914  -0.367  22.249  0.00  0.00    +0.015 A 
ATOM     13  C   UNL     1       9.104   0.222  23.512  0.00  0.00    +0.025 A 
ATOM     14  C   UNL     1       9.062  -0.579  24.660  0.00  0.00    +0.060 A 
ATOM     15  C   UNL     1       8.743  -1.925  24.539  0.00  0.00    +0.159 A 
ATOM     16  C   UNL     1       8.479  -2.488  23.293  0.00  0.00    +0.158 A 
ATOM     17  C   UNL     1       8.594  -1.726  22.138  0.00  0.00    +0.050 A 
BRANCH  15  18
ATOM     18  O   UNL     1       8.650  -2.690  25.666  0.00  0.00    -0.503 OA
ATOM     19  H   UNL     1       7.976  -2.240  26.216  0.00  0.00    +0.292 HD
ENDBRANCH  15  18
BRANCH  16  20
ATOM     20  O   UNL     1       8.082  -3.796  23.260  0.00  0.00    -0.503 OA
ATOM     21  H   UNL     1       7.495  -3.951  24.021  0.00  0.00    +0.292 HD
ENDBRANCH  16  20
ENDBRANCH   1  13
BRANCH   5  22
ATOM     22  O   UNL     1       9.578   6.755  24.003  0.00  0.00    -0.506 OA
ATOM     23  H   UNL     1       8.837   6.427  24.561  0.00  0.00    +0.292 HD
ENDBRANCH   5  22
BRANCH   7  24
ATOM     24  O   UNL     1      14.026   5.283  23.235  0.00  0.00    -0.507 OA
ATOM     25  H   UNL     1      14.312   4.971  22.360  0.00  0.00    +0.292 HD
ENDBRANCH   7  24
BRANCH  11  26
ATOM     26  O   UNL     1       6.936   2.262  24.161  0.00  0.00    -0.483 OA
BRANCH  26  27
ATOM     27  C   UNL     1       6.087   1.978  23.043  0.00  0.00    +0.257 C 
BRANCH  27  28
ATOM     28  C   UNL     1       5.057   3.097  22.895  0.00  0.00    +0.196 C 
BRANCH  28  29
ATOM     29  O   UNL     1       5.575   4.149  22.082  0.00  0.00    -0.392 OA
ATOM     30  H   UNL     1       6.045   4.750  22.690  0.00  0.00    +0.210 HD
ENDBRANCH  28  29
ENDBRANCH  27  28
ENDBRANCH  26  27
ENDBRANCH  11  26
TORSDOF 9
ENDMDL
MODEL 9
REMARK VINA RESULT:      -6.5      2.620      4.495
REMARK  Name = 
REMARK  9 active torsions:
REMARK  status: ('A' for Active; 'I' for Inactive)
REMARK    1  A    between atoms: C_3  and  O_25
REMARK    2  A    between atoms: C_4  and  O_24
REMARK    3  A    between atoms: C_6  and  C_7
REMARK    4  A    between atoms: C_8  and  O_20
REMARK    5  A    between atoms: C_12  and  O_19
REMARK    6  A    between atoms: C_14  and  O_18
REMARK    7  A    between atoms: O_20  and  C_21
REMARK    8  A    between atoms: C_21  and  C_22
REMARK    9  A    between atoms: C_22  and  O_23
REMARK                            x       y       z     vdW  Elec       q    Type
REMARK                         _______ _______ _______ _____ _____    ______ ____
ROOT
ATOM      1  C   UNL     1       7.065  -3.755  25.730  0.00  0.00    +0.181 A 
ATOM      2  O   UNL     1       7.811  -2.651  26.115  0.00  0.00    -0.451 OA
ATOM      3  C   UNL     1       8.534  -1.976  25.169  0.00  0.00    +0.147 A 
ATOM      4  C   UNL     1       8.612  -2.387  23.845  0.00  0.00    +0.109 A 
ATOM      5  C   UNL     1       9.372  -1.651  22.929  0.00  0.00    +0.135 A 
ATOM      6  C   UNL     1      10.047  -0.500  23.330  0.00  0.00    +0.091 A 
ATOM      7  C   UNL     1       9.959  -0.097  24.661  0.00  0.00    +0.124 A 
ATOM      8  C   UNL     1       7.868  -3.588  23.446  0.00  0.00    +0.238 A 
ATOM      9  O   UNL     1       7.951  -3.991  22.288  0.00  0.00    -0.283 OA
ATOM     10  C   UNL     1       9.213  -0.828  25.584  0.00  0.00    +0.092 A 
ATOM     11  C   UNL     1       7.011  -4.257  24.471  0.00  0.00    +0.211 A 
ENDROOT
BRANCH   1  13
ATOM     12  C   UNL     1       5.289  -3.663  27.488  0.00  0.00    +0.015 A 
ATOM     13  C   UNL     1       6.359  -4.345  26.880  0.00  0.00    +0.025 A 
ATOM     14  C   UNL     1       6.793  -5.565  27.416  0.00  0.00    +0.060 A 
ATOM     15  C   UNL     1       6.220  -6.034  28.590  0.00  0.00    +0.159 A 
ATOM     16  C   UNL     1       5.214  -5.317  29.232  0.00  0.00    +0.158 A 
ATOM     17  C   UNL     1       4.718  -4.147  28.672  0.00  0.00    +0.050 A 
BRANCH  15  18
ATOM     18  O   UNL     1       6.683  -7.196  29.138  0.00  0.00    -0.503 OA
ATOM     19  H   UNL     1       5.878  -7.730  29.302  0.00  0.00    +0.292 HD
ENDBRANCH  15  18
BRANCH  16  20
ATOM     20  O   UNL     1       4.762  -5.792  30.431  0.00  0.00    -0.503 OA
ATOM     21  H   UNL     1       3.897  -6.212  30.281  0.00  0.00    +0.292 HD
ENDBRANCH  16  20
ENDBRANCH   1  13
BRANCH   5  22
ATOM     22  O   UNL     1       9.496  -1.997  21.609  0.00  0.00    -0.506 OA
ATOM     23  H   UNL     1       9.298  -1.201  21.065  0.00  0.00    +0.292 HD
ENDBRANCH   5  22
BRANCH   7  24
ATOM     24  O   UNL     1      10.592   1.025  25.103  0.00  0.00    -0.507 OA
ATOM     25  H   UNL     1      10.914   1.529  24.336  0.00  0.00    +0.292 HD
ENDBRANCH   7  24
BRANCH  11  26
ATOM     26  O   UNL     1       6.291  -5.343  24.002  0.00  0.00    -0.483 OA
BRANCH  26  27
ATOM     27  C   UNL     1       4.906  -5.150  23.695  0.00  0.00    +0.257 C 
BRANCH  27  28
ATOM     28  C   UNL     1       4.073  -6.189  24.444  0.00  0.00    +0.196 C 
BRANCH  28  29
ATOM     29  O   UNL     1       4.411  -7.506  24.012  0.00  0.00    -0.392 OA
ATOM     30  H   UNL     1       3.569  -7.996  23.964  0.00  0.00    +0.210 HD
ENDBRANCH  28  29
ENDBRANCH  27  28
ENDBRANCH  26  27
ENDBRANCH  11  26
TORSDOF 9
ENDMDL
