MODEL 1
REMARK VINA RESULT:      -7.6      0.000      0.000
REMARK  Name = 
REMARK  18 active torsions:
REMARK  status: ('A' for Active; 'I' for Inactive)
REMARK    1  A    between atoms: C_3  and  O_49
REMARK    2  A    between atoms: C_4  and  O_48
REMARK    3  A    between atoms: C_6  and  C_7
REMARK    4  A    between atoms: C_8  and  O_20
REMARK    5  A    between atoms: C_12  and  O_19
REMARK    6  A    between atoms: C_14  and  O_18
REMARK    7  A    between atoms: O_20  and  C_21
REMARK    8  A    between atoms: C_23  and  O_33
REMARK    9  A    between atoms: C_24  and  O_32
REMARK   10  A    between atoms: C_25  and  O_31
REMARK   11  A    between atoms: C_27  and  C_29
REMARK   12  A    between atoms: C_29  and  O_30
REMARK   13  A    between atoms: O_33  and  C_34
REMARK   14  A    between atoms: C_36  and  O_47
REMARK   15  A    between atoms: C_38  and  O_46
REMARK   16  A    between atoms: C_39  and  O_45
REMARK   17  A    between atoms: C_41  and  C_43
REMARK   18  A    between atoms: C_43  and  O_44
REMARK                            x       y       z     vdW  Elec       q    Type
REMARK                         _______ _______ _______ _____ _____    ______ ____
ROOT
ATOM      1  C   UNL     1       5.305  -0.926  25.457  0.00  0.00    +0.340 C 
ATOM      2  O   UNL     1       4.137  -0.350  26.109  0.00  0.00    -0.331 OA
ATOM      3  C   UNL     1       3.870  -0.857  27.440  0.00  0.00    +0.179 C 
ATOM      4  C   UNL     1       3.992  -2.399  27.586  0.00  0.00    +0.177 C 
ATOM      5  C   UNL     1       5.065  -3.014  26.676  0.00  0.00    +0.180 C 
ATOM      6  C   UNL     1       4.941  -2.404  25.249  0.00  0.00    +0.221 C 
ENDROOT
BRANCH   5   7
ATOM      7  O   UNL     1       4.962  -4.444  26.718  0.00  0.00    -0.386 OA
ATOM      8  H   UNL     1       4.101  -4.678  26.342  0.00  0.00    +0.210 HD
ENDBRANCH   5   7
BRANCH   4   9
ATOM      9  O   UNL     1       2.748  -3.053  27.274  0.00  0.00    -0.386 OA
ATOM     10  H   UNL     1       2.480  -3.523  28.087  0.00  0.00    +0.210 HD
ENDBRANCH   4   9
BRANCH   6  11
ATOM     11  O   UNL     1       5.657  -3.196  24.312  0.00  0.00    -0.337 OA
BRANCH  11  12
ATOM     12  C   UNL     1       5.183  -3.386  22.981  0.00  0.00    +0.282 C 
ATOM     13  O   UNL     1       3.929  -4.066  22.872  0.00  0.00    -0.341 OA
ATOM     14  C   UNL     1       3.909  -5.407  23.390  0.00  0.00    +0.178 C 
ATOM     15  C   UNL     1       5.096  -6.301  22.962  0.00  0.00    +0.177 C 
ATOM     16  C   UNL     1       6.422  -5.534  22.948  0.00  0.00    +0.179 C 
ATOM     17  C   UNL     1       6.277  -4.183  22.249  0.00  0.00    +0.201 C 
BRANCH  17  18
ATOM     18  O   UNL     1       5.966  -4.314  20.858  0.00  0.00    -0.384 OA
ATOM     19  H   UNL     1       6.454  -3.607  20.393  0.00  0.00    +0.210 HD
ENDBRANCH  17  18
BRANCH  16  20
ATOM     20  O   UNL     1       7.431  -6.314  22.293  0.00  0.00    -0.386 OA
ATOM     21  H   UNL     1       8.092  -5.690  21.941  0.00  0.00    +0.210 HD
ENDBRANCH  16  20
BRANCH  15  22
ATOM     22  O   UNL     1       5.223  -7.431  23.849  0.00  0.00    -0.386 OA
ATOM     23  H   UNL     1       5.638  -8.167  23.368  0.00  0.00    +0.210 HD
ENDBRANCH  15  22
BRANCH  14  24
ATOM     24  C   UNL     1       2.544  -6.040  23.021  0.00  0.00    +0.190 C 
BRANCH  24  25
ATOM     25  O   UNL     1       2.552  -7.467  23.102  0.00  0.00    -0.392 OA
ATOM     26  H   UNL     1       2.560  -7.819  22.195  0.00  0.00    +0.210 HD
ENDBRANCH  24  25
ENDBRANCH  14  24
ENDBRANCH  11  12
ENDBRANCH   6  11
BRANCH   3  27
ATOM     27  C   UNL     1       2.452  -0.379  27.838  0.00  0.00    +0.190 C 
BRANCH  27  28
ATOM     28  O   UNL     1       1.532  -0.390  26.744  0.00  0.00    -0.392 OA
ATOM     29  H   UNL     1       1.429   0.521  26.429  0.00  0.00    +0.210 HD
ENDBRANCH  27  28
ENDBRANCH   3  27
BRANCH   1  30
ATOM     30  O   UNL     1       6.438  -0.680  26.317  0.00  0.00    -0.453 OA
BRANCH  30  41
ATOM     31  C   UNL     1       8.616  -0.625  25.293  0.00  0.00    +0.181 A 
ATOM     32  O   UNL     1       9.580   0.071  24.536  0.00  0.00    -0.451 OA
ATOM     33  C   UNL     1       9.493   1.447  24.410  0.00  0.00    +0.147 A 
ATOM     34  C   UNL     1       8.507   2.207  25.013  0.00  0.00    +0.109 A 
ATOM     35  C   UNL     1       8.545   3.611  24.925  0.00  0.00    +0.135 A 
ATOM     36  C   UNL     1       9.544   4.259  24.205  0.00  0.00    +0.091 A 
ATOM     37  C   UNL     1      10.469   3.496  23.527  0.00  0.00    +0.124 A 
ATOM     38  C   UNL     1       7.422   1.489  25.682  0.00  0.00    +0.238 A 
ATOM     39  O   UNL     1       6.428   2.113  26.045  0.00  0.00    -0.283 OA
ATOM     40  C   UNL     1      10.452   2.097  23.611  0.00  0.00    +0.092 A 
ATOM     41  C   UNL     1       7.548   0.003  25.856  0.00  0.00    +0.214 A 
BRANCH  31  43
ATOM     42  C   UNL     1       9.530  -2.846  24.336  0.00  0.00    +0.015 A 
ATOM     43  C   UNL     1       8.846  -2.138  25.352  0.00  0.00    +0.025 A 
ATOM     44  C   UNL     1       8.366  -2.949  26.397  0.00  0.00    +0.060 A 
ATOM     45  C   UNL     1       8.638  -4.332  26.425  0.00  0.00    +0.159 A 
ATOM     46  C   UNL     1       9.393  -4.958  25.439  0.00  0.00    +0.158 A 
ATOM     47  C   UNL     1       9.833  -4.216  24.370  0.00  0.00    +0.050 A 
BRANCH  46  48
ATOM     48  O   UNL     1       9.654  -6.293  25.548  0.00  0.00    -0.503 OA
ATOM     49  H   UNL     1       9.142  -6.651  26.298  0.00  0.00    +0.292 HD
ENDBRANCH  46  48
BRANCH  45  50
ATOM     50  O   UNL     1       8.147  -5.102  27.445  0.00  0.00    -0.503 OA
ATOM     51  H   UNL     1       8.234  -4.537  28.243  0.00  0.00    +0.292 HD
ENDBRANCH  45  50
ENDBRANCH  31  43
BRANCH  37  52
ATOM     52  O   UNL     1      11.433   4.093  22.769  0.00  0.00    -0.507 OA
ATOM     53  H   UNL     1      11.091   4.937  22.421  0.00  0.00    +0.292 HD
ENDBRANCH  37  52
BRANCH  35  54
ATOM     54  O   UNL     1       7.610   4.441  25.501  0.00  0.00    -0.506 OA
ATOM     55  H   UNL     1       7.600   5.291  25.014  0.00  0.00    +0.292 HD
ENDBRANCH  35  54
ENDBRANCH  30  41
ENDBRANCH   1  30
TORSDOF 18
ENDMDL
MODEL 2
REMARK VINA RESULT:      -7.3      2.139      6.871
REMARK  Name = 
REMARK  18 active torsions:
REMARK  status: ('A' for Active; 'I' for Inactive)
REMARK    1  A    between atoms: C_3  and  O_49
REMARK    2  A    between atoms: C_4  and  O_48
REMARK    3  A    between atoms: C_6  and  C_7
REMARK    4  A    between atoms: C_8  and  O_20
REMARK    5  A    between atoms: C_12  and  O_19
REMARK    6  A    between atoms: C_14  and  O_18
REMARK    7  A    between atoms: O_20  and  C_21
REMARK    8  A    between atoms: C_23  and  O_33
REMARK    9  A    between atoms: C_24  and  O_32
REMARK   10  A    between atoms: C_25  and  O_31
REMARK   11  A    between atoms: C_27  and  C_29
REMARK   12  A    between atoms: C_29  and  O_30
REMARK   13  A    between atoms: O_33  and  C_34
REMARK   14  A    between atoms: C_36  and  O_47
REMARK   15  A    between atoms: C_38  and  O_46
REMARK   16  A    between atoms: C_39  and  O_45
REMARK   17  A    between atoms: C_41  and  C_43
REMARK   18  A    between atoms: C_43  and  O_44
REMARK                            x       y       z     vdW  Elec       q    Type
REMARK                         _______ _______ _______ _____ _____    ______ ____
ROOT
ATOM      1  C   UNL     1       8.393  -0.124  25.232  0.00  0.00    +0.340 C 
ATOM      2  O   UNL     1       9.321   0.882  24.734  0.00  0.00    -0.331 OA
ATOM      3  C   UNL     1       9.119   1.267  23.352  0.00  0.00    +0.179 C 
ATOM      4  C   UNL     1       8.871   0.084  22.376  0.00  0.00    +0.177 C 
ATOM      5  C   UNL     1       8.113  -1.087  23.019  0.00  0.00    +0.180 C 
ATOM      6  C   UNL     1       8.721  -1.387  24.420  0.00  0.00    +0.221 C 
ENDROOT
BRANCH   5   7
ATOM      7  O   UNL     1       8.117  -2.206  22.122  0.00  0.00    -0.386 OA
ATOM      8  H   UNL     1       9.016  -2.567  22.121  0.00  0.00    +0.210 HD
ENDBRANCH   5   7
BRANCH   4   9
ATOM      9  O   UNL     1      10.110  -0.444  21.868  0.00  0.00    -0.386 OA
ATOM     10  H   UNL     1      10.343  -1.192  22.450  0.00  0.00    +0.210 HD
ENDBRANCH   4   9
BRANCH   6  11
ATOM     11  O   UNL     1       8.301  -2.664  24.877  0.00  0.00    -0.337 OA
BRANCH  11  12
ATOM     12  C   UNL     1       8.895  -3.864  24.387  0.00  0.00    +0.282 C 
ATOM     13  O   UNL     1       8.111  -4.585  23.431  0.00  0.00    -0.341 OA
ATOM     14  C   UNL     1       6.839  -5.055  23.908  0.00  0.00    +0.178 C 
ATOM     15  C   UNL     1       6.865  -5.754  25.288  0.00  0.00    +0.177 C 
ATOM     16  C   UNL     1       7.811  -5.057  26.271  0.00  0.00    +0.179 C 
ATOM     17  C   UNL     1       9.158  -4.744  25.621  0.00  0.00    +0.201 C 
BRANCH  17  18
ATOM     18  O   UNL     1       9.882  -5.924  25.258  0.00  0.00    -0.384 OA
ATOM     19  H   UNL     1      10.814  -5.769  25.506  0.00  0.00    +0.210 HD
ENDBRANCH  17  18
BRANCH  16  20
ATOM     20  O   UNL     1       8.010  -5.883  27.426  0.00  0.00    -0.386 OA
ATOM     21  H   UNL     1       7.143  -5.976  27.864  0.00  0.00    +0.210 HD
ENDBRANCH  16  20
BRANCH  15  22
ATOM     22  O   UNL     1       5.542  -5.788  25.863  0.00  0.00    -0.386 OA
ATOM     23  H   UNL     1       4.902  -5.472  25.202  0.00  0.00    +0.210 HD
ENDBRANCH  15  22
BRANCH  14  24
ATOM     24  C   UNL     1       6.224  -5.961  22.812  0.00  0.00    +0.190 C 
BRANCH  24  25
ATOM     25  O   UNL     1       5.185  -6.807  23.308  0.00  0.00    -0.392 OA
ATOM     26  H   UNL     1       4.732  -7.204  22.544  0.00  0.00    +0.210 HD
ENDBRANCH  24  25
ENDBRANCH  14  24
ENDBRANCH  11  12
ENDBRANCH   6  11
BRANCH   3  27
ATOM     27  C   UNL     1      10.359   2.085  22.916  0.00  0.00    +0.190 C 
BRANCH  27  28
ATOM     28  O   UNL     1      10.397   2.335  21.509  0.00  0.00    -0.392 OA
ATOM     29  H   UNL     1       9.983   3.197  21.346  0.00  0.00    +0.210 HD
ENDBRANCH  27  28
ENDBRANCH   3  27
BRANCH   1  30
ATOM     30  O   UNL     1       7.060   0.400  25.054  0.00  0.00    -0.453 OA
BRANCH  30  41
ATOM     31  C   UNL     1       6.189   2.362  26.143  0.00  0.00    +0.181 A 
ATOM     32  O   UNL     1       5.241   2.945  27.008  0.00  0.00    -0.451 OA
ATOM     33  C   UNL     1       4.536   2.148  27.894  0.00  0.00    +0.147 A 
ATOM     34  C   UNL     1       4.721   0.781  28.003  0.00  0.00    +0.109 A 
ATOM     35  C   UNL     1       4.043   0.054  28.998  0.00  0.00    +0.135 A 
ATOM     36  C   UNL     1       3.150   0.681  29.863  0.00  0.00    +0.091 A 
ATOM     37  C   UNL     1       2.897   2.024  29.690  0.00  0.00    +0.124 A 
ATOM     38  C   UNL     1       5.594   0.142  27.019  0.00  0.00    +0.238 A 
ATOM     39  O   UNL     1       5.620  -1.084  26.950  0.00  0.00    -0.283 OA
ATOM     40  C   UNL     1       3.570   2.765  28.710  0.00  0.00    +0.092 A 
ATOM     41  C   UNL     1       6.392   1.017  26.094  0.00  0.00    +0.214 A 
BRANCH  31  43
ATOM     42  C   UNL     1       8.067   4.060  25.619  0.00  0.00    +0.015 A 
ATOM     43  C   UNL     1       6.897   3.367  25.230  0.00  0.00    +0.025 A 
ATOM     44  C   UNL     1       6.422   3.709  23.950  0.00  0.00    +0.060 A 
ATOM     45  C   UNL     1       7.132   4.612  23.131  0.00  0.00    +0.159 A 
ATOM     46  C   UNL     1       8.327   5.196  23.535  0.00  0.00    +0.158 A 
ATOM     47  C   UNL     1       8.797   4.935  24.800  0.00  0.00    +0.050 A 
BRANCH  46  48
ATOM     48  O   UNL     1       8.984   6.029  22.678  0.00  0.00    -0.503 OA
ATOM     49  H   UNL     1       9.472   5.487  22.030  0.00  0.00    +0.292 HD
ENDBRANCH  46  48
BRANCH  45  50
ATOM     50  O   UNL     1       6.641   4.939  21.895  0.00  0.00    -0.503 OA
ATOM     51  H   UNL     1       6.780   5.907  21.824  0.00  0.00    +0.292 HD
ENDBRANCH  45  50
ENDBRANCH  31  43
BRANCH  37  52
ATOM     52  O   UNL     1       1.990   2.662  30.485  0.00  0.00    -0.507 OA
ATOM     53  H   UNL     1       1.307   2.027  30.768  0.00  0.00    +0.292 HD
ENDBRANCH  37  52
BRANCH  35  54
ATOM     54  O   UNL     1       4.175  -1.304  29.181  0.00  0.00    -0.506 OA
ATOM     55  H   UNL     1       3.282  -1.699  29.266  0.00  0.00    +0.292 HD
ENDBRANCH  35  54
ENDBRANCH  30  41
ENDBRANCH   1  30
TORSDOF 18
ENDMDL
MODEL 3
REMARK VINA RESULT:      -7.0      1.632      2.142
REMARK  Name = 
REMARK  18 active torsions:
REMARK  status: ('A' for Active; 'I' for Inactive)
REMARK    1  A    between atoms: C_3  and  O_49
REMARK    2  A    between atoms: C_4  and  O_48
REMARK    3  A    between atoms: C_6  and  C_7
REMARK    4  A    between atoms: C_8  and  O_20
REMARK    5  A    between atoms: C_12  and  O_19
REMARK    6  A    between atoms: C_14  and  O_18
REMARK    7  A    between atoms: O_20  and  C_21
REMARK    8  A    between atoms: C_23  and  O_33
REMARK    9  A    between atoms: C_24  and  O_32
REMARK   10  A    between atoms: C_25  and  O_31
REMARK   11  A    between atoms: C_27  and  C_29
REMARK   12  A    between atoms: C_29  and  O_30
REMARK   13  A    between atoms: O_33  and  C_34
REMARK   14  A    between atoms: C_36  and  O_47
REMARK   15  A    between atoms: C_38  and  O_46
REMARK   16  A    between atoms: C_39  and  O_45
REMARK   17  A    between atoms: C_41  and  C_43
REMARK   18  A    between atoms: C_43  and  O_44
REMARK                            x       y       z     vdW  Elec       q    Type
REMARK                         _______ _______ _______ _____ _____    ______ ____
ROOT
ATOM      1  C   UNL     1       5.702   0.294  24.967  0.00  0.00    +0.340 C 
ATOM      2  O   UNL     1       4.780   1.421  24.986  0.00  0.00    -0.331 OA
ATOM      3  C   UNL     1       4.226   1.734  26.288  0.00  0.00    +0.179 C 
ATOM      4  C   UNL     1       3.750   0.502  27.106  0.00  0.00    +0.177 C 
ATOM      5  C   UNL     1       4.592  -0.758  26.855  0.00  0.00    +0.180 C 
ATOM      6  C   UNL     1       4.832  -0.921  25.326  0.00  0.00    +0.221 C 
ENDROOT
BRANCH   5   7
ATOM      7  O   UNL     1       3.959  -1.884  27.477  0.00  0.00    -0.386 OA
ATOM      8  H   UNL     1       3.714  -2.499  26.770  0.00  0.00    +0.210 HD
ENDBRANCH   5   7
BRANCH   4   9
ATOM      9  O   UNL     1       2.384   0.166  26.797  0.00  0.00    -0.386 OA
ATOM     10  H   UNL     1       2.324  -0.806  26.868  0.00  0.00    +0.210 HD
ENDBRANCH   4   9
BRANCH   6  11
ATOM     11  O   UNL     1       5.280  -2.236  25.035  0.00  0.00    -0.337 OA
BRANCH  11  12
ATOM     12  C   UNL     1       4.401  -3.223  24.499  0.00  0.00    +0.282 C 
ATOM     13  O   UNL     1       3.846  -4.129  25.457  0.00  0.00    -0.341 OA
ATOM     14  C   UNL     1       4.802  -4.935  26.167  0.00  0.00    +0.178 C 
ATOM     15  C   UNL     1       5.885  -5.605  25.290  0.00  0.00    +0.177 C 
ATOM     16  C   UNL     1       6.383  -4.677  24.177  0.00  0.00    +0.179 C 
ATOM     17  C   UNL     1       5.220  -4.000  23.455  0.00  0.00    +0.201 C 
BRANCH  17  18
ATOM     18  O   UNL     1       4.391  -4.932  22.751  0.00  0.00    -0.384 OA
ATOM     19  H   UNL     1       4.368  -5.748  23.287  0.00  0.00    +0.210 HD
ENDBRANCH  17  18
BRANCH  16  20
ATOM     20  O   UNL     1       7.172  -5.421  23.238  0.00  0.00    -0.386 OA
ATOM     21  H   UNL     1       6.642  -5.508  22.424  0.00  0.00    +0.210 HD
ENDBRANCH  16  20
BRANCH  15  22
ATOM     22  O   UNL     1       7.012  -6.007  26.097  0.00  0.00    -0.386 OA
ATOM     23  H   UNL     1       6.977  -6.969  26.233  0.00  0.00    +0.210 HD
ENDBRANCH  15  22
BRANCH  14  24
ATOM     24  C   UNL     1       4.018  -5.972  27.011  0.00  0.00    +0.190 C 
BRANCH  24  25
ATOM     25  O   UNL     1       4.443  -7.315  26.777  0.00  0.00    -0.392 OA
ATOM     26  H   UNL     1       4.479  -7.455  25.815  0.00  0.00    +0.210 HD
ENDBRANCH  24  25
ENDBRANCH  14  24
ENDBRANCH  11  12
ENDBRANCH   6  11
BRANCH   3  27
ATOM     27  C   UNL     1       3.060   2.728  26.065  0.00  0.00    +0.190 C 
BRANCH  27  28
ATOM     28  O   UNL     1       2.448   2.592  24.780  0.00  0.00    -0.392 OA
ATOM     29  H   UNL     1       2.148   1.674  24.687  0.00  0.00    +0.210 HD
ENDBRANCH  27  28
ENDBRANCH   3  27
BRANCH   1  30
ATOM     30  O   UNL     1       6.764   0.595  25.897  0.00  0.00    -0.453 OA
BRANCH  30  41
ATOM     31  C   UNL     1       8.962   0.611  24.916  0.00  0.00    +0.181 A 
ATOM     32  O   UNL     1       9.964   1.302  24.206  0.00  0.00    -0.451 OA
ATOM     33  C   UNL     1       9.931   2.684  24.138  0.00  0.00    +0.147 A 
ATOM     34  C   UNL     1       8.962   3.455  24.755  0.00  0.00    +0.109 A 
ATOM     35  C   UNL     1       9.052   4.858  24.728  0.00  0.00    +0.135 A 
ATOM     36  C   UNL     1      10.088   5.498  24.053  0.00  0.00    +0.091 A 
ATOM     37  C   UNL     1      10.998   4.730  23.361  0.00  0.00    +0.124 A 
ATOM     38  C   UNL     1       7.838   2.750  25.373  0.00  0.00    +0.238 A 
ATOM     39  O   UNL     1       6.861   3.395  25.744  0.00  0.00    -0.283 OA
ATOM     40  C   UNL     1      10.929   3.331  23.384  0.00  0.00    +0.092 A 
ATOM     41  C   UNL     1       7.906   1.254  25.486  0.00  0.00    +0.214 A 
BRANCH  31  43
ATOM     42  C   UNL     1       9.687  -1.615  23.819  0.00  0.00    +0.015 A 
ATOM     43  C   UNL     1       9.135  -0.910  24.915  0.00  0.00    +0.025 A 
ATOM     44  C   UNL     1       8.727  -1.732  25.982  0.00  0.00    +0.060 A 
ATOM     45  C   UNL     1       8.945  -3.125  25.949  0.00  0.00    +0.159 A 
ATOM     46  C   UNL     1       9.574  -3.751  24.879  0.00  0.00    +0.158 A 
ATOM     47  C   UNL     1       9.936  -2.996  23.790  0.00  0.00    +0.050 A 
BRANCH  46  48
ATOM     48  O   UNL     1       9.790  -5.098  24.928  0.00  0.00    -0.503 OA
ATOM     49  H   UNL     1      10.543  -5.313  24.347  0.00  0.00    +0.292 HD
ENDBRANCH  46  48
BRANCH  45  50
ATOM     50  O   UNL     1       8.526  -3.904  26.994  0.00  0.00    -0.503 OA
ATOM     51  H   UNL     1       7.601  -3.620  27.157  0.00  0.00    +0.292 HD
ENDBRANCH  45  50
ENDBRANCH  31  43
BRANCH  37  52
ATOM     52  O   UNL     1      11.998   5.322  22.646  0.00  0.00    -0.507 OA
ATOM     53  H   UNL     1      11.690   5.483  21.735  0.00  0.00    +0.292 HD
ENDBRANCH  37  52
BRANCH  35  54
ATOM     54  O   UNL     1       8.137   5.698  25.321  0.00  0.00    -0.506 OA
ATOM     55  H   UNL     1       8.165   6.566  24.867  0.00  0.00    +0.292 HD
ENDBRANCH  35  54
ENDBRANCH  30  41
ENDBRANCH   1  30
TORSDOF 18
ENDMDL
MODEL 4
REMARK VINA RESULT:      -7.0      2.809      7.841
REMARK  Name = 
REMARK  18 active torsions:
REMARK  status: ('A' for Active; 'I' for Inactive)
REMARK    1  A    between atoms: C_3  and  O_49
REMARK    2  A    between atoms: C_4  and  O_48
REMARK    3  A    between atoms: C_6  and  C_7
REMARK    4  A    between atoms: C_8  and  O_20
REMARK    5  A    between atoms: C_12  and  O_19
REMARK    6  A    between atoms: C_14  and  O_18
REMARK    7  A    between atoms: O_20  and  C_21
REMARK    8  A    between atoms: C_23  and  O_33
REMARK    9  A    between atoms: C_24  and  O_32
REMARK   10  A    between atoms: C_25  and  O_31
REMARK   11  A    between atoms: C_27  and  C_29
REMARK   12  A    between atoms: C_29  and  O_30
REMARK   13  A    between atoms: O_33  and  C_34
REMARK   14  A    between atoms: C_36  and  O_47
REMARK   15  A    between atoms: C_38  and  O_46
REMARK   16  A    between atoms: C_39  and  O_45
REMARK   17  A    between atoms: C_41  and  C_43
REMARK   18  A    between atoms: C_43  and  O_44
REMARK                            x       y       z     vdW  Elec       q    Type
REMARK                         _______ _______ _______ _____ _____    ______ ____
ROOT
ATOM      1  C   UNL     1       7.341   0.139  26.857  0.00  0.00    +0.340 C 
ATOM      2  O   UNL     1       7.648   0.206  28.279  0.00  0.00    -0.331 OA
ATOM      3  C   UNL     1       6.797   1.094  29.045  0.00  0.00    +0.179 C 
ATOM      4  C   UNL     1       6.530   2.473  28.381  0.00  0.00    +0.177 C 
ATOM      5  C   UNL     1       6.478   2.410  26.847  0.00  0.00    +0.180 C 
ATOM      6  C   UNL     1       7.662   1.545  26.327  0.00  0.00    +0.221 C 
ENDROOT
BRANCH   5   7
ATOM      7  O   UNL     1       6.441   3.743  26.317  0.00  0.00    -0.386 OA
ATOM      8  H   UNL     1       5.546   3.887  25.973  0.00  0.00    +0.210 HD
ENDBRANCH   5   7
BRANCH   4   9
ATOM      9  O   UNL     1       7.549   3.428  28.730  0.00  0.00    -0.386 OA
ATOM     10  H   UNL     1       8.375   3.100  28.326  0.00  0.00    +0.210 HD
ENDBRANCH   4   9
BRANCH   6  11
ATOM     11  O   UNL     1       7.857   1.762  24.937  0.00  0.00    -0.337 OA
BRANCH  11  12
ATOM     12  C   UNL     1       8.960   2.521  24.447  0.00  0.00    +0.282 C 
ATOM     13  O   UNL     1       8.724   3.926  24.321  0.00  0.00    -0.341 OA
ATOM     14  C   UNL     1       7.679   4.295  23.404  0.00  0.00    +0.178 C 
ATOM     15  C   UNL     1       7.720   3.584  22.031  0.00  0.00    +0.177 C 
ATOM     16  C   UNL     1       8.106   2.107  22.157  0.00  0.00    +0.179 C 
ATOM     17  C   UNL     1       9.313   1.923  23.075  0.00  0.00    +0.201 C 
BRANCH  17  18
ATOM     18  O   UNL     1      10.502   2.523  22.549  0.00  0.00    -0.384 OA
ATOM     19  H   UNL     1      11.168   1.813  22.480  0.00  0.00    +0.210 HD
ENDBRANCH  17  18
BRANCH  16  20
ATOM     20  O   UNL     1       8.395   1.566  20.860  0.00  0.00    -0.386 OA
ATOM     21  H   UNL     1       8.183   2.259  20.207  0.00  0.00    +0.210 HD
ENDBRANCH  16  20
BRANCH  15  22
ATOM     22  O   UNL     1       6.437   3.674  21.377  0.00  0.00    -0.386 OA
ATOM     23  H   UNL     1       5.784   4.026  22.007  0.00  0.00    +0.210 HD
ENDBRANCH  15  22
BRANCH  14  24
ATOM     24  C   UNL     1       7.694   5.837  23.259  0.00  0.00    +0.190 C 
BRANCH  24  25
ATOM     25  O   UNL     1       7.952   6.267  21.921  0.00  0.00    -0.392 OA
ATOM     26  H   UNL     1       7.621   7.177  21.830  0.00  0.00    +0.210 HD
ENDBRANCH  24  25
ENDBRANCH  14  24
ENDBRANCH  11  12
ENDBRANCH   6  11
BRANCH   3  27
ATOM     27  C   UNL     1       7.455   1.275  30.435  0.00  0.00    +0.190 C 
BRANCH  27  28
ATOM     28  O   UNL     1       8.883   1.276  30.381  0.00  0.00    -0.392 OA
ATOM     29  H   UNL     1       9.203   0.504  30.874  0.00  0.00    +0.210 HD
ENDBRANCH  27  28
ENDBRANCH   3  27
BRANCH   1  30
ATOM     30  O   UNL     1       5.962  -0.271  26.737  0.00  0.00    -0.453 OA
BRANCH  30  41
ATOM     31  C   UNL     1       6.164  -2.571  26.059  0.00  0.00    +0.181 A 
ATOM     32  O   UNL     1       6.048  -3.940  26.375  0.00  0.00    -0.451 OA
ATOM     33  C   UNL     1       5.283  -4.333  27.460  0.00  0.00    +0.147 A 
ATOM     34  C   UNL     1       4.589  -3.447  28.265  0.00  0.00    +0.109 A 
ATOM     35  C   UNL     1       3.750  -3.929  29.286  0.00  0.00    +0.135 A 
ATOM     36  C   UNL     1       3.629  -5.294  29.532  0.00  0.00    +0.091 A 
ATOM     37  C   UNL     1       4.394  -6.168  28.791  0.00  0.00    +0.124 A 
ATOM     38  C   UNL     1       4.812  -2.019  28.038  0.00  0.00    +0.238 A 
ATOM     39  O   UNL     1       4.384  -1.210  28.857  0.00  0.00    -0.283 OA
ATOM     40  C   UNL     1       5.228  -5.706  27.765  0.00  0.00    +0.092 A 
ATOM     41  C   UNL     1       5.603  -1.601  26.831  0.00  0.00    +0.214 A 
BRANCH  31  43
ATOM     42  C   UNL     1       6.522  -1.672  23.662  0.00  0.00    +0.015 A 
ATOM     43  C   UNL     1       7.031  -2.289  24.829  0.00  0.00    +0.025 A 
ATOM     44  C   UNL     1       8.388  -2.654  24.745  0.00  0.00    +0.060 A 
ATOM     45  C   UNL     1       9.154  -2.337  23.604  0.00  0.00    +0.159 A 
ATOM     46  C   UNL     1       8.619  -1.649  22.521  0.00  0.00    +0.158 A 
ATOM     47  C   UNL     1       7.284  -1.324  22.535  0.00  0.00    +0.050 A 
BRANCH  46  48
ATOM     48  O   UNL     1       9.427  -1.338  21.465  0.00  0.00    -0.503 OA
ATOM     49  H   UNL     1       9.353  -0.381  21.289  0.00  0.00    +0.292 HD
ENDBRANCH  46  48
BRANCH  45  50
ATOM     50  O   UNL     1      10.468  -2.715  23.541  0.00  0.00    -0.503 OA
ATOM     51  H   UNL     1      10.460  -3.670  23.764  0.00  0.00    +0.292 HD
ENDBRANCH  45  50
ENDBRANCH  31  43
BRANCH  37  52
ATOM     52  O   UNL     1       4.342  -7.509  29.037  0.00  0.00    -0.507 OA
ATOM     53  H   UNL     1       5.249  -7.859  29.100  0.00  0.00    +0.292 HD
ENDBRANCH  37  52
BRANCH  35  54
ATOM     54  O   UNL     1       3.019  -3.119  30.125  0.00  0.00    -0.506 OA
ATOM     55  H   UNL     1       2.353  -3.666  30.591  0.00  0.00    +0.292 HD
ENDBRANCH  35  54
ENDBRANCH  30  41
ENDBRANCH   1  30
TORSDOF 18
ENDMDL
MODEL 5
REMARK VINA RESULT:      -6.8      2.075      7.755
REMARK  Name = 
REMARK  18 active torsions:
REMARK  status: ('A' for Active; 'I' for Inactive)
REMARK    1  A    between atoms: C_3  and  O_49
REMARK    2  A    between atoms: C_4  and  O_48
REMARK    3  A    between atoms: C_6  and  C_7
REMARK    4  A    between atoms: C_8  and  O_20
REMARK    5  A    between atoms: C_12  and  O_19
REMARK    6  A    between atoms: C_14  and  O_18
REMARK    7  A    between atoms: O_20  and  C_21
REMARK    8  A    between atoms: C_23  and  O_33
REMARK    9  A    between atoms: C_24  and  O_32
REMARK   10  A    between atoms: C_25  and  O_31
REMARK   11  A    between atoms: C_27  and  C_29
REMARK   12  A    between atoms: C_29  and  O_30
REMARK   13  A    between atoms: O_33  and  C_34
REMARK   14  A    between atoms: C_36  and  O_47
REMARK   15  A    between atoms: C_38  and  O_46
REMARK   16  A    between atoms: C_39  and  O_45
REMARK   17  A    between atoms: C_41  and  C_43
REMARK   18  A    between atoms: C_43  and  O_44
REMARK                            x       y       z     vdW  Elec       q    Type
REMARK                         _______ _______ _______ _____ _____    ______ ____
ROOT
ATOM      1  C   UNL     1       5.720  -1.200  26.018  0.00  0.00    +0.340 C 
ATOM      2  O   UNL     1       5.049  -1.253  27.310  0.00  0.00    -0.331 OA
ATOM      3  C   UNL     1       3.854  -0.439  27.410  0.00  0.00    +0.179 C 
ATOM      4  C   UNL     1       3.987   0.989  26.815  0.00  0.00    +0.177 C 
ATOM      5  C   UNL     1       4.925   1.058  25.600  0.00  0.00    +0.180 C 
ATOM      6  C   UNL     1       6.220   0.249  25.903  0.00  0.00    +0.221 C 
ENDROOT
BRANCH   5   7
ATOM      7  O   UNL     1       5.154   2.430  25.252  0.00  0.00    -0.386 OA
ATOM      8  H   UNL     1       4.903   2.964  26.021  0.00  0.00    +0.210 HD
ENDBRANCH   5   7
BRANCH   4   9
ATOM      9  O   UNL     1       4.493   1.918  27.791  0.00  0.00    -0.386 OA
ATOM     10  H   UNL     1       4.357   1.495  28.661  0.00  0.00    +0.210 HD
ENDBRANCH   4   9
BRANCH   6  11
ATOM     11  O   UNL     1       7.239   0.585  24.974  0.00  0.00    -0.337 OA
BRANCH  11  12
ATOM     12  C   UNL     1       8.432   1.251  25.383  0.00  0.00    +0.282 C 
ATOM     13  O   UNL     1       8.387   2.679  25.310  0.00  0.00    -0.341 OA
ATOM     14  C   UNL     1       8.179   3.222  23.995  0.00  0.00    +0.178 C 
ATOM     15  C   UNL     1       9.055   2.608  22.878  0.00  0.00    +0.177 C 
ATOM     16  C   UNL     1       9.213   1.092  23.035  0.00  0.00    +0.179 C 
ATOM     17  C   UNL     1       9.552   0.714  24.476  0.00  0.00    +0.201 C 
BRANCH  17  18
ATOM     18  O   UNL     1      10.827   1.216  24.892  0.00  0.00    -0.384 OA
ATOM     19  H   UNL     1      10.875   2.144  24.592  0.00  0.00    +0.210 HD
ENDBRANCH  17  18
BRANCH  16  20
ATOM     20  O   UNL     1      10.238   0.614  22.153  0.00  0.00    -0.386 OA
ATOM     21  H   UNL     1       9.862  -0.136  21.656  0.00  0.00    +0.210 HD
ENDBRANCH  16  20
BRANCH  15  22
ATOM     22  O   UNL     1       8.486   2.883  21.581  0.00  0.00    -0.386 OA
ATOM     23  H   UNL     1       8.716   3.790  21.320  0.00  0.00    +0.210 HD
ENDBRANCH  15  22
BRANCH  14  24
ATOM     24  C   UNL     1       8.346   4.760  24.082  0.00  0.00    +0.190 C 
BRANCH  24  25
ATOM     25  O   UNL     1       9.226   5.281  23.085  0.00  0.00    -0.392 OA
ATOM     26  H   UNL     1       9.199   4.683  22.318  0.00  0.00    +0.210 HD
ENDBRANCH  24  25
ENDBRANCH  14  24
ENDBRANCH  11  12
ENDBRANCH   6  11
BRANCH   3  27
ATOM     27  C   UNL     1       3.466  -0.374  28.908  0.00  0.00    +0.190 C 
BRANCH  27  28
ATOM     28  O   UNL     1       4.586  -0.139  29.765  0.00  0.00    -0.392 OA
ATOM     29  H   UNL     1       4.277   0.373  30.528  0.00  0.00    +0.210 HD
ENDBRANCH  27  28
ENDBRANCH   3  27
BRANCH   1  30
ATOM     30  O   UNL     1       4.759  -1.607  25.021  0.00  0.00    -0.453 OA
BRANCH  30  41
ATOM     31  C   UNL     1       5.538  -3.803  24.418  0.00  0.00    +0.181 A 
ATOM     32  O   UNL     1       5.371  -5.201  24.466  0.00  0.00    -0.451 OA
ATOM     33  C   UNL     1       4.135  -5.736  24.788  0.00  0.00    +0.147 A 
ATOM     34  C   UNL     1       3.017  -4.965  25.054  0.00  0.00    +0.109 A 
ATOM     35  C   UNL     1       1.771  -5.580  25.271  0.00  0.00    +0.135 A 
ATOM     36  C   UNL     1       1.642  -6.966  25.263  0.00  0.00    +0.091 A 
ATOM     37  C   UNL     1       2.775  -7.732  25.092  0.00  0.00    +0.124 A 
ATOM     38  C   UNL     1       3.207  -3.517  25.147  0.00  0.00    +0.238 A 
ATOM     39  O   UNL     1       2.293  -2.822  25.583  0.00  0.00    -0.283 OA
ATOM     40  C   UNL     1       4.022  -7.137  24.865  0.00  0.00    +0.092 A 
ATOM     41  C   UNL     1       4.536  -2.943  24.749  0.00  0.00    +0.214 A 
BRANCH  31  43
ATOM     42  C   UNL     1       8.058  -3.500  24.911  0.00  0.00    +0.015 A 
ATOM     43  C   UNL     1       6.954  -3.360  24.038  0.00  0.00    +0.025 A 
ATOM     44  C   UNL     1       7.263  -2.745  22.810  0.00  0.00    +0.060 A 
ATOM     45  C   UNL     1       8.590  -2.390  22.491  0.00  0.00    +0.159 A 
ATOM     46  C   UNL     1       9.650  -2.634  23.357  0.00  0.00    +0.158 A 
ATOM     47  C   UNL     1       9.386  -3.179  24.590  0.00  0.00    +0.050 A 
BRANCH  46  48
ATOM     48  O   UNL     1      10.916  -2.302  22.969  0.00  0.00    -0.503 OA
ATOM     49  H   UNL     1      11.340  -3.092  22.583  0.00  0.00    +0.292 HD
ENDBRANCH  46  48
BRANCH  45  50
ATOM     50  O   UNL     1       8.863  -1.780  21.296  0.00  0.00    -0.503 OA
ATOM     51  H   UNL     1       9.469  -1.045  21.528  0.00  0.00    +0.292 HD
ENDBRANCH  45  50
ENDBRANCH  31  43
BRANCH  37  52
ATOM     52  O   UNL     1       2.698  -9.094  25.129  0.00  0.00    -0.507 OA
ATOM     53  H   UNL     1       2.149  -9.364  25.888  0.00  0.00    +0.292 HD
ENDBRANCH  37  52
BRANCH  35  54
ATOM     54  O   UNL     1       0.609  -4.889  25.533  0.00  0.00    -0.506 OA
ATOM     55  H   UNL     1       0.649  -4.021  25.080  0.00  0.00    +0.292 HD
ENDBRANCH  35  54
ENDBRANCH  30  41
ENDBRANCH   1  30
TORSDOF 18
ENDMDL
MODEL 6
REMARK VINA RESULT:      -6.8      1.798      2.930
REMARK  Name = 
REMARK  18 active torsions:
REMARK  status: ('A' for Active; 'I' for Inactive)
REMARK    1  A    between atoms: C_3  and  O_49
REMARK    2  A    between atoms: C_4  and  O_48
REMARK    3  A    between atoms: C_6  and  C_7
REMARK    4  A    between atoms: C_8  and  O_20
REMARK    5  A    between atoms: C_12  and  O_19
REMARK    6  A    between atoms: C_14  and  O_18
REMARK    7  A    between atoms: O_20  and  C_21
REMARK    8  A    between atoms: C_23  and  O_33
REMARK    9  A    between atoms: C_24  and  O_32
REMARK   10  A    between atoms: C_25  and  O_31
REMARK   11  A    between atoms: C_27  and  C_29
REMARK   12  A    between atoms: C_29  and  O_30
REMARK   13  A    between atoms: O_33  and  C_34
REMARK   14  A    between atoms: C_36  and  O_47
REMARK   15  A    between atoms: C_38  and  O_46
REMARK   16  A    between atoms: C_39  and  O_45
REMARK   17  A    between atoms: C_41  and  C_43
REMARK   18  A    between atoms: C_43  and  O_44
REMARK                            x       y       z     vdW  Elec       q    Type
REMARK                         _______ _______ _______ _____ _____    ______ ____
ROOT
ATOM      1  C   UNL     1       5.159  -1.360  26.329  0.00  0.00    +0.340 C 
ATOM      2  O   UNL     1       4.224  -0.277  26.057  0.00  0.00    -0.331 OA
ATOM      3  C   UNL     1       3.941   0.583  27.188  0.00  0.00    +0.179 C 
ATOM      4  C   UNL     1       3.686  -0.164  28.526  0.00  0.00    +0.177 C 
ATOM      5  C   UNL     1       4.499  -1.460  28.665  0.00  0.00    +0.180 C 
ATOM      6  C   UNL     1       4.423  -2.261  27.333  0.00  0.00    +0.221 C 
ENDROOT
BRANCH   5   7
ATOM      7  O   UNL     1       4.048  -2.184  29.817  0.00  0.00    -0.386 OA
ATOM      8  H   UNL     1       4.837  -2.500  30.281  0.00  0.00    +0.210 HD
ENDBRANCH   5   7
BRANCH   4   9
ATOM      9  O   UNL     1       2.298  -0.520  28.670  0.00  0.00    -0.386 OA
ATOM     10  H   UNL     1       2.288  -1.386  29.121  0.00  0.00    +0.210 HD
ENDBRANCH   4   9
BRANCH   6  11
ATOM     11  O   UNL     1       4.845  -3.601  27.539  0.00  0.00    -0.337 OA
BRANCH  11  12
ATOM     12  C   UNL     1       5.875  -4.189  26.748  0.00  0.00    +0.282 C 
ATOM     13  O   UNL     1       5.469  -4.623  25.446  0.00  0.00    -0.341 OA
ATOM     14  C   UNL     1       4.457  -5.643  25.425  0.00  0.00    +0.178 C 
ATOM     15  C   UNL     1       4.692  -6.831  26.388  0.00  0.00    +0.177 C 
ATOM     16  C   UNL     1       5.255  -6.376  27.738  0.00  0.00    +0.179 C 
ATOM     17  C   UNL     1       6.404  -5.386  27.558  0.00  0.00    +0.201 C 
BRANCH  17  18
ATOM     18  O   UNL     1       7.541  -5.972  26.915  0.00  0.00    -0.384 OA
ATOM     19  H   UNL     1       8.121  -5.234  26.643  0.00  0.00    +0.210 HD
ENDBRANCH  17  18
BRANCH  16  20
ATOM     20  O   UNL     1       5.707  -7.514  28.486  0.00  0.00    -0.386 OA
ATOM     21  H   UNL     1       5.016  -8.198  28.414  0.00  0.00    +0.210 HD
ENDBRANCH  16  20
BRANCH  15  22
ATOM     22  O   UNL     1       3.460  -7.547  26.617  0.00  0.00    -0.386 OA
ATOM     23  H   UNL     1       2.778  -7.204  26.015  0.00  0.00    +0.210 HD
ENDBRANCH  15  22
BRANCH  14  24
ATOM     24  C   UNL     1       4.284  -6.113  23.959  0.00  0.00    +0.190 C 
BRANCH  24  25
ATOM     25  O   UNL     1       4.480  -7.519  23.798  0.00  0.00    -0.392 OA
ATOM     26  H   UNL     1       5.397  -7.663  23.508  0.00  0.00    +0.210 HD
ENDBRANCH  24  25
ENDBRANCH  14  24
ENDBRANCH  11  12
ENDBRANCH   6  11
BRANCH   3  27
ATOM     27  C   UNL     1       2.721   1.457  26.808  0.00  0.00    +0.190 C 
BRANCH  27  28
ATOM     28  O   UNL     1       1.608   0.690  26.342  0.00  0.00    -0.392 OA
ATOM     29  H   UNL     1       1.206   0.250  27.107  0.00  0.00    +0.210 HD
ENDBRANCH  27  28
ENDBRANCH   3  27
BRANCH   1  30
ATOM     30  O   UNL     1       6.379  -0.759  26.810  0.00  0.00    -0.453 OA
BRANCH  30  41
ATOM     31  C   UNL     1       7.491  -0.136  24.768  0.00  0.00    +0.181 A 
ATOM     32  O   UNL     1       7.905   0.874  23.876  0.00  0.00    -0.451 OA
ATOM     33  C   UNL     1       7.976   2.187  24.308  0.00  0.00    +0.147 A 
ATOM     34  C   UNL     1       7.678   2.582  25.600  0.00  0.00    +0.109 A 
ATOM     35  C   UNL     1       7.874   3.918  25.993  0.00  0.00    +0.135 A 
ATOM     36  C   UNL     1       8.330   4.873  25.090  0.00  0.00    +0.091 A 
ATOM     37  C   UNL     1       8.535   4.497  23.780  0.00  0.00    +0.124 A 
ATOM     38  C   UNL     1       7.112   1.573  26.496  0.00  0.00    +0.238 A 
ATOM     39  O   UNL     1       6.643   1.927  27.575  0.00  0.00    -0.283 OA
ATOM     40  C   UNL     1       8.355   3.169  23.374  0.00  0.00    +0.092 A 
ATOM     41  C   UNL     1       7.084   0.143  26.037  0.00  0.00    +0.214 A 
BRANCH  31  43
ATOM     42  C   UNL     1       6.571  -1.910  23.129  0.00  0.00    +0.015 A 
ATOM     43  C   UNL     1       7.472  -1.538  24.154  0.00  0.00    +0.025 A 
ATOM     44  C   UNL     1       8.319  -2.577  24.583  0.00  0.00    +0.060 A 
ATOM     45  C   UNL     1       8.290  -3.841  23.958  0.00  0.00    +0.159 A 
ATOM     46  C   UNL     1       7.441  -4.121  22.894  0.00  0.00    +0.158 A 
ATOM     47  C   UNL     1       6.556  -3.155  22.480  0.00  0.00    +0.050 A 
BRANCH  46  48
ATOM     48  O   UNL     1       7.493  -5.353  22.308  0.00  0.00    -0.503 OA
ATOM     49  H   UNL     1       6.815  -5.392  21.606  0.00  0.00    +0.292 HD
ENDBRANCH  46  48
BRANCH  45  50
ATOM     50  O   UNL     1       9.115  -4.839  24.404  0.00  0.00    -0.503 OA
ATOM     51  H   UNL     1       9.794  -4.929  23.702  0.00  0.00    +0.292 HD
ENDBRANCH  45  50
ENDBRANCH  31  43
BRANCH  37  52
ATOM     52  O   UNL     1       8.934   5.415  22.854  0.00  0.00    -0.507 OA
ATOM     53  H   UNL     1       8.559   6.286  23.082  0.00  0.00    +0.292 HD
ENDBRANCH  37  52
BRANCH  35  54
ATOM     54  O   UNL     1       7.610   4.393  27.259  0.00  0.00    -0.506 OA
ATOM     55  H   UNL     1       7.017   5.170  27.187  0.00  0.00    +0.292 HD
ENDBRANCH  35  54
ENDBRANCH  30  41
ENDBRANCH   1  30
TORSDOF 18
ENDMDL
MODEL 7
REMARK VINA RESULT:      -6.6      2.272      6.902
REMARK  Name = 
REMARK  18 active torsions:
REMARK  status: ('A' for Active; 'I' for Inactive)
REMARK    1  A    between atoms: C_3  and  O_49
REMARK    2  A    between atoms: C_4  and  O_48
REMARK    3  A    between atoms: C_6  and  C_7
REMARK    4  A    between atoms: C_8  and  O_20
REMARK    5  A    between atoms: C_12  and  O_19
REMARK    6  A    between atoms: C_14  and  O_18
REMARK    7  A    between atoms: O_20  and  C_21
REMARK    8  A    between atoms: C_23  and  O_33
REMARK    9  A    between atoms: C_24  and  O_32
REMARK   10  A    between atoms: C_25  and  O_31
REMARK   11  A    between atoms: C_27  and  C_29
REMARK   12  A    between atoms: C_29  and  O_30
REMARK   13  A    between atoms: O_33  and  C_34
REMARK   14  A    between atoms: C_36  and  O_47
REMARK   15  A    between atoms: C_38  and  O_46
REMARK   16  A    between atoms: C_39  and  O_45
REMARK   17  A    between atoms: C_41  and  C_43
REMARK   18  A    between atoms: C_43  and  O_44
REMARK                            x       y       z     vdW  Elec       q    Type
REMARK                         _______ _______ _______ _____ _____    ______ ____
ROOT
ATOM      1  C   UNL     1       5.651  -2.074  24.227  0.00  0.00    +0.340 C 
ATOM      2  O   UNL     1       5.009  -3.332  23.869  0.00  0.00    -0.331 OA
ATOM      3  C   UNL     1       5.701  -4.520  24.326  0.00  0.00    +0.179 C 
ATOM      4  C   UNL     1       7.239  -4.502  24.110  0.00  0.00    +0.177 C 
ATOM      5  C   UNL     1       7.854  -3.099  24.231  0.00  0.00    +0.180 C 
ATOM      6  C   UNL     1       6.975  -2.082  23.446  0.00  0.00    +0.221 C 
ENDROOT
BRANCH   5   7
ATOM      7  O   UNL     1       9.225  -3.143  23.812  0.00  0.00    -0.386 OA
ATOM      8  H   UNL     1       9.751  -2.736  24.517  0.00  0.00    +0.210 HD
ENDBRANCH   5   7
BRANCH   4   9
ATOM      9  O   UNL     1       7.591  -5.006  22.808  0.00  0.00    -0.386 OA
ATOM     10  H   UNL     1       8.356  -5.598  22.946  0.00  0.00    +0.210 HD
ENDBRANCH   4   9
BRANCH   6  11
ATOM     11  O   UNL     1       7.691  -0.875  23.233  0.00  0.00    -0.337 OA
BRANCH  11  12
ATOM     12  C   UNL     1       7.481   0.272  24.054  0.00  0.00    +0.282 C 
ATOM     13  O   UNL     1       7.006   1.434  23.368  0.00  0.00    -0.341 OA
ATOM     14  C   UNL     1       7.883   1.951  22.353  0.00  0.00    +0.178 C 
ATOM     15  C   UNL     1       9.368   2.083  22.764  0.00  0.00    +0.177 C 
ATOM     16  C   UNL     1       9.839   0.900  23.615  0.00  0.00    +0.179 C 
ATOM     17  C   UNL     1       8.835   0.573  24.719  0.00  0.00    +0.201 C 
BRANCH  17  18
ATOM     18  O   UNL     1       8.707   1.629  25.678  0.00  0.00    -0.384 OA
ATOM     19  H   UNL     1       9.527   1.628  26.207  0.00  0.00    +0.210 HD
ENDBRANCH  17  18
BRANCH  16  20
ATOM     20  O   UNL     1      11.119   1.194  24.193  0.00  0.00    -0.386 OA
ATOM     21  H   UNL     1      11.725   1.401  23.458  0.00  0.00    +0.210 HD
ENDBRANCH  16  20
BRANCH  15  22
ATOM     22  O   UNL     1      10.210   2.178  21.596  0.00  0.00    -0.386 OA
ATOM     23  H   UNL     1      10.568   3.080  21.535  0.00  0.00    +0.210 HD
ENDBRANCH  15  22
BRANCH  14  24
ATOM     24  C   UNL     1       7.297   3.297  21.857  0.00  0.00    +0.190 C 
BRANCH  24  25
ATOM     25  O   UNL     1       8.085   4.423  22.246  0.00  0.00    -0.392 OA
ATOM     26  H   UNL     1       8.997   4.271  21.943  0.00  0.00    +0.210 HD
ENDBRANCH  24  25
ENDBRANCH  14  24
ENDBRANCH  11  12
ENDBRANCH   6  11
BRANCH   3  27
ATOM     27  C   UNL     1       5.062  -5.731  23.602  0.00  0.00    +0.190 C 
BRANCH  27  28
ATOM     28  O   UNL     1       4.732  -5.456  22.239  0.00  0.00    -0.392 OA
ATOM     29  H   UNL     1       4.239  -6.215  21.890  0.00  0.00    +0.210 HD
ENDBRANCH  27  28
ENDBRANCH   3  27
BRANCH   1  30
ATOM     30  O   UNL     1       5.777  -2.052  25.664  0.00  0.00    -0.453 OA
BRANCH  30  41
ATOM     31  C   UNL     1       4.284  -2.339  27.530  0.00  0.00    +0.181 A 
ATOM     32  O   UNL     1       3.468  -1.765  28.526  0.00  0.00    -0.451 OA
ATOM     33  C   UNL     1       3.045  -0.453  28.397  0.00  0.00    +0.147 A 
ATOM     34  C   UNL     1       3.361   0.347  27.314  0.00  0.00    +0.109 A 
ATOM     35  C   UNL     1       2.808   1.635  27.202  0.00  0.00    +0.135 A 
ATOM     36  C   UNL     1       1.968   2.145  28.188  0.00  0.00    +0.091 A 
ATOM     37  C   UNL     1       1.731   1.382  29.311  0.00  0.00    +0.124 A 
ATOM     38  C   UNL     1       4.320  -0.185  26.344  0.00  0.00    +0.238 A 
ATOM     39  O   UNL     1       4.784   0.566  25.490  0.00  0.00    -0.283 OA
ATOM     40  C   UNL     1       2.266   0.093  29.434  0.00  0.00    +0.092 A 
ATOM     41  C   UNL     1       4.736  -1.623  26.465  0.00  0.00    +0.214 A 
BRANCH  31  43
ATOM     42  C   UNL     1       3.714  -4.777  28.177  0.00  0.00    +0.015 A 
ATOM     43  C   UNL     1       4.664  -3.797  27.803  0.00  0.00    +0.025 A 
ATOM     44  C   UNL     1       5.988  -4.271  27.741  0.00  0.00    +0.060 A 
ATOM     45  C   UNL     1       6.282  -5.632  27.963  0.00  0.00    +0.159 A 
ATOM     46  C   UNL     1       5.291  -6.568  28.241  0.00  0.00    +0.158 A 
ATOM     47  C   UNL     1       3.992  -6.139  28.368  0.00  0.00    +0.050 A 
BRANCH  46  48
ATOM     48  O   UNL     1       5.639  -7.877  28.405  0.00  0.00    -0.503 OA
ATOM     49  H   UNL     1       6.603  -7.961  28.279  0.00  0.00    +0.292 HD
ENDBRANCH  46  48
BRANCH  45  50
ATOM     50  O   UNL     1       7.579  -6.065  27.911  0.00  0.00    -0.503 OA
ATOM     51  H   UNL     1       8.106  -5.305  28.238  0.00  0.00    +0.292 HD
ENDBRANCH  45  50
ENDBRANCH  31  43
BRANCH  37  52
ATOM     52  O   UNL     1       0.954   1.866  30.322  0.00  0.00    -0.507 OA
ATOM     53  H   UNL     1       0.337   1.171  30.615  0.00  0.00    +0.292 HD
ENDBRANCH  37  52
BRANCH  35  54
ATOM     54  O   UNL     1       3.064   2.493  26.155  0.00  0.00    -0.506 OA
ATOM     55  H   UNL     1       2.453   2.281  25.419  0.00  0.00    +0.292 HD
ENDBRANCH  35  54
ENDBRANCH  30  41
ENDBRANCH   1  30
TORSDOF 18
ENDMDL
MODEL 8
REMARK VINA RESULT:      -6.6      2.214      6.055
REMARK  Name = 
REMARK  18 active torsions:
REMARK  status: ('A' for Active; 'I' for Inactive)
REMARK    1  A    between atoms: C_3  and  O_49
REMARK    2  A    between atoms: C_4  and  O_48
REMARK    3  A    between atoms: C_6  and  C_7
REMARK    4  A    between atoms: C_8  and  O_20
REMARK    5  A    between atoms: C_12  and  O_19
REMARK    6  A    between atoms: C_14  and  O_18
REMARK    7  A    between atoms: O_20  and  C_21
REMARK    8  A    between atoms: C_23  and  O_33
REMARK    9  A    between atoms: C_24  and  O_32
REMARK   10  A    between atoms: C_25  and  O_31
REMARK   11  A    between atoms: C_27  and  C_29
REMARK   12  A    between atoms: C_29  and  O_30
REMARK   13  A    between atoms: O_33  and  C_34
REMARK   14  A    between atoms: C_36  and  O_47
REMARK   15  A    between atoms: C_38  and  O_46
REMARK   16  A    between atoms: C_39  and  O_45
REMARK   17  A    between atoms: C_41  and  C_43
REMARK   18  A    between atoms: C_43  and  O_44
REMARK                            x       y       z     vdW  Elec       q    Type
REMARK                         _______ _______ _______ _____ _____    ______ ____
ROOT
ATOM      1  C   UNL     1       6.263  -2.121  23.283  0.00  0.00    +0.340 C 
ATOM      2  O   UNL     1       5.880  -3.161  22.338  0.00  0.00    -0.331 OA
ATOM      3  C   UNL     1       5.876  -4.505  22.878  0.00  0.00    +0.179 C 
ATOM      4  C   UNL     1       7.110  -4.858  23.753  0.00  0.00    +0.177 C 
ATOM      5  C   UNL     1       7.660  -3.660  24.541  0.00  0.00    +0.180 C 
ATOM      6  C   UNL     1       7.736  -2.418  23.605  0.00  0.00    +0.221 C 
ENDROOT
BRANCH   5   7
ATOM      7  O   UNL     1       8.910  -4.021  25.146  0.00  0.00    -0.386 OA
ATOM      8  H   UNL     1       8.757  -4.837  25.647  0.00  0.00    +0.210 HD
ENDBRANCH   5   7
BRANCH   4   9
ATOM      9  O   UNL     1       8.192  -5.368  22.951  0.00  0.00    -0.386 OA
ATOM     10  H   UNL     1       8.327  -6.292  23.237  0.00  0.00    +0.210 HD
ENDBRANCH   4   9
BRANCH   6  11
ATOM     11  O   UNL     1       8.562  -1.417  24.181  0.00  0.00    -0.337 OA
BRANCH  11  12
ATOM     12  C   UNL     1       9.928  -1.269  23.803  0.00  0.00    +0.282 C 
ATOM     13  O   UNL     1      10.511   0.001  24.111  0.00  0.00    -0.341 OA
ATOM     14  C   UNL     1       9.899   1.132  23.467  0.00  0.00    +0.178 C 
ATOM     15  C   UNL     1       9.628   0.966  21.953  0.00  0.00    +0.177 C 
ATOM     16  C   UNL     1       9.130  -0.441  21.606  0.00  0.00    +0.179 C 
ATOM     17  C   UNL     1       9.978  -1.515  22.285  0.00  0.00    +0.201 C 
BRANCH  17  18
ATOM     18  O   UNL     1      11.332  -1.526  21.817  0.00  0.00    -0.384 OA
ATOM     19  H   UNL     1      11.804  -2.203  22.339  0.00  0.00    +0.210 HD
ENDBRANCH  17  18
BRANCH  16  20
ATOM     20  O   UNL     1       9.155  -0.630  20.184  0.00  0.00    -0.386 OA
ATOM     21  H   UNL     1       8.420  -1.232  19.963  0.00  0.00    +0.210 HD
ENDBRANCH  16  20
BRANCH  15  22
ATOM     22  O   UNL     1       8.648   1.927  21.507  0.00  0.00    -0.386 OA
ATOM     23  H   UNL     1       8.956   2.332  20.678  0.00  0.00    +0.210 HD
ENDBRANCH  15  22
BRANCH  14  24
ATOM     24  C   UNL     1      10.768   2.379  23.766  0.00  0.00    +0.190 C 
BRANCH  24  25
ATOM     25  O   UNL     1      10.897   3.250  22.641  0.00  0.00    -0.392 OA
ATOM     26  H   UNL     1      10.347   4.035  22.805  0.00  0.00    +0.210 HD
ENDBRANCH  24  25
ENDBRANCH  14  24
ENDBRANCH  11  12
ENDBRANCH   6  11
BRANCH   3  27
ATOM     27  C   UNL     1       5.756  -5.481  21.682  0.00  0.00    +0.190 C 
BRANCH  27  28
ATOM     28  O   UNL     1       6.052  -6.835  22.035  0.00  0.00    -0.392 OA
ATOM     29  H   UNL     1       5.793  -7.401  21.291  0.00  0.00    +0.210 HD
ENDBRANCH  27  28
ENDBRANCH   3  27
BRANCH   1  30
ATOM     30  O   UNL     1       5.353  -2.203  24.400  0.00  0.00    -0.453 OA
BRANCH  30  41
ATOM     31  C   UNL     1       5.615  -1.789  26.757  0.00  0.00    +0.181 A 
ATOM     32  O   UNL     1       6.058  -0.945  27.795  0.00  0.00    -0.451 OA
ATOM     33  C   UNL     1       6.287   0.397  27.540  0.00  0.00    +0.147 A 
ATOM     34  C   UNL     1       6.083   0.984  26.304  0.00  0.00    +0.109 A 
ATOM     35  C   UNL     1       6.237   2.373  26.148  0.00  0.00    +0.135 A 
ATOM     36  C   UNL     1       6.631   3.176  27.214  0.00  0.00    +0.091 A 
ATOM     37  C   UNL     1       6.925   2.576  28.419  0.00  0.00    +0.124 A 
ATOM     38  C   UNL     1       5.761   0.097  25.185  0.00  0.00    +0.238 A 
ATOM     39  O   UNL     1       5.779   0.547  24.043  0.00  0.00    -0.283 OA
ATOM     40  C   UNL     1       6.768   1.195  28.595  0.00  0.00    +0.092 A 
ATOM     41  C   UNL     1       5.467  -1.347  25.478  0.00  0.00    +0.214 A 
BRANCH  31  43
ATOM     42  C   UNL     1       4.106  -3.807  27.338  0.00  0.00    +0.015 A 
ATOM     43  C   UNL     1       5.395  -3.242  27.189  0.00  0.00    +0.025 A 
ATOM     44  C   UNL     1       6.450  -4.117  27.508  0.00  0.00    +0.060 A 
ATOM     45  C   UNL     1       6.196  -5.458  27.863  0.00  0.00    +0.159 A 
ATOM     46  C   UNL     1       4.909  -5.982  27.908  0.00  0.00    +0.158 A 
ATOM     47  C   UNL     1       3.846  -5.148  27.660  0.00  0.00    +0.050 A 
BRANCH  46  48
ATOM     48  O   UNL     1       4.737  -7.299  28.220  0.00  0.00    -0.503 OA
ATOM     49  H   UNL     1       5.415  -7.556  28.873  0.00  0.00    +0.292 HD
ENDBRANCH  46  48
BRANCH  45  50
ATOM     50  O   UNL     1       7.239  -6.286  28.183  0.00  0.00    -0.503 OA
ATOM     51  H   UNL     1       6.813  -7.082  28.565  0.00  0.00    +0.292 HD
ENDBRANCH  45  50
ENDBRANCH  31  43
BRANCH  37  52
ATOM     52  O   UNL     1       7.363   3.322  29.473  0.00  0.00    -0.507 OA
ATOM     53  H   UNL     1       6.681   3.326  30.170  0.00  0.00    +0.292 HD
ENDBRANCH  37  52
BRANCH  35  54
ATOM     54  O   UNL     1       6.047   3.038  24.957  0.00  0.00    -0.506 OA
ATOM     55  H   UNL     1       6.863   2.962  24.421  0.00  0.00    +0.292 HD
ENDBRANCH  35  54
ENDBRANCH  30  41
ENDBRANCH   1  30
TORSDOF 18
ENDMDL
MODEL 9
REMARK VINA RESULT:      -6.5      2.425      5.922
REMARK  Name = 
REMARK  18 active torsions:
REMARK  status: ('A' for Active; 'I' for Inactive)
REMARK    1  A    between atoms: C_3  and  O_49
REMARK    2  A    between atoms: C_4  and  O_48
REMARK    3  A    between atoms: C_6  and  C_7
REMARK    4  A    between atoms: C_8  and  O_20
REMARK    5  A    between atoms: C_12  and  O_19
REMARK    6  A    between atoms: C_14  and  O_18
REMARK    7  A    between atoms: O_20  and  C_21
REMARK    8  A    between atoms: C_23  and  O_33
REMARK    9  A    between atoms: C_24  and  O_32
REMARK   10  A    between atoms: C_25  and  O_31
REMARK   11  A    between atoms: C_27  and  C_29
REMARK   12  A    between atoms: C_29  and  O_30
REMARK   13  A    between atoms: O_33  and  C_34
REMARK   14  A    between atoms: C_36  and  O_47
REMARK   15  A    between atoms: C_38  and  O_46
REMARK   16  A    between atoms: C_39  and  O_45
REMARK   17  A    between atoms: C_41  and  C_43
REMARK   18  A    between atoms: C_43  and  O_44
REMARK                            x       y       z     vdW  Elec       q    Type
REMARK                         _______ _______ _______ _____ _____    ______ ____
ROOT
ATOM      1  C   UNL     1       6.572  -2.322  25.117  0.00  0.00    +0.340 C 
ATOM      2  O   UNL     1       7.845  -2.076  24.453  0.00  0.00    -0.331 OA
ATOM      3  C   UNL     1       7.760  -1.908  23.016  0.00  0.00    +0.179 C 
ATOM      4  C   UNL     1       6.847  -2.935  22.293  0.00  0.00    +0.177 C 
ATOM      5  C   UNL     1       5.644  -3.382  23.138  0.00  0.00    +0.180 C 
ATOM      6  C   UNL     1       6.119  -3.691  24.587  0.00  0.00    +0.221 C 
ENDROOT
BRANCH   5   7
ATOM      7  O   UNL     1       4.984  -4.475  22.486  0.00  0.00    -0.386 OA
ATOM      8  H   UNL     1       4.128  -4.592  22.924  0.00  0.00    +0.210 HD
ENDBRANCH   5   7
BRANCH   4   9
ATOM      9  O   UNL     1       7.577  -4.125  21.938  0.00  0.00    -0.386 OA
ATOM     10  H   UNL     1       6.912  -4.836  21.862  0.00  0.00    +0.210 HD
ENDBRANCH   4   9
BRANCH   6  11
ATOM     11  O   UNL     1       5.130  -4.438  25.280  0.00  0.00    -0.337 OA
BRANCH  11  12
ATOM     12  C   UNL     1       5.336  -5.806  25.628  0.00  0.00    +0.282 C 
ATOM     13  O   UNL     1       4.543  -6.746  24.897  0.00  0.00    -0.341 OA
ATOM     14  C   UNL     1       3.121  -6.608  25.058  0.00  0.00    +0.178 C 
ATOM     15  C   UNL     1       2.632  -6.441  26.516  0.00  0.00    +0.177 C 
ATOM     16  C   UNL     1       3.559  -5.540  27.337  0.00  0.00    +0.179 C 
ATOM     17  C   UNL     1       5.026  -5.914  27.131  0.00  0.00    +0.201 C 
BRANCH  17  18
ATOM     18  O   UNL     1       5.334  -7.224  27.620  0.00  0.00    -0.384 OA
ATOM     19  H   UNL     1       4.596  -7.805  27.351  0.00  0.00    +0.210 HD
ENDBRANCH  17  18
BRANCH  16  20
ATOM     20  O   UNL     1       3.224  -5.633  28.728  0.00  0.00    -0.386 OA
ATOM     21  H   UNL     1       3.813  -5.020  29.206  0.00  0.00    +0.210 HD
ENDBRANCH  16  20
BRANCH  15  22
ATOM     22  O   UNL     1       1.301  -5.884  26.541  0.00  0.00    -0.386 OA
ATOM     23  H   UNL     1       1.361  -4.916  26.471  0.00  0.00    +0.210 HD
ENDBRANCH  15  22
BRANCH  14  24
ATOM     24  C   UNL     1       2.443  -7.810  24.354  0.00  0.00    +0.190 C 
BRANCH  24  25
ATOM     25  O   UNL     1       2.701  -9.055  25.006  0.00  0.00    -0.392 OA
ATOM     26  H   UNL     1       1.885  -9.584  24.975  0.00  0.00    +0.210 HD
ENDBRANCH  24  25
ENDBRANCH  14  24
ENDBRANCH  11  12
ENDBRANCH   6  11
BRANCH   3  27
ATOM     27  C   UNL     1       9.203  -1.971  22.460  0.00  0.00    +0.190 C 
BRANCH  27  28
ATOM     28  O   UNL     1       9.320  -1.423  21.145  0.00  0.00    -0.392 OA
ATOM     29  H   UNL     1      10.179  -1.690  20.783  0.00  0.00    +0.210 HD
ENDBRANCH  27  28
ENDBRANCH   3  27
BRANCH   1  30
ATOM     30  O   UNL     1       5.704  -1.213  24.799  0.00  0.00    -0.453 OA
BRANCH  30  41
ATOM     31  C   UNL     1       6.102   1.061  25.480  0.00  0.00    +0.181 A 
ATOM     32  O   UNL     1       5.674   2.206  26.180  0.00  0.00    -0.451 OA
ATOM     33  C   UNL     1       4.700   2.091  27.158  0.00  0.00    +0.147 A 
ATOM     34  C   UNL     1       4.118   0.889  27.516  0.00  0.00    +0.109 A 
ATOM     35  C   UNL     1       3.211   0.835  28.590  0.00  0.00    +0.135 A 
ATOM     36  C   UNL     1       2.853   1.986  29.285  0.00  0.00    +0.091 A 
ATOM     37  C   UNL     1       3.362   3.196  28.865  0.00  0.00    +0.124 A 
ATOM     38  C   UNL     1       4.447  -0.284  26.704  0.00  0.00    +0.238 A 
ATOM     39  O   UNL     1       3.798  -1.316  26.855  0.00  0.00    -0.283 OA
ATOM     40  C   UNL     1       4.273   3.266  27.804  0.00  0.00    +0.092 A 
ATOM     41  C   UNL     1       5.538  -0.161  25.680  0.00  0.00    +0.214 A 
BRANCH  31  43
ATOM     42  C   UNL     1       6.899   1.578  23.075  0.00  0.00    +0.015 A 
ATOM     43  C   UNL     1       7.190   1.340  24.439  0.00  0.00    +0.025 A 
ATOM     44  C   UNL     1       8.564   1.344  24.745  0.00  0.00    +0.060 A 
ATOM     45  C   UNL     1       9.525   1.646  23.757  0.00  0.00    +0.159 A 
ATOM     46  C   UNL     1       9.171   1.959  22.450  0.00  0.00    +0.158 A 
ATOM     47  C   UNL     1       7.845   1.909  22.093  0.00  0.00    +0.050 A 
BRANCH  46  48
ATOM     48  O   UNL     1      10.149   2.281  21.554  0.00  0.00    -0.503 OA
ATOM     49  H   UNL     1      10.787   1.544  21.512  0.00  0.00    +0.292 HD
ENDBRANCH  46  48
BRANCH  45  50
ATOM     50  O   UNL     1      10.857   1.630  24.077  0.00  0.00    -0.503 OA
ATOM     51  H   UNL     1      10.926   2.206  24.868  0.00  0.00    +0.292 HD
ENDBRANCH  45  50
ENDBRANCH  31  43
BRANCH  37  52
ATOM     52  O   UNL     1       2.994   4.352  29.489  0.00  0.00    -0.507 OA
ATOM     53  H   UNL     1       3.062   4.232  30.454  0.00  0.00    +0.292 HD
ENDBRANCH  37  52
BRANCH  35  54
ATOM     54  O   UNL     1       2.594  -0.319  29.016  0.00  0.00    -0.506 OA
ATOM     55  H   UNL     1       1.633  -0.247  28.838  0.00  0.00    +0.292 HD
ENDBRANCH  35  54
ENDBRANCH  30  41
ENDBRANCH   1  30
TORSDOF 18
ENDMDL
