MODEL 1
REMARK VINA RESULT:      -7.3      0.000      0.000
REMARK  Name = 
REMARK  15 active torsions:
REMARK  status: ('A' for Active; 'I' for Inactive)
REMARK    1  A    between atoms: C_1  and  C_2
REMARK    2  A    between atoms: C_3  and  O_46
REMARK    3  A    between atoms: C_5  and  O_45
REMARK    4  A    between atoms: C_6  and  O_44
REMARK    5  A    between atoms: C_8  and  O_11
REMARK    6  A    between atoms: O_11  and  C_12
REMARK    7  A    between atoms: C_13  and  O_22
REMARK    8  A    between atoms: C_17  and  O_21
REMARK    9  A    between atoms: C_19  and  O_20
REMARK   10  A    between atoms: O_22  and  C_23
REMARK   11  A    between atoms: C_24  and  C_36
REMARK   12  A    between atoms: C_28  and  O_35
REMARK   13  A    between atoms: C_30  and  O_34
REMARK   14  A    between atoms: C_38  and  O_43
REMARK   15  A    between atoms: C_39  and  O_42
REMARK                            x       y       z     vdW  Elec       q    Type
REMARK                         _______ _______ _______ _____ _____    ______ ____
ROOT
ATOM      1  O   UNL     1       6.585  -0.307  26.239  0.00  0.00    -0.453 OA
ENDROOT
BRANCH   1   2
ATOM      2  C   UNL     1       7.494   0.446  25.483  0.00  0.00    +0.214 A 
ATOM      3  C   UNL     1       7.515   1.950  25.484  0.00  0.00    +0.238 A 
ATOM      4  O   UNL     1       6.615   2.610  25.990  0.00  0.00    -0.283 OA
ATOM      5  C   UNL     1       8.626   2.611  24.775  0.00  0.00    +0.109 A 
ATOM      6  C   UNL     1       9.501   1.812  24.039  0.00  0.00    +0.147 A 
ATOM      7  C   UNL     1      10.577   2.385  23.353  0.00  0.00    +0.092 A 
ATOM      8  C   UNL     1      10.752   3.769  23.388  0.00  0.00    +0.124 A 
ATOM      9  C   UNL     1       9.872   4.579  24.092  0.00  0.00    +0.091 A 
ATOM     10  O   UNL     1       9.347   0.453  23.913  0.00  0.00    -0.451 OA
ATOM     11  C   UNL     1       8.812   4.003  24.788  0.00  0.00    +0.135 A 
ATOM     12  C   UNL     1       8.358  -0.168  24.650  0.00  0.00    +0.181 A 
BRANCH  12  13
ATOM     13  C   UNL     1       8.280  -1.622  24.432  0.00  0.00    +0.025 A 
ATOM     14  C   UNL     1       8.996  -2.493  25.276  0.00  0.00    +0.015 A 
ATOM     15  C   UNL     1       9.026  -3.867  25.021  0.00  0.00    +0.050 A 
ATOM     16  C   UNL     1       8.350  -4.361  23.918  0.00  0.00    +0.158 A 
ATOM     17  C   UNL     1       7.624  -3.510  23.088  0.00  0.00    +0.159 A 
ATOM     18  C   UNL     1       7.567  -2.144  23.345  0.00  0.00    +0.060 A 
BRANCH  16  19
ATOM     19  O   UNL     1       8.430  -5.694  23.630  0.00  0.00    -0.503 OA
ATOM     20  H   UNL     1       7.580  -5.904  23.193  0.00  0.00    +0.292 HD
ENDBRANCH  16  19
BRANCH  17  21
ATOM     21  O   UNL     1       7.002  -4.069  22.006  0.00  0.00    -0.503 OA
ATOM     22  H   UNL     1       6.615  -4.919  22.280  0.00  0.00    +0.292 HD
ENDBRANCH  17  21
ENDBRANCH  12  13
BRANCH   8  23
ATOM     23  O   UNL     1      11.775   4.380  22.737  0.00  0.00    -0.507 OA
ATOM     24  H   UNL     1      11.884   3.975  21.860  0.00  0.00    +0.292 HD
ENDBRANCH   8  23
BRANCH  11  25
ATOM     25  O   UNL     1       7.961   4.826  25.473  0.00  0.00    -0.506 OA
ATOM     26  H   UNL     1       7.705   5.583  24.921  0.00  0.00    +0.292 HD
ENDBRANCH  11  25
ENDBRANCH   1   2
BRANCH   1  32
ATOM     27  C   UNL     1       4.854  -2.059  26.025  0.00  0.00    +0.221 C 
ATOM     28  C   UNL     1       4.106  -1.925  27.363  0.00  0.00    +0.180 C 
ATOM     29  C   UNL     1       3.093  -0.769  27.306  0.00  0.00    +0.171 C 
ATOM     30  C   UNL     1       3.795   0.510  26.871  0.00  0.00    +0.198 C 
ATOM     31  O   UNL     1       4.389   0.353  25.591  0.00  0.00    -0.337 OA
ATOM     32  C   UNL     1       5.382  -0.675  25.551  0.00  0.00    +0.340 C 
BRANCH  28  33
ATOM     33  O   UNL     1       5.042  -1.757  28.442  0.00  0.00    -0.386 OA
ATOM     34  H   UNL     1       4.774  -2.302  29.202  0.00  0.00    +0.210 HD
ENDBRANCH  28  33
BRANCH  29  35
ATOM     35  O   UNL     1       2.459  -0.569  28.568  0.00  0.00    -0.387 OA
ATOM     36  H   UNL     1       2.706   0.319  28.879  0.00  0.00    +0.210 HD
ENDBRANCH  29  35
BRANCH  27  37
ATOM     37  O   UNL     1       3.968  -2.669  25.055  0.00  0.00    -0.337 OA
BRANCH  37  41
ATOM     38  C   UNL     1       4.664  -6.513  26.779  0.00  0.00    +0.041 C 
ATOM     39  C   UNL     1       5.316  -6.049  25.475  0.00  0.00    +0.149 C 
ATOM     40  O   UNL     1       5.248  -4.619  25.321  0.00  0.00    -0.343 OA
ATOM     41  C   UNL     1       3.927  -4.110  25.070  0.00  0.00    +0.282 C 
ATOM     42  C   UNL     1       3.355  -4.717  23.767  0.00  0.00    +0.201 C 
ATOM     43  C   UNL     1       3.359  -6.244  23.867  0.00  0.00    +0.179 C 
ATOM     44  C   UNL     1       4.751  -6.769  24.238  0.00  0.00    +0.174 C 
BRANCH  42  45
ATOM     45  O   UNL     1       4.139  -4.303  22.630  0.00  0.00    -0.384 OA
ATOM     46  H   UNL     1       5.062  -4.263  22.944  0.00  0.00    +0.210 HD
ENDBRANCH  42  45
BRANCH  43  47
ATOM     47  O   UNL     1       2.951  -6.790  22.602  0.00  0.00    -0.386 OA
ATOM     48  H   UNL     1       3.763  -7.179  22.216  0.00  0.00    +0.210 HD
ENDBRANCH  43  47
BRANCH  44  49
ATOM     49  O   UNL     1       5.619  -6.556  23.109  0.00  0.00    -0.387 OA
ATOM     50  H   UNL     1       6.492  -6.932  23.362  0.00  0.00    +0.210 HD
ENDBRANCH  44  49
ENDBRANCH  37  41
ENDBRANCH  27  37
ENDBRANCH   1  32
TORSDOF 14
ENDMDL
MODEL 2
REMARK VINA RESULT:      -6.7      2.805      8.280
REMARK  Name = 
REMARK  15 active torsions:
REMARK  status: ('A' for Active; 'I' for Inactive)
REMARK    1  A    between atoms: C_1  and  C_2
REMARK    2  A    between atoms: C_3  and  O_46
REMARK    3  A    between atoms: C_5  and  O_45
REMARK    4  A    between atoms: C_6  and  O_44
REMARK    5  A    between atoms: C_8  and  O_11
REMARK    6  A    between atoms: O_11  and  C_12
REMARK    7  A    between atoms: C_13  and  O_22
REMARK    8  A    between atoms: C_17  and  O_21
REMARK    9  A    between atoms: C_19  and  O_20
REMARK   10  A    between atoms: O_22  and  C_23
REMARK   11  A    between atoms: C_24  and  C_36
REMARK   12  A    between atoms: C_28  and  O_35
REMARK   13  A    between atoms: C_30  and  O_34
REMARK   14  A    between atoms: C_38  and  O_43
REMARK   15  A    between atoms: C_39  and  O_42
REMARK                            x       y       z     vdW  Elec       q    Type
REMARK                         _______ _______ _______ _____ _____    ______ ____
ROOT
ATOM      1  O   UNL     1       5.258   0.738  24.630  0.00  0.00    -0.453 OA
ENDROOT
BRANCH   1   2
ATOM      2  C   UNL     1       5.869  -0.404  25.166  0.00  0.00    +0.214 A 
ATOM      3  C   UNL     1       5.210  -1.283  26.194  0.00  0.00    +0.238 A 
ATOM      4  O   UNL     1       4.182  -0.946  26.770  0.00  0.00    -0.283 OA
ATOM      5  C   UNL     1       5.896  -2.539  26.549  0.00  0.00    +0.109 A 
ATOM      6  C   UNL     1       7.166  -2.764  26.018  0.00  0.00    +0.147 A 
ATOM      7  C   UNL     1       7.859  -3.943  26.315  0.00  0.00    +0.092 A 
ATOM      8  C   UNL     1       7.280  -4.880  27.171  0.00  0.00    +0.124 A 
ATOM      9  C   UNL     1       6.030  -4.655  27.730  0.00  0.00    +0.091 A 
ATOM     10  O   UNL     1       7.817  -1.854  25.221  0.00  0.00    -0.451 OA
ATOM     11  C   UNL     1       5.335  -3.489  27.418  0.00  0.00    +0.135 A 
ATOM     12  C   UNL     1       7.134  -0.722  24.824  0.00  0.00    +0.181 A 
BRANCH  12  13
ATOM     13  C   UNL     1       7.929   0.184  23.979  0.00  0.00    +0.025 A 
ATOM     14  C   UNL     1       7.817   0.109  22.577  0.00  0.00    +0.015 A 
ATOM     15  C   UNL     1       8.642   0.880  21.754  0.00  0.00    +0.050 A 
ATOM     16  C   UNL     1       9.582   1.715  22.336  0.00  0.00    +0.158 A 
ATOM     17  C   UNL     1       9.688   1.810  23.721  0.00  0.00    +0.159 A 
ATOM     18  C   UNL     1       8.856   1.065  24.551  0.00  0.00    +0.060 A 
BRANCH  16  19
ATOM     19  O   UNL     1      10.432   2.422  21.534  0.00  0.00    -0.503 OA
ATOM     20  H   UNL     1       9.975   2.469  20.670  0.00  0.00    +0.292 HD
ENDBRANCH  16  19
BRANCH  17  21
ATOM     21  O   UNL     1      10.654   2.639  24.221  0.00  0.00    -0.503 OA
ATOM     22  H   UNL     1      10.988   3.194  23.495  0.00  0.00    +0.292 HD
ENDBRANCH  17  21
ENDBRANCH  12  13
BRANCH   8  23
ATOM     23  O   UNL     1       7.908  -6.038  27.498  0.00  0.00    -0.507 OA
ATOM     24  H   UNL     1       7.533  -6.383  28.326  0.00  0.00    +0.292 HD
ENDBRANCH   8  23
BRANCH  11  25
ATOM     25  O   UNL     1       4.105  -3.294  27.984  0.00  0.00    -0.506 OA
ATOM     26  H   UNL     1       3.823  -2.372  27.872  0.00  0.00    +0.292 HD
ENDBRANCH  11  25
ENDBRANCH   1   2
BRANCH   1  32
ATOM     27  C   UNL     1       5.461   3.201  24.588  0.00  0.00    +0.221 C 
ATOM     28  C   UNL     1       4.084   3.619  24.042  0.00  0.00    +0.180 C 
ATOM     29  C   UNL     1       3.031   3.620  25.163  0.00  0.00    +0.171 C 
ATOM     30  C   UNL     1       3.023   2.267  25.862  0.00  0.00    +0.198 C 
ATOM     31  O   UNL     1       4.294   1.978  26.423  0.00  0.00    -0.337 OA
ATOM     32  C   UNL     1       5.340   1.911  25.450  0.00  0.00    +0.340 C 
BRANCH  28  33
ATOM     33  O   UNL     1       3.699   2.761  22.953  0.00  0.00    -0.386 OA
ATOM     34  H   UNL     1       4.194   3.001  22.151  0.00  0.00    +0.210 HD
ENDBRANCH  28  33
BRANCH  29  35
ATOM     35  O   UNL     1       1.730   3.911  24.656  0.00  0.00    -0.387 OA
ATOM     36  H   UNL     1       1.327   3.067  24.390  0.00  0.00    +0.210 HD
ENDBRANCH  29  35
BRANCH  27  37
ATOM     37  O   UNL     1       6.021   4.309  25.335  0.00  0.00    -0.337 OA
BRANCH  37  41
ATOM     38  C   UNL     1       6.842   6.649  21.859  0.00  0.00    +0.041 C 
ATOM     39  C   UNL     1       7.790   5.568  22.386  0.00  0.00    +0.149 C 
ATOM     40  O   UNL     1       7.127   4.672  23.297  0.00  0.00    -0.343 OA
ATOM     41  C   UNL     1       6.779   5.259  24.562  0.00  0.00    +0.282 C 
ATOM     42  C   UNL     1       8.050   5.761  25.289  0.00  0.00    +0.201 C 
ATOM     43  C   UNL     1       8.795   6.754  24.395  0.00  0.00    +0.179 C 
ATOM     44  C   UNL     1       9.069   6.152  23.011  0.00  0.00    +0.174 C 
BRANCH  42  45
ATOM     45  O   UNL     1       8.916   4.655  25.614  0.00  0.00    -0.384 OA
ATOM     46  H   UNL     1       8.999   4.658  26.586  0.00  0.00    +0.210 HD
ENDBRANCH  42  45
BRANCH  43  47
ATOM     47  O   UNL     1      10.036   7.105  25.029  0.00  0.00    -0.386 OA
ATOM     48  H   UNL     1      10.574   7.526  24.328  0.00  0.00    +0.210 HD
ENDBRANCH  43  47
BRANCH  44  49
ATOM     49  O   UNL     1      10.055   5.115  23.168  0.00  0.00    -0.387 OA
ATOM     50  H   UNL     1      10.684   5.438  23.852  0.00  0.00    +0.210 HD
ENDBRANCH  44  49
ENDBRANCH  37  41
ENDBRANCH  27  37
ENDBRANCH   1  32
TORSDOF 14
ENDMDL
MODEL 3
REMARK VINA RESULT:      -6.7      2.642      8.556
REMARK  Name = 
REMARK  15 active torsions:
REMARK  status: ('A' for Active; 'I' for Inactive)
REMARK    1  A    between atoms: C_1  and  C_2
REMARK    2  A    between atoms: C_3  and  O_46
REMARK    3  A    between atoms: C_5  and  O_45
REMARK    4  A    between atoms: C_6  and  O_44
REMARK    5  A    between atoms: C_8  and  O_11
REMARK    6  A    between atoms: O_11  and  C_12
REMARK    7  A    between atoms: C_13  and  O_22
REMARK    8  A    between atoms: C_17  and  O_21
REMARK    9  A    between atoms: C_19  and  O_20
REMARK   10  A    between atoms: O_22  and  C_23
REMARK   11  A    between atoms: C_24  and  C_36
REMARK   12  A    between atoms: C_28  and  O_35
REMARK   13  A    between atoms: C_30  and  O_34
REMARK   14  A    between atoms: C_38  and  O_43
REMARK   15  A    between atoms: C_39  and  O_42
REMARK                            x       y       z     vdW  Elec       q    Type
REMARK                         _______ _______ _______ _____ _____    ______ ____
ROOT
ATOM      1  O   UNL     1       8.279  -0.860  23.916  0.00  0.00    -0.453 OA
ENDROOT
BRANCH   1   2
ATOM      2  C   UNL     1       7.418  -1.962  24.010  0.00  0.00    +0.214 A 
ATOM      3  C   UNL     1       7.379  -3.063  22.984  0.00  0.00    +0.238 A 
ATOM      4  O   UNL     1       7.953  -2.964  21.907  0.00  0.00    -0.283 OA
ATOM      5  C   UNL     1       6.546  -4.241  23.289  0.00  0.00    +0.109 A 
ATOM      6  C   UNL     1       5.749  -4.201  24.433  0.00  0.00    +0.147 A 
ATOM      7  C   UNL     1       4.946  -5.294  24.775  0.00  0.00    +0.092 A 
ATOM      8  C   UNL     1       4.927  -6.416  23.946  0.00  0.00    +0.124 A 
ATOM      9  C   UNL     1       5.693  -6.457  22.789  0.00  0.00    +0.091 A 
ATOM     10  O   UNL     1       5.674  -3.104  25.256  0.00  0.00    -0.451 OA
ATOM     11  C   UNL     1       6.505  -5.374  22.461  0.00  0.00    +0.135 A 
ATOM     12  C   UNL     1       6.520  -2.040  25.012  0.00  0.00    +0.181 A 
BRANCH  12  13
ATOM     13  C   UNL     1       6.348  -0.919  25.950  0.00  0.00    +0.025 A 
ATOM     14  C   UNL     1       5.276  -0.022  25.777  0.00  0.00    +0.015 A 
ATOM     15  C   UNL     1       5.157   1.111  26.587  0.00  0.00    +0.050 A 
ATOM     16  C   UNL     1       6.116   1.347  27.559  0.00  0.00    +0.158 A 
ATOM     17  C   UNL     1       7.169   0.455  27.751  0.00  0.00    +0.159 A 
ATOM     18  C   UNL     1       7.285  -0.688  26.966  0.00  0.00    +0.060 A 
BRANCH  16  19
ATOM     19  O   UNL     1       6.037   2.485  28.309  0.00  0.00    -0.503 OA
ATOM     20  H   UNL     1       6.413   2.235  29.178  0.00  0.00    +0.292 HD
ENDBRANCH  16  19
BRANCH  17  21
ATOM     21  O   UNL     1       8.087   0.767  28.715  0.00  0.00    -0.503 OA
ATOM     22  H   UNL     1       7.888   0.241  29.509  0.00  0.00    +0.292 HD
ENDBRANCH  17  21
ENDBRANCH  12  13
BRANCH   8  23
ATOM     23  O   UNL     1       4.164  -7.503  24.225  0.00  0.00    -0.507 OA
ATOM     24  H   UNL     1       3.718  -7.799  23.413  0.00  0.00    +0.292 HD
ENDBRANCH   8  23
BRANCH  11  25
ATOM     25  O   UNL     1       7.249  -5.443  21.315  0.00  0.00    -0.506 OA
ATOM     26  H   UNL     1       7.439  -4.552  20.980  0.00  0.00    +0.292 HD
ENDBRANCH  11  25
ENDBRANCH   1   2
BRANCH   1  32
ATOM     27  C   UNL     1       7.488   1.439  23.467  0.00  0.00    +0.221 C 
ATOM     28  C   UNL     1       8.697   2.279  23.917  0.00  0.00    +0.180 C 
ATOM     29  C   UNL     1       9.770   2.320  22.815  0.00  0.00    +0.171 C 
ATOM     30  C   UNL     1      10.136   0.902  22.399  0.00  0.00    +0.198 C 
ATOM     31  O   UNL     1       8.999   0.207  21.911  0.00  0.00    -0.337 OA
ATOM     32  C   UNL     1       7.956   0.076  22.880  0.00  0.00    +0.340 C 
BRANCH  28  33
ATOM     33  O   UNL     1       9.226   1.769  25.153  0.00  0.00    -0.386 OA
ATOM     34  H   UNL     1       9.724   0.950  24.988  0.00  0.00    +0.210 HD
ENDBRANCH  28  33
BRANCH  29  35
ATOM     35  O   UNL     1      10.937   3.014  23.251  0.00  0.00    -0.387 OA
ATOM     36  H   UNL     1      11.186   2.647  24.117  0.00  0.00    +0.210 HD
ENDBRANCH  29  35
BRANCH  27  37
ATOM     37  O   UNL     1       6.713   2.209  22.516  0.00  0.00    -0.337 OA
BRANCH  37  41
ATOM     38  C   UNL     1       2.972   3.337  24.238  0.00  0.00    +0.041 C 
ATOM     39  C   UNL     1       3.488   3.899  22.911  0.00  0.00    +0.149 C 
ATOM     40  O   UNL     1       4.543   3.089  22.359  0.00  0.00    -0.343 OA
ATOM     41  C   UNL     1       5.780   3.146  23.089  0.00  0.00    +0.282 C 
ATOM     42  C   UNL     1       6.317   4.596  23.125  0.00  0.00    +0.201 C 
ATOM     43  C   UNL     1       5.262   5.520  23.736  0.00  0.00    +0.179 C 
ATOM     44  C   UNL     1       3.916   5.373  23.015  0.00  0.00    +0.174 C 
BRANCH  42  45
ATOM     45  O   UNL     1       6.643   5.047  21.794  0.00  0.00    -0.384 OA
ATOM     46  H   UNL     1       5.951   5.690  21.553  0.00  0.00    +0.210 HD
ENDBRANCH  42  45
BRANCH  43  47
ATOM     47  O   UNL     1       5.723   6.877  23.638  0.00  0.00    -0.386 OA
ATOM     48  H   UNL     1       5.295   7.349  24.382  0.00  0.00    +0.210 HD
ENDBRANCH  43  47
BRANCH  44  49
ATOM     49  O   UNL     1       4.056   5.937  21.698  0.00  0.00    -0.387 OA
ATOM     50  H   UNL     1       5.007   6.174  21.603  0.00  0.00    +0.210 HD
ENDBRANCH  44  49
ENDBRANCH  37  41
ENDBRANCH  27  37
ENDBRANCH   1  32
TORSDOF 14
ENDMDL
MODEL 4
REMARK VINA RESULT:      -6.6      2.118      7.173
REMARK  Name = 
REMARK  15 active torsions:
REMARK  status: ('A' for Active; 'I' for Inactive)
REMARK    1  A    between atoms: C_1  and  C_2
REMARK    2  A    between atoms: C_3  and  O_46
REMARK    3  A    between atoms: C_5  and  O_45
REMARK    4  A    between atoms: C_6  and  O_44
REMARK    5  A    between atoms: C_8  and  O_11
REMARK    6  A    between atoms: O_11  and  C_12
REMARK    7  A    between atoms: C_13  and  O_22
REMARK    8  A    between atoms: C_17  and  O_21
REMARK    9  A    between atoms: C_19  and  O_20
REMARK   10  A    between atoms: O_22  and  C_23
REMARK   11  A    between atoms: C_24  and  C_36
REMARK   12  A    between atoms: C_28  and  O_35
REMARK   13  A    between atoms: C_30  and  O_34
REMARK   14  A    between atoms: C_38  and  O_43
REMARK   15  A    between atoms: C_39  and  O_42
REMARK                            x       y       z     vdW  Elec       q    Type
REMARK                         _______ _______ _______ _____ _____    ______ ____
ROOT
ATOM      1  O   UNL     1       7.742  -1.039  26.233  0.00  0.00    -0.453 OA
ENDROOT
BRANCH   1   2
ATOM      2  C   UNL     1       7.566  -1.974  25.203  0.00  0.00    +0.214 A 
ATOM      3  C   UNL     1       6.873  -3.294  25.402  0.00  0.00    +0.238 A 
ATOM      4  O   UNL     1       6.595  -3.718  26.518  0.00  0.00    -0.283 OA
ATOM      5  C   UNL     1       6.613  -4.108  24.200  0.00  0.00    +0.109 A 
ATOM      6  C   UNL     1       7.142  -3.672  22.986  0.00  0.00    +0.147 A 
ATOM      7  C   UNL     1       6.920  -4.401  21.813  0.00  0.00    +0.092 A 
ATOM      8  C   UNL     1       6.186  -5.586  21.872  0.00  0.00    +0.124 A 
ATOM      9  C   UNL     1       5.678  -6.047  23.078  0.00  0.00    +0.091 A 
ATOM     10  O   UNL     1       7.926  -2.549  22.871  0.00  0.00    -0.451 OA
ATOM     11  C   UNL     1       5.887  -5.310  24.242  0.00  0.00    +0.135 A 
ATOM     12  C   UNL     1       8.092  -1.747  23.983  0.00  0.00    +0.181 A 
BRANCH  12  13
ATOM     13  C   UNL     1       8.954  -0.577  23.746  0.00  0.00    +0.025 A 
ATOM     14  C   UNL     1       9.992  -0.281  24.651  0.00  0.00    +0.015 A 
ATOM     15  C   UNL     1      10.751   0.884  24.507  0.00  0.00    +0.050 A 
ATOM     16  C   UNL     1      10.461   1.752  23.467  0.00  0.00    +0.158 A 
ATOM     17  C   UNL     1       9.449   1.458  22.556  0.00  0.00    +0.159 A 
ATOM     18  C   UNL     1       8.702   0.290  22.675  0.00  0.00    +0.060 A 
BRANCH  16  19
ATOM     19  O   UNL     1      11.159   2.921  23.362  0.00  0.00    -0.503 OA
ATOM     20  H   UNL     1      10.760   3.509  24.034  0.00  0.00    +0.292 HD
ENDBRANCH  16  19
BRANCH  17  21
ATOM     21  O   UNL     1       9.208   2.374  21.569  0.00  0.00    -0.503 OA
ATOM     22  H   UNL     1       9.117   3.251  21.981  0.00  0.00    +0.292 HD
ENDBRANCH  17  21
ENDBRANCH  12  13
BRANCH   8  23
ATOM     23  O   UNL     1       5.944  -6.336  20.768  0.00  0.00    -0.507 OA
ATOM     24  H   UNL     1       5.480  -5.794  20.107  0.00  0.00    +0.292 HD
ENDBRANCH   8  23
BRANCH  11  25
ATOM     25  O   UNL     1       5.375  -5.789  25.416  0.00  0.00    -0.506 OA
ATOM     26  H   UNL     1       4.636  -5.235  25.715  0.00  0.00    +0.292 HD
ENDBRANCH  11  25
ENDBRANCH   1   2
BRANCH   1  32
ATOM     27  C   UNL     1       5.481  -0.084  25.939  0.00  0.00    +0.221 C 
ATOM     28  C   UNL     1       4.850  -0.342  27.320  0.00  0.00    +0.180 C 
ATOM     29  C   UNL     1       5.289   0.735  28.327  0.00  0.00    +0.171 C 
ATOM     30  C   UNL     1       6.809   0.821  28.360  0.00  0.00    +0.198 C 
ATOM     31  O   UNL     1       7.325   1.150  27.079  0.00  0.00    -0.337 OA
ATOM     32  C   UNL     1       7.008   0.182  26.075  0.00  0.00    +0.340 C 
BRANCH  28  33
ATOM     33  O   UNL     1       5.181  -1.665  27.779  0.00  0.00    -0.386 OA
ATOM     34  H   UNL     1       5.999  -1.639  28.304  0.00  0.00    +0.210 HD
ENDBRANCH  28  33
BRANCH  29  35
ATOM     35  O   UNL     1       4.792   0.457  29.635  0.00  0.00    -0.387 OA
ATOM     36  H   UNL     1       4.921  -0.493  29.799  0.00  0.00    +0.210 HD
ENDBRANCH  29  35
BRANCH  27  37
ATOM     37  O   UNL     1       4.786   1.020  25.309  0.00  0.00    -0.337 OA
BRANCH  37  41
ATOM     38  C   UNL     1       7.351   4.346  26.080  0.00  0.00    +0.041 C 
ATOM     39  C   UNL     1       5.988   4.479  25.395  0.00  0.00    +0.149 C 
ATOM     40  O   UNL     1       5.165   3.317  25.610  0.00  0.00    -0.343 OA
ATOM     41  C   UNL     1       5.613   2.136  24.924  0.00  0.00    +0.282 C 
ATOM     42  C   UNL     1       5.637   2.377  23.396  0.00  0.00    +0.201 C 
ATOM     43  C   UNL     1       6.527   3.581  23.080  0.00  0.00    +0.179 C 
ATOM     44  C   UNL     1       6.104   4.809  23.897  0.00  0.00    +0.174 C 
BRANCH  42  45
ATOM     45  O   UNL     1       4.304   2.617  22.901  0.00  0.00    -0.384 OA
ATOM     46  H   UNL     1       3.757   1.886  23.246  0.00  0.00    +0.210 HD
ENDBRANCH  42  45
BRANCH  43  47
ATOM     47  O   UNL     1       6.431   3.871  21.677  0.00  0.00    -0.386 OA
ATOM     48  H   UNL     1       7.240   4.381  21.463  0.00  0.00    +0.210 HD
ENDBRANCH  43  47
BRANCH  44  49
ATOM     49  O   UNL     1       4.832   5.257  23.394  0.00  0.00    -0.387 OA
ATOM     50  H   UNL     1       4.610   6.070  23.902  0.00  0.00    +0.210 HD
ENDBRANCH  44  49
ENDBRANCH  37  41
ENDBRANCH  27  37
ENDBRANCH   1  32
TORSDOF 14
ENDMDL
MODEL 5
REMARK VINA RESULT:      -6.6      2.061      6.018
REMARK  Name = 
REMARK  15 active torsions:
REMARK  status: ('A' for Active; 'I' for Inactive)
REMARK    1  A    between atoms: C_1  and  C_2
REMARK    2  A    between atoms: C_3  and  O_46
REMARK    3  A    between atoms: C_5  and  O_45
REMARK    4  A    between atoms: C_6  and  O_44
REMARK    5  A    between atoms: C_8  and  O_11
REMARK    6  A    between atoms: O_11  and  C_12
REMARK    7  A    between atoms: C_13  and  O_22
REMARK    8  A    between atoms: C_17  and  O_21
REMARK    9  A    between atoms: C_19  and  O_20
REMARK   10  A    between atoms: O_22  and  C_23
REMARK   11  A    between atoms: C_24  and  C_36
REMARK   12  A    between atoms: C_28  and  O_35
REMARK   13  A    between atoms: C_30  and  O_34
REMARK   14  A    between atoms: C_38  and  O_43
REMARK   15  A    between atoms: C_39  and  O_42
REMARK                            x       y       z     vdW  Elec       q    Type
REMARK                         _______ _______ _______ _____ _____    ______ ____
ROOT
ATOM      1  O   UNL     1       7.530  -0.559  26.044  0.00  0.00    -0.453 OA
ENDROOT
BRANCH   1   2
ATOM      2  C   UNL     1       7.418  -1.583  25.093  0.00  0.00    +0.214 A 
ATOM      3  C   UNL     1       6.807  -2.924  25.398  0.00  0.00    +0.238 A 
ATOM      4  O   UNL     1       6.551  -3.272  26.545  0.00  0.00    -0.283 OA
ATOM      5  C   UNL     1       6.603  -3.847  24.266  0.00  0.00    +0.109 A 
ATOM      6  C   UNL     1       7.109  -3.477  23.020  0.00  0.00    +0.147 A 
ATOM      7  C   UNL     1       6.936  -4.311  21.910  0.00  0.00    +0.092 A 
ATOM      8  C   UNL     1       6.278  -5.531  22.066  0.00  0.00    +0.124 A 
ATOM      9  C   UNL     1       5.795  -5.924  23.306  0.00  0.00    +0.091 A 
ATOM     10  O   UNL     1       7.821  -2.321  22.814  0.00  0.00    -0.451 OA
ATOM     11  C   UNL     1       5.952  -5.084  24.406  0.00  0.00    +0.135 A 
ATOM     12  C   UNL     1       7.933  -1.423  23.858  0.00  0.00    +0.181 A 
BRANCH  12  13
ATOM     13  C   UNL     1       8.721  -0.225  23.526  0.00  0.00    +0.025 A 
ATOM     14  C   UNL     1      10.013  -0.068  24.067  0.00  0.00    +0.015 A 
ATOM     15  C   UNL     1      10.735   1.110  23.856  0.00  0.00    +0.050 A 
ATOM     16  C   UNL     1      10.159   2.129  23.115  0.00  0.00    +0.158 A 
ATOM     17  C   UNL     1       8.890   1.976  22.560  0.00  0.00    +0.159 A 
ATOM     18  C   UNL     1       8.171   0.799  22.743  0.00  0.00    +0.060 A 
BRANCH  16  19
ATOM     19  O   UNL     1      10.835   3.305  22.961  0.00  0.00    -0.503 OA
ATOM     20  H   UNL     1      11.012   3.610  23.873  0.00  0.00    +0.292 HD
ENDBRANCH  16  19
BRANCH  17  21
ATOM     21  O   UNL     1       8.379   3.034  21.860  0.00  0.00    -0.503 OA
ATOM     22  H   UNL     1       8.666   3.856  22.295  0.00  0.00    +0.292 HD
ENDBRANCH  17  21
ENDBRANCH  12  13
BRANCH   8  23
ATOM     23  O   UNL     1       6.087  -6.381  21.026  0.00  0.00    -0.507 OA
ATOM     24  H   UNL     1       5.189  -6.751  21.074  0.00  0.00    +0.292 HD
ENDBRANCH   8  23
BRANCH  11  25
ATOM     25  O   UNL     1       5.467  -5.498  25.615  0.00  0.00    -0.506 OA
ATOM     26  H   UNL     1       6.196  -5.687  26.227  0.00  0.00    +0.292 HD
ENDBRANCH  11  25
ENDBRANCH   1   2
BRANCH   1  32
ATOM     27  C   UNL     1       5.937   0.112  27.810  0.00  0.00    +0.221 C 
ATOM     28  C   UNL     1       6.772   1.123  28.617  0.00  0.00    +0.180 C 
ATOM     29  C   UNL     1       6.762   2.502  27.937  0.00  0.00    +0.171 C 
ATOM     30  C   UNL     1       7.208   2.365  26.488  0.00  0.00    +0.198 C 
ATOM     31  O   UNL     1       6.348   1.492  25.772  0.00  0.00    -0.337 OA
ATOM     32  C   UNL     1       6.320   0.164  26.303  0.00  0.00    +0.340 C 
BRANCH  28  33
ATOM     33  O   UNL     1       8.111   0.630  28.798  0.00  0.00    -0.386 OA
ATOM     34  H   UNL     1       8.132  -0.333  28.659  0.00  0.00    +0.210 HD
ENDBRANCH  28  33
BRANCH  29  35
ATOM     35  O   UNL     1       7.609   3.425  28.620  0.00  0.00    -0.387 OA
ATOM     36  H   UNL     1       7.138   3.712  29.421  0.00  0.00    +0.210 HD
ENDBRANCH  29  35
BRANCH  27  37
ATOM     37  O   UNL     1       4.531   0.390  28.028  0.00  0.00    -0.337 OA
BRANCH  37  41
ATOM     38  C   UNL     1       3.175  -2.828  30.485  0.00  0.00    +0.041 C 
ATOM     39  C   UNL     1       3.843  -3.037  29.124  0.00  0.00    +0.149 C 
ATOM     40  O   UNL     1       4.554  -1.862  28.690  0.00  0.00    -0.343 OA
ATOM     41  C   UNL     1       3.711  -0.756  28.326  0.00  0.00    +0.282 C 
ATOM     42  C   UNL     1       2.775  -1.155  27.160  0.00  0.00    +0.201 C 
ATOM     43  C   UNL     1       1.952  -2.382  27.558  0.00  0.00    +0.179 C 
ATOM     44  C   UNL     1       2.858  -3.520  28.045  0.00  0.00    +0.174 C 
BRANCH  42  45
ATOM     45  O   UNL     1       3.542  -1.450  25.975  0.00  0.00    -0.384 OA
ATOM     46  H   UNL     1       3.079  -1.005  25.240  0.00  0.00    +0.210 HD
ENDBRANCH  42  45
BRANCH  43  47
ATOM     47  O   UNL     1       1.190  -2.816  26.421  0.00  0.00    -0.386 OA
ATOM     48  H   UNL     1       0.843  -3.699  26.665  0.00  0.00    +0.210 HD
ENDBRANCH  43  47
BRANCH  44  49
ATOM     49  O   UNL     1       3.585  -4.023  26.908  0.00  0.00    -0.387 OA
ATOM     50  H   UNL     1       3.449  -3.367  26.187  0.00  0.00    +0.210 HD
ENDBRANCH  44  49
ENDBRANCH  37  41
ENDBRANCH  27  37
ENDBRANCH   1  32
TORSDOF 14
ENDMDL
MODEL 6
REMARK VINA RESULT:      -6.6      2.122      5.382
REMARK  Name = 
REMARK  15 active torsions:
REMARK  status: ('A' for Active; 'I' for Inactive)
REMARK    1  A    between atoms: C_1  and  C_2
REMARK    2  A    between atoms: C_3  and  O_46
REMARK    3  A    between atoms: C_5  and  O_45
REMARK    4  A    between atoms: C_6  and  O_44
REMARK    5  A    between atoms: C_8  and  O_11
REMARK    6  A    between atoms: O_11  and  C_12
REMARK    7  A    between atoms: C_13  and  O_22
REMARK    8  A    between atoms: C_17  and  O_21
REMARK    9  A    between atoms: C_19  and  O_20
REMARK   10  A    between atoms: O_22  and  C_23
REMARK   11  A    between atoms: C_24  and  C_36
REMARK   12  A    between atoms: C_28  and  O_35
REMARK   13  A    between atoms: C_30  and  O_34
REMARK   14  A    between atoms: C_38  and  O_43
REMARK   15  A    between atoms: C_39  and  O_42
REMARK                            x       y       z     vdW  Elec       q    Type
REMARK                         _______ _______ _______ _____ _____    ______ ____
ROOT
ATOM      1  O   UNL     1       6.022  -0.739  25.295  0.00  0.00    -0.453 OA
ENDROOT
BRANCH   1   2
ATOM      2  C   UNL     1       7.026   0.057  24.727  0.00  0.00    +0.214 A 
ATOM      3  C   UNL     1       7.102   1.547  24.922  0.00  0.00    +0.238 A 
ATOM      4  O   UNL     1       6.182   2.182  25.424  0.00  0.00    -0.283 OA
ATOM      5  C   UNL     1       8.299   2.236  24.405  0.00  0.00    +0.109 A 
ATOM      6  C   UNL     1       9.210   1.493  23.655  0.00  0.00    +0.147 A 
ATOM      7  C   UNL     1      10.367   2.094  23.147  0.00  0.00    +0.092 A 
ATOM      8  C   UNL     1      10.588   3.453  23.374  0.00  0.00    +0.124 A 
ATOM      9  C   UNL     1       9.676   4.211  24.093  0.00  0.00    +0.091 A 
ATOM     10  O   UNL     1       9.020   0.169  23.344  0.00  0.00    -0.451 OA
ATOM     11  C   UNL     1       8.533   3.605  24.612  0.00  0.00    +0.135 A 
ATOM     12  C   UNL     1       7.942  -0.490  23.903  0.00  0.00    +0.181 A 
BRANCH  12  13
ATOM     13  C   UNL     1       7.833  -1.900  23.496  0.00  0.00    +0.025 A 
ATOM     14  C   UNL     1       6.899  -2.271  22.509  0.00  0.00    +0.015 A 
ATOM     15  C   UNL     1       6.700  -3.616  22.186  0.00  0.00    +0.050 A 
ATOM     16  C   UNL     1       7.429  -4.584  22.858  0.00  0.00    +0.158 A 
ATOM     17  C   UNL     1       8.369  -4.226  23.821  0.00  0.00    +0.159 A 
ATOM     18  C   UNL     1       8.593  -2.889  24.135  0.00  0.00    +0.060 A 
BRANCH  16  19
ATOM     19  O   UNL     1       7.192  -5.902  22.589  0.00  0.00    -0.503 OA
ATOM     20  H   UNL     1       8.080  -6.292  22.459  0.00  0.00    +0.292 HD
ENDBRANCH  16  19
BRANCH  17  21
ATOM     21  O   UNL     1       9.034  -5.239  24.456  0.00  0.00    -0.503 OA
ATOM     22  H   UNL     1       8.847  -5.177  25.409  0.00  0.00    +0.292 HD
ENDBRANCH  17  21
ENDBRANCH  12  13
BRANCH   8  23
ATOM     23  O   UNL     1      11.690   4.089  22.901  0.00  0.00    -0.507 OA
ATOM     24  H   UNL     1      12.243   3.454  22.415  0.00  0.00    +0.292 HD
ENDBRANCH   8  23
BRANCH  11  25
ATOM     25  O   UNL     1       7.652   4.378  25.316  0.00  0.00    -0.506 OA
ATOM     26  H   UNL     1       7.988   4.546  26.212  0.00  0.00    +0.292 HD
ENDBRANCH  11  25
ENDBRANCH   1   2
BRANCH   1  32
ATOM     27  C   UNL     1       4.938  -0.634  27.514  0.00  0.00    +0.221 C 
ATOM     28  C   UNL     1       3.839  -1.703  27.376  0.00  0.00    +0.180 C 
ATOM     29  C   UNL     1       4.417  -3.110  27.608  0.00  0.00    +0.171 C 
ATOM     30  C   UNL     1       5.606  -3.337  26.684  0.00  0.00    +0.198 C 
ATOM     31  O   UNL     1       6.623  -2.375  26.920  0.00  0.00    -0.337 OA
ATOM     32  C   UNL     1       6.195  -1.031  26.688  0.00  0.00    +0.340 C 
BRANCH  28  33
ATOM     33  O   UNL     1       3.200  -1.598  26.092  0.00  0.00    -0.386 OA
ATOM     34  H   UNL     1       3.736  -2.047  25.416  0.00  0.00    +0.210 HD
ENDBRANCH  28  33
BRANCH  29  35
ATOM     35  O   UNL     1       3.434  -4.120  27.389  0.00  0.00    -0.387 OA
ATOM     36  H   UNL     1       2.570  -3.740  27.626  0.00  0.00    +0.210 HD
ENDBRANCH  29  35
BRANCH  27  37
ATOM     37  O   UNL     1       5.239  -0.455  28.920  0.00  0.00    -0.337 OA
BRANCH  37  41
ATOM     38  C   UNL     1       4.063   3.585  29.647  0.00  0.00    +0.041 C 
ATOM     39  C   UNL     1       5.136   3.195  28.628  0.00  0.00    +0.149 C 
ATOM     40  O   UNL     1       5.066   1.798  28.285  0.00  0.00    -0.343 OA
ATOM     41  C   UNL     1       5.464   0.905  29.338  0.00  0.00    +0.282 C 
ATOM     42  C   UNL     1       6.930   1.180  29.751  0.00  0.00    +0.201 C 
ATOM     43  C   UNL     1       7.080   2.644  30.169  0.00  0.00    +0.179 C 
ATOM     44  C   UNL     1       6.555   3.586  29.078  0.00  0.00    +0.174 C 
BRANCH  42  45
ATOM     45  O   UNL     1       7.825   0.894  28.658  0.00  0.00    -0.384 OA
ATOM     46  H   UNL     1       8.636   0.534  29.064  0.00  0.00    +0.210 HD
ENDBRANCH  42  45
BRANCH  43  47
ATOM     47  O   UNL     1       8.468   2.914  30.420  0.00  0.00    -0.386 OA
ATOM     48  H   UNL     1       8.619   2.646  31.350  0.00  0.00    +0.210 HD
ENDBRANCH  43  47
BRANCH  44  49
ATOM     49  O   UNL     1       7.460   3.516  27.961  0.00  0.00    -0.387 OA
ATOM     50  H   UNL     1       7.218   2.701  27.465  0.00  0.00    +0.210 HD
ENDBRANCH  44  49
ENDBRANCH  37  41
ENDBRANCH  27  37
ENDBRANCH   1  32
TORSDOF 14
ENDMDL
MODEL 7
REMARK VINA RESULT:      -6.5      2.032      5.796
REMARK  Name = 
REMARK  15 active torsions:
REMARK  status: ('A' for Active; 'I' for Inactive)
REMARK    1  A    between atoms: C_1  and  C_2
REMARK    2  A    between atoms: C_3  and  O_46
REMARK    3  A    between atoms: C_5  and  O_45
REMARK    4  A    between atoms: C_6  and  O_44
REMARK    5  A    between atoms: C_8  and  O_11
REMARK    6  A    between atoms: O_11  and  C_12
REMARK    7  A    between atoms: C_13  and  O_22
REMARK    8  A    between atoms: C_17  and  O_21
REMARK    9  A    between atoms: C_19  and  O_20
REMARK   10  A    between atoms: O_22  and  C_23
REMARK   11  A    between atoms: C_24  and  C_36
REMARK   12  A    between atoms: C_28  and  O_35
REMARK   13  A    between atoms: C_30  and  O_34
REMARK   14  A    between atoms: C_38  and  O_43
REMARK   15  A    between atoms: C_39  and  O_42
REMARK                            x       y       z     vdW  Elec       q    Type
REMARK                         _______ _______ _______ _____ _____    ______ ____
ROOT
ATOM      1  O   UNL     1       7.108  -2.436  26.489  0.00  0.00    -0.453 OA
ENDROOT
BRANCH   1   2
ATOM      2  C   UNL     1       6.006  -1.581  26.626  0.00  0.00    +0.214 A 
ATOM      3  C   UNL     1       4.786  -1.936  27.431  0.00  0.00    +0.238 A 
ATOM      4  O   UNL     1       4.597  -3.071  27.852  0.00  0.00    -0.283 OA
ATOM      5  C   UNL     1       3.774  -0.881  27.625  0.00  0.00    +0.109 A 
ATOM      6  C   UNL     1       3.945   0.324  26.943  0.00  0.00    +0.147 A 
ATOM      7  C   UNL     1       3.020   1.362  27.097  0.00  0.00    +0.092 A 
ATOM      8  C   UNL     1       1.908   1.172  27.918  0.00  0.00    +0.124 A 
ATOM      9  C   UNL     1       1.711  -0.032  28.580  0.00  0.00    +0.091 A 
ATOM     10  O   UNL     1       4.982   0.551  26.071  0.00  0.00    -0.451 OA
ATOM     11  C   UNL     1       2.643  -1.057  28.438  0.00  0.00    +0.135 A 
ATOM     12  C   UNL     1       5.970  -0.408  25.962  0.00  0.00    +0.181 A 
BRANCH  12  13
ATOM     13  C   UNL     1       7.026  -0.063  24.996  0.00  0.00    +0.025 A 
ATOM     14  C   UNL     1       6.853  -0.372  23.633  0.00  0.00    +0.015 A 
ATOM     15  C   UNL     1       7.886  -0.154  22.717  0.00  0.00    +0.050 A 
ATOM     16  C   UNL     1       9.090   0.361  23.170  0.00  0.00    +0.158 A 
ATOM     17  C   UNL     1       9.264   0.688  24.513  0.00  0.00    +0.159 A 
ATOM     18  C   UNL     1       8.235   0.498  25.430  0.00  0.00    +0.060 A 
BRANCH  16  19
ATOM     19  O   UNL     1      10.121   0.515  22.289  0.00  0.00    -0.503 OA
ATOM     20  H   UNL     1      10.187   1.482  22.151  0.00  0.00    +0.292 HD
ENDBRANCH  16  19
BRANCH  17  21
ATOM     21  O   UNL     1      10.487   1.171  24.888  0.00  0.00    -0.503 OA
ATOM     22  H   UNL     1      10.787   0.673  25.668  0.00  0.00    +0.292 HD
ENDBRANCH  17  21
ENDBRANCH  12  13
BRANCH   8  23
ATOM     23  O   UNL     1       0.976   2.142  28.101  0.00  0.00    -0.507 OA
ATOM     24  H   UNL     1       0.339   2.117  27.367  0.00  0.00    +0.292 HD
ENDBRANCH   8  23
BRANCH  11  25
ATOM     25  O   UNL     1       2.422  -2.232  29.102  0.00  0.00    -0.506 OA
ATOM     26  H   UNL     1       2.955  -2.945  28.715  0.00  0.00    +0.292 HD
ENDBRANCH  11  25
ENDBRANCH   1   2
BRANCH   1  32
ATOM     27  C   UNL     1       7.189  -3.831  24.450  0.00  0.00    +0.221 C 
ATOM     28  C   UNL     1       8.703  -4.061  24.288  0.00  0.00    +0.180 C 
ATOM     29  C   UNL     1       9.181  -5.196  25.210  0.00  0.00    +0.171 C 
ATOM     30  C   UNL     1       8.761  -4.906  26.644  0.00  0.00    +0.198 C 
ATOM     31  O   UNL     1       7.349  -4.793  26.746  0.00  0.00    -0.337 OA
ATOM     32  C   UNL     1       6.808  -3.732  25.955  0.00  0.00    +0.340 C 
BRANCH  28  33
ATOM     33  O   UNL     1       9.421  -2.840  24.532  0.00  0.00    -0.386 OA
ATOM     34  H   UNL     1      10.229  -3.026  25.041  0.00  0.00    +0.210 HD
ENDBRANCH  28  33
BRANCH  29  35
ATOM     35  O   UNL     1      10.597  -5.358  25.144  0.00  0.00    -0.387 OA
ATOM     36  H   UNL     1      10.862  -5.215  24.219  0.00  0.00    +0.210 HD
ENDBRANCH  29  35
BRANCH  27  37
ATOM     37  O   UNL     1       6.481  -4.899  23.774  0.00  0.00    -0.337 OA
BRANCH  37  41
ATOM     38  C   UNL     1       3.952  -6.269  26.930  0.00  0.00    +0.041 C 
ATOM     39  C   UNL     1       4.135  -7.028  25.614  0.00  0.00    +0.149 C 
ATOM     40  O   UNL     1       5.309  -6.591  24.903  0.00  0.00    -0.343 OA
ATOM     41  C   UNL     1       5.213  -5.267  24.352  0.00  0.00    +0.282 C 
ATOM     42  C   UNL     1       4.039  -5.186  23.348  0.00  0.00    +0.201 C 
ATOM     43  C   UNL     1       2.740  -5.601  24.042  0.00  0.00    +0.179 C 
ATOM     44  C   UNL     1       2.888  -6.971  24.715  0.00  0.00    +0.174 C 
BRANCH  42  45
ATOM     45  O   UNL     1       4.281  -6.047  22.217  0.00  0.00    -0.384 OA
ATOM     46  H   UNL     1       3.503  -5.951  21.637  0.00  0.00    +0.210 HD
ENDBRANCH  42  45
BRANCH  43  47
ATOM     47  O   UNL     1       1.689  -5.648  23.064  0.00  0.00    -0.386 OA
ATOM     48  H   UNL     1       1.548  -4.718  22.791  0.00  0.00    +0.210 HD
ENDBRANCH  43  47
BRANCH  44  49
ATOM     49  O   UNL     1       2.986  -7.965  23.678  0.00  0.00    -0.387 OA
ATOM     50  H   UNL     1       2.128  -7.942  23.197  0.00  0.00    +0.210 HD
ENDBRANCH  44  49
ENDBRANCH  37  41
ENDBRANCH  27  37
ENDBRANCH   1  32
TORSDOF 14
ENDMDL
MODEL 8
REMARK VINA RESULT:      -6.4      2.335      5.891
REMARK  Name = 
REMARK  15 active torsions:
REMARK  status: ('A' for Active; 'I' for Inactive)
REMARK    1  A    between atoms: C_1  and  C_2
REMARK    2  A    between atoms: C_3  and  O_46
REMARK    3  A    between atoms: C_5  and  O_45
REMARK    4  A    between atoms: C_6  and  O_44
REMARK    5  A    between atoms: C_8  and  O_11
REMARK    6  A    between atoms: O_11  and  C_12
REMARK    7  A    between atoms: C_13  and  O_22
REMARK    8  A    between atoms: C_17  and  O_21
REMARK    9  A    between atoms: C_19  and  O_20
REMARK   10  A    between atoms: O_22  and  C_23
REMARK   11  A    between atoms: C_24  and  C_36
REMARK   12  A    between atoms: C_28  and  O_35
REMARK   13  A    between atoms: C_30  and  O_34
REMARK   14  A    between atoms: C_38  and  O_43
REMARK   15  A    between atoms: C_39  and  O_42
REMARK                            x       y       z     vdW  Elec       q    Type
REMARK                         _______ _______ _______ _____ _____    ______ ____
ROOT
ATOM      1  O   UNL     1       6.395  -0.625  24.636  0.00  0.00    -0.453 OA
ENDROOT
BRANCH   1   2
ATOM      2  C   UNL     1       5.851   0.446  25.358  0.00  0.00    +0.214 A 
ATOM      3  C   UNL     1       4.653   0.307  26.257  0.00  0.00    +0.238 A 
ATOM      4  O   UNL     1       3.960  -0.705  26.260  0.00  0.00    -0.283 OA
ATOM      5  C   UNL     1       4.286   1.473  27.082  0.00  0.00    +0.109 A 
ATOM      6  C   UNL     1       4.983   2.664  26.877  0.00  0.00    +0.147 A 
ATOM      7  C   UNL     1       4.682   3.800  27.637  0.00  0.00    +0.092 A 
ATOM      8  C   UNL     1       3.659   3.739  28.584  0.00  0.00    +0.124 A 
ATOM      9  C   UNL     1       2.939   2.568  28.777  0.00  0.00    +0.091 A 
ATOM     10  O   UNL     1       5.956   2.808  25.918  0.00  0.00    -0.451 OA
ATOM     11  C   UNL     1       3.252   1.434  28.031  0.00  0.00    +0.135 A 
ATOM     12  C   UNL     1       6.352   1.689  25.212  0.00  0.00    +0.181 A 
BRANCH  12  13
ATOM     13  C   UNL     1       7.394   1.961  24.208  0.00  0.00    +0.025 A 
ATOM     14  C   UNL     1       7.116   1.763  22.842  0.00  0.00    +0.015 A 
ATOM     15  C   UNL     1       8.121   1.909  21.882  0.00  0.00    +0.050 A 
ATOM     16  C   UNL     1       9.402   2.240  22.293  0.00  0.00    +0.158 A 
ATOM     17  C   UNL     1       9.683   2.456  23.640  0.00  0.00    +0.159 A 
ATOM     18  C   UNL     1       8.685   2.338  24.603  0.00  0.00    +0.060 A 
BRANCH  16  19
ATOM     19  O   UNL     1      10.400   2.320  21.365  0.00  0.00    -0.503 OA
ATOM     20  H   UNL     1      10.646   1.390  21.185  0.00  0.00    +0.292 HD
ENDBRANCH  16  19
BRANCH  17  21
ATOM     21  O   UNL     1      10.975   2.758  23.972  0.00  0.00    -0.503 OA
ATOM     22  H   UNL     1      11.087   2.616  24.928  0.00  0.00    +0.292 HD
ENDBRANCH  17  21
ENDBRANCH  12  13
BRANCH   8  23
ATOM     23  O   UNL     1       3.321   4.810  29.345  0.00  0.00    -0.507 OA
ATOM     24  H   UNL     1       3.026   4.502  30.219  0.00  0.00    +0.292 HD
ENDBRANCH   8  23
BRANCH  11  25
ATOM     25  O   UNL     1       2.525   0.296  28.243  0.00  0.00    -0.506 OA
ATOM     26  H   UNL     1       2.838  -0.163  29.040  0.00  0.00    +0.292 HD
ENDBRANCH  11  25
ENDBRANCH   1   2
BRANCH   1  32
ATOM     27  C   UNL     1       7.094  -2.991  24.782  0.00  0.00    +0.221 C 
ATOM     28  C   UNL     1       8.102  -3.092  23.623  0.00  0.00    +0.180 C 
ATOM     29  C   UNL     1       9.477  -2.550  24.049  0.00  0.00    +0.171 C 
ATOM     30  C   UNL     1       9.325  -1.139  24.602  0.00  0.00    +0.198 C 
ATOM     31  O   UNL     1       8.456  -1.125  25.724  0.00  0.00    -0.337 OA
ATOM     32  C   UNL     1       7.132  -1.572  25.420  0.00  0.00    +0.340 C 
BRANCH  28  33
ATOM     33  O   UNL     1       7.597  -2.406  22.463  0.00  0.00    -0.386 OA
ATOM     34  H   UNL     1       6.740  -1.995  22.668  0.00  0.00    +0.210 HD
ENDBRANCH  28  33
BRANCH  29  35
ATOM     35  O   UNL     1      10.396  -2.546  22.958  0.00  0.00    -0.387 OA
ATOM     36  H   UNL     1       9.978  -3.029  22.225  0.00  0.00    +0.210 HD
ENDBRANCH  29  35
BRANCH  27  37
ATOM     37  O   UNL     1       7.387  -4.033  25.745  0.00  0.00    -0.337 OA
BRANCH  37  41
ATOM     38  C   UNL     1       3.514  -3.704  27.513  0.00  0.00    +0.041 C 
ATOM     39  C   UNL     1       4.788  -3.950  28.325  0.00  0.00    +0.149 C 
ATOM     40  O   UNL     1       5.973  -3.625  27.574  0.00  0.00    -0.343 OA
ATOM     41  C   UNL     1       6.256  -4.526  26.490  0.00  0.00    +0.282 C 
ATOM     42  C   UNL     1       6.458  -5.964  27.024  0.00  0.00    +0.201 C 
ATOM     43  C   UNL     1       5.219  -6.400  27.807  0.00  0.00    +0.179 C 
ATOM     44  C   UNL     1       4.865  -5.378  28.894  0.00  0.00    +0.174 C 
BRANCH  42  45
ATOM     45  O   UNL     1       7.618  -6.027  27.878  0.00  0.00    -0.384 OA
ATOM     46  H   UNL     1       7.990  -5.125  27.890  0.00  0.00    +0.210 HD
ENDBRANCH  42  45
BRANCH  43  47
ATOM     47  O   UNL     1       5.477  -7.680  28.406  0.00  0.00    -0.386 OA
ATOM     48  H   UNL     1       4.662  -7.902  28.902  0.00  0.00    +0.210 HD
ENDBRANCH  43  47
BRANCH  44  49
ATOM     49  O   UNL     1       5.882  -5.445  29.912  0.00  0.00    -0.387 OA
ATOM     50  H   UNL     1       6.738  -5.290  29.452  0.00  0.00    +0.210 HD
ENDBRANCH  44  49
ENDBRANCH  37  41
ENDBRANCH  27  37
ENDBRANCH   1  32
TORSDOF 14
ENDMDL
MODEL 9
REMARK VINA RESULT:      -6.4      1.959      5.232
REMARK  Name = 
REMARK  15 active torsions:
REMARK  status: ('A' for Active; 'I' for Inactive)
REMARK    1  A    between atoms: C_1  and  C_2
REMARK    2  A    between atoms: C_3  and  O_46
REMARK    3  A    between atoms: C_5  and  O_45
REMARK    4  A    between atoms: C_6  and  O_44
REMARK    5  A    between atoms: C_8  and  O_11
REMARK    6  A    between atoms: O_11  and  C_12
REMARK    7  A    between atoms: C_13  and  O_22
REMARK    8  A    between atoms: C_17  and  O_21
REMARK    9  A    between atoms: C_19  and  O_20
REMARK   10  A    between atoms: O_22  and  C_23
REMARK   11  A    between atoms: C_24  and  C_36
REMARK   12  A    between atoms: C_28  and  O_35
REMARK   13  A    between atoms: C_30  and  O_34
REMARK   14  A    between atoms: C_38  and  O_43
REMARK   15  A    between atoms: C_39  and  O_42
REMARK                            x       y       z     vdW  Elec       q    Type
REMARK                         _______ _______ _______ _____ _____    ______ ____
ROOT
ATOM      1  O   UNL     1       6.199  -0.902  24.452  0.00  0.00    -0.453 OA
ENDROOT
BRANCH   1   2
ATOM      2  C   UNL     1       5.903   0.111  25.374  0.00  0.00    +0.214 A 
ATOM      3  C   UNL     1       4.715   0.062  26.296  0.00  0.00    +0.238 A 
ATOM      4  O   UNL     1       3.826  -0.771  26.161  0.00  0.00    -0.283 OA
ATOM      5  C   UNL     1       4.615   1.112  27.326  0.00  0.00    +0.109 A 
ATOM      6  C   UNL     1       5.543   2.152  27.293  0.00  0.00    +0.147 A 
ATOM      7  C   UNL     1       5.500   3.171  28.250  0.00  0.00    +0.092 A 
ATOM      8  C   UNL     1       4.500   3.153  29.224  0.00  0.00    +0.124 A 
ATOM      9  C   UNL     1       3.553   2.140  29.251  0.00  0.00    +0.091 A 
ATOM     10  O   UNL     1       6.511   2.262  26.324  0.00  0.00    -0.451 OA
ATOM     11  C   UNL     1       3.610   1.117  28.306  0.00  0.00    +0.135 A 
ATOM     12  C   UNL     1       6.652   1.231  25.416  0.00  0.00    +0.181 A 
BRANCH  12  13
ATOM     13  C   UNL     1       7.714   1.458  24.422  0.00  0.00    +0.025 A 
ATOM     14  C   UNL     1       8.989   1.881  24.847  0.00  0.00    +0.015 A 
ATOM     15  C   UNL     1       9.977   2.208  23.915  0.00  0.00    +0.050 A 
ATOM     16  C   UNL     1       9.684   2.123  22.564  0.00  0.00    +0.158 A 
ATOM     17  C   UNL     1       8.432   1.688  22.134  0.00  0.00    +0.159 A 
ATOM     18  C   UNL     1       7.447   1.336  23.052  0.00  0.00    +0.060 A 
BRANCH  16  19
ATOM     19  O   UNL     1      10.626   2.503  21.652  0.00  0.00    -0.503 OA
ATOM     20  H   UNL     1      11.375   2.829  22.191  0.00  0.00    +0.292 HD
ENDBRANCH  16  19
BRANCH  17  21
ATOM     21  O   UNL     1       8.210   1.651  20.785  0.00  0.00    -0.503 OA
ATOM     22  H   UNL     1       9.071   1.631  20.333  0.00  0.00    +0.292 HD
ENDBRANCH  17  21
ENDBRANCH  12  13
BRANCH   8  23
ATOM     23  O   UNL     1       4.407   4.118  30.174  0.00  0.00    -0.507 OA
ATOM     24  H   UNL     1       5.185   4.073  30.755  0.00  0.00    +0.292 HD
ENDBRANCH   8  23
BRANCH  11  25
ATOM     25  O   UNL     1       2.663   0.132  28.357  0.00  0.00    -0.506 OA
ATOM     26  H   UNL     1       1.790   0.489  28.126  0.00  0.00    +0.292 HD
ENDBRANCH  11  25
ENDBRANCH   1   2
BRANCH   1  32
ATOM     27  C   UNL     1       6.629  -3.287  23.962  0.00  0.00    +0.221 C 
ATOM     28  C   UNL     1       7.934  -3.209  23.149  0.00  0.00    +0.180 C 
ATOM     29  C   UNL     1       9.149  -3.073  24.082  0.00  0.00    +0.171 C 
ATOM     30  C   UNL     1       8.947  -1.891  25.021  0.00  0.00    +0.198 C 
ATOM     31  O   UNL     1       7.778  -2.063  25.808  0.00  0.00    -0.337 OA
ATOM     32  C   UNL     1       6.581  -2.157  25.031  0.00  0.00    +0.340 C 
BRANCH  28  33
ATOM     33  O   UNL     1       7.867  -2.128  22.203  0.00  0.00    -0.386 OA
ATOM     34  H   UNL     1       8.763  -1.807  22.002  0.00  0.00    +0.210 HD
ENDBRANCH  28  33
BRANCH  29  35
ATOM     35  O   UNL     1      10.357  -2.903  23.342  0.00  0.00    -0.387 OA
ATOM     36  H   UNL     1      10.256  -2.098  22.805  0.00  0.00    +0.210 HD
ENDBRANCH  29  35
BRANCH  27  37
ATOM     37  O   UNL     1       6.527  -4.605  24.554  0.00  0.00    -0.337 OA
BRANCH  37  41
ATOM     38  C   UNL     1       3.404  -6.096  27.056  0.00  0.00    +0.041 C 
ATOM     39  C   UNL     1       3.967  -6.875  25.864  0.00  0.00    +0.149 C 
ATOM     40  O   UNL     1       5.245  -6.359  25.443  0.00  0.00    -0.343 OA
ATOM     41  C   UNL     1       5.188  -5.065  24.821  0.00  0.00    +0.282 C 
ATOM     42  C   UNL     1       4.298  -5.115  23.556  0.00  0.00    +0.201 C 
ATOM     43  C   UNL     1       2.903  -5.620  23.928  0.00  0.00    +0.179 C 
ATOM     44  C   UNL     1       2.983  -6.952  24.684  0.00  0.00    +0.174 C 
BRANCH  42  45
ATOM     45  O   UNL     1       4.880  -5.984  22.563  0.00  0.00    -0.384 OA
ATOM     46  H   UNL     1       5.660  -6.389  22.987  0.00  0.00    +0.210 HD
ENDBRANCH  42  45
BRANCH  43  47
ATOM     47  O   UNL     1       2.136  -5.787  22.725  0.00  0.00    -0.386 OA
ATOM     48  H   UNL     1       1.210  -5.904  23.024  0.00  0.00    +0.210 HD
ENDBRANCH  43  47
BRANCH  44  49
ATOM     49  O   UNL     1       3.412  -7.964  23.754  0.00  0.00    -0.387 OA
ATOM     50  H   UNL     1       3.768  -7.482  22.973  0.00  0.00    +0.210 HD
ENDBRANCH  44  49
ENDBRANCH  37  41
ENDBRANCH  27  37
ENDBRANCH   1  32
TORSDOF 14
ENDMDL
