MODEL 1
REMARK VINA RESULT:      -7.8      0.000      0.000
REMARK  Name = 
REMARK  13 active torsions:
REMARK  status: ('A' for Active; 'I' for Inactive)
REMARK    1  A    between atoms: C_3  and  O_30
REMARK    2  A    between atoms: C_4  and  O_21
REMARK    3  A    between atoms: C_6  and  C_7
REMARK    4  A    between atoms: C_8  and  O_20
REMARK    5  A    between atoms: C_12  and  O_19
REMARK    6  A    between atoms: C_14  and  O_18
REMARK    7  A    between atoms: O_21  and  C_22
REMARK    8  A    between atoms: C_22  and  C_24
REMARK    9  A    between atoms: C_24  and  C_25
REMARK   10  A    between atoms: C_25  and  C_26
REMARK   11  A    between atoms: C_26  and  C_27
REMARK   12  A    between atoms: C_27  and  C_28
REMARK   13  A    between atoms: C_28  and  N_29
REMARK                            x       y       z     vdW  Elec       q    Type
REMARK                         _______ _______ _______ _____ _____    ______ ____
ROOT
ATOM      1  C   UNL     1       8.961  -1.413  22.101  0.00  0.00    +0.015 A 
ATOM      2  C   UNL     1       7.708  -1.221  22.713  0.00  0.00    +0.025 A 
ATOM      3  C   UNL     1       7.215   0.093  22.797  0.00  0.00    +0.061 A 
ATOM      4  C   UNL     1       7.977   1.174  22.339  0.00  0.00    +0.173 A 
ATOM      5  C   UNL     1       9.261   0.967  21.835  0.00  0.00    +0.159 A 
ATOM      6  C   UNL     1       9.749  -0.327  21.694  0.00  0.00    +0.050 A 
ENDROOT
BRANCH   2   7
ATOM      7  C   UNL     1       6.905  -2.350  23.269  0.00  0.00    +0.181 A 
ATOM      8  O   UNL     1       7.377  -2.797  24.504  0.00  0.00    -0.451 OA
ATOM      9  C   UNL     1       6.818  -3.914  25.072  0.00  0.00    +0.147 A 
ATOM     10  C   UNL     1       5.698  -4.546  24.542  0.00  0.00    +0.109 A 
ATOM     11  C   UNL     1       5.163  -5.678  25.172  0.00  0.00    +0.135 A 
ATOM     12  C   UNL     1       5.746  -6.180  26.328  0.00  0.00    +0.091 A 
ATOM     13  C   UNL     1       6.871  -5.548  26.846  0.00  0.00    +0.124 A 
ATOM     14  C   UNL     1       5.124  -4.021  23.304  0.00  0.00    +0.238 A 
ATOM     15  O   UNL     1       4.107  -4.530  22.840  0.00  0.00    -0.283 OA
ATOM     16  C   UNL     1       7.412  -4.419  26.230  0.00  0.00    +0.092 A 
ATOM     17  C   UNL     1       5.854  -2.915  22.631  0.00  0.00    +0.208 A 
BRANCH  11  18
ATOM     18  O   UNL     1       4.066  -6.347  24.697  0.00  0.00    -0.506 OA
ATOM     19  H   UNL     1       3.458  -5.687  24.291  0.00  0.00    +0.292 HD
ENDBRANCH  11  18
BRANCH  13  20
ATOM     20  O   UNL     1       7.482  -6.016  27.975  0.00  0.00    -0.507 OA
ATOM     21  H   UNL     1       8.160  -5.374  28.253  0.00  0.00    +0.292 HD
ENDBRANCH  13  20
BRANCH  17  22
ATOM     22  O   UNL     1       5.412  -2.580  21.364  0.00  0.00    -0.501 OA
ATOM     23  H   UNL     1       5.106  -3.390  20.925  0.00  0.00    +0.292 HD
ENDBRANCH  17  22
ENDBRANCH   2   7
BRANCH   5  24
ATOM     24  O   UNL     1      10.030   2.041  21.489  0.00  0.00    -0.503 OA
ATOM     25  H   UNL     1       9.978   2.172  20.527  0.00  0.00    +0.292 HD
ENDBRANCH   5  24
BRANCH   4  26
ATOM     26  O   UNL     1       7.538   2.508  22.472  0.00  0.00    -0.422 OA
BRANCH  26  27
ATOM     27  C   UNL     1       7.790   3.204  23.652  0.00  0.00    +0.312 C 
ATOM     28  O   UNL     1       7.594   2.801  24.792  0.00  0.00    -0.250 OA
BRANCH  27  29
ATOM     29  C   UNL     1       8.401   4.549  23.331  0.00  0.00    +0.121 C 
BRANCH  29  30
ATOM     30  C   UNL     1       9.780   4.646  23.974  0.00  0.00    +0.011 C 
BRANCH  30  31
ATOM     31  C   UNL     1      10.479   5.976  23.696  0.00  0.00    +0.002 C 
BRANCH  31  32
ATOM     32  C   UNL     1      11.980   5.848  23.976  0.00  0.00    +0.015 C 
BRANCH  32  33
ATOM     33  C   UNL     1      12.770   5.441  22.736  0.00  0.00    +0.077 C 
BRANCH  33  34
ATOM     34  N   UNL     1      14.141   5.116  23.109  0.00  0.00    -0.330 NA
ATOM     35  H   UNL     1      14.695   4.953  22.268  0.00  0.00    +0.118 HD
ATOM     36  H   UNL     1      14.569   5.911  23.581  0.00  0.00    +0.118 HD
ENDBRANCH  33  34
ENDBRANCH  32  33
ENDBRANCH  31  32
ENDBRANCH  30  31
ENDBRANCH  29  30
ENDBRANCH  27  29
ENDBRANCH  26  27
ENDBRANCH   4  26
TORSDOF 13
ENDMDL
MODEL 2
REMARK VINA RESULT:      -7.7      1.100      2.481
REMARK  Name = 
REMARK  13 active torsions:
REMARK  status: ('A' for Active; 'I' for Inactive)
REMARK    1  A    between atoms: C_3  and  O_30
REMARK    2  A    between atoms: C_4  and  O_21
REMARK    3  A    between atoms: C_6  and  C_7
REMARK    4  A    between atoms: C_8  and  O_20
REMARK    5  A    between atoms: C_12  and  O_19
REMARK    6  A    between atoms: C_14  and  O_18
REMARK    7  A    between atoms: O_21  and  C_22
REMARK    8  A    between atoms: C_22  and  C_24
REMARK    9  A    between atoms: C_24  and  C_25
REMARK   10  A    between atoms: C_25  and  C_26
REMARK   11  A    between atoms: C_26  and  C_27
REMARK   12  A    between atoms: C_27  and  C_28
REMARK   13  A    between atoms: C_28  and  N_29
REMARK                            x       y       z     vdW  Elec       q    Type
REMARK                         _______ _______ _______ _____ _____    ______ ____
ROOT
ATOM      1  C   UNL     1       9.207  -1.496  22.221  0.00  0.00    +0.015 A 
ATOM      2  C   UNL     1       8.151  -1.415  23.149  0.00  0.00    +0.025 A 
ATOM      3  C   UNL     1       7.581  -0.150  23.381  0.00  0.00    +0.061 A 
ATOM      4  C   UNL     1       8.092   0.992  22.753  0.00  0.00    +0.173 A 
ATOM      5  C   UNL     1       9.208   0.898  21.921  0.00  0.00    +0.159 A 
ATOM      6  C   UNL     1       9.756  -0.347  21.636  0.00  0.00    +0.050 A 
ENDROOT
BRANCH   2   7
ATOM      7  C   UNL     1       7.631  -2.607  23.881  0.00  0.00    +0.181 A 
ATOM      8  O   UNL     1       6.722  -3.353  23.130  0.00  0.00    -0.451 OA
ATOM      9  C   UNL     1       6.064  -4.402  23.720  0.00  0.00    +0.147 A 
ATOM     10  C   UNL     1       6.365  -4.852  25.001  0.00  0.00    +0.109 A 
ATOM     11  C   UNL     1       5.667  -5.936  25.550  0.00  0.00    +0.135 A 
ATOM     12  C   UNL     1       4.666  -6.568  24.823  0.00  0.00    +0.091 A 
ATOM     13  C   UNL     1       4.366  -6.106  23.546  0.00  0.00    +0.124 A 
ATOM     14  C   UNL     1       7.395  -4.147  25.762  0.00  0.00    +0.238 A 
ATOM     15  O   UNL     1       7.715  -4.552  26.877  0.00  0.00    -0.283 OA
ATOM     16  C   UNL     1       5.054  -5.030  22.988  0.00  0.00    +0.092 A 
ATOM     17  C   UNL     1       7.968  -2.917  25.154  0.00  0.00    +0.208 A 
BRANCH  11  18
ATOM     18  O   UNL     1       5.912  -6.422  26.807  0.00  0.00    -0.506 OA
ATOM     19  H   UNL     1       5.374  -5.901  27.447  0.00  0.00    +0.292 HD
ENDBRANCH  11  18
BRANCH  13  20
ATOM     20  O   UNL     1       3.382  -6.693  22.801  0.00  0.00    -0.507 OA
ATOM     21  H   UNL     1       2.556  -6.190  22.922  0.00  0.00    +0.292 HD
ENDBRANCH  13  20
BRANCH  17  22
ATOM     22  O   UNL     1       8.780  -2.157  25.976  0.00  0.00    -0.501 OA
ATOM     23  H   UNL     1       8.212  -1.626  26.558  0.00  0.00    +0.292 HD
ENDBRANCH  17  22
ENDBRANCH   2   7
BRANCH   5  24
ATOM     24  O   UNL     1       9.756   2.035  21.399  0.00  0.00    -0.503 OA
ATOM     25  H   UNL     1       9.338   2.808  21.814  0.00  0.00    +0.292 HD
ENDBRANCH   5  24
BRANCH   4  26
ATOM     26  O   UNL     1       7.585   2.281  23.019  0.00  0.00    -0.422 OA
BRANCH  26  27
ATOM     27  C   UNL     1       8.007   2.968  24.154  0.00  0.00    +0.312 C 
ATOM     28  O   UNL     1       8.082   2.520  25.292  0.00  0.00    -0.250 OA
BRANCH  27  29
ATOM     29  C   UNL     1       8.416   4.374  23.778  0.00  0.00    +0.121 C 
BRANCH  29  30
ATOM     30  C   UNL     1       9.937   4.480  23.792  0.00  0.00    +0.011 C 
BRANCH  30  31
ATOM     31  C   UNL     1      10.437   5.924  23.760  0.00  0.00    +0.002 C 
BRANCH  31  32
ATOM     32  C   UNL     1      11.952   5.959  23.990  0.00  0.00    +0.015 C 
BRANCH  32  33
ATOM     33  C   UNL     1      12.680   4.856  23.226  0.00  0.00    +0.077 C 
BRANCH  33  34
ATOM     34  N   UNL     1      14.093   5.193  23.103  0.00  0.00    -0.330 NA
ATOM     35  H   UNL     1      14.616   4.755  23.862  0.00  0.00    +0.118 HD
ATOM     36  H   UNL     1      14.468   4.804  22.239  0.00  0.00    +0.118 HD
ENDBRANCH  33  34
ENDBRANCH  32  33
ENDBRANCH  31  32
ENDBRANCH  30  31
ENDBRANCH  29  30
ENDBRANCH  27  29
ENDBRANCH  26  27
ENDBRANCH   4  26
TORSDOF 13
ENDMDL
MODEL 3
REMARK VINA RESULT:      -7.5      2.034      2.602
REMARK  Name = 
REMARK  13 active torsions:
REMARK  status: ('A' for Active; 'I' for Inactive)
REMARK    1  A    between atoms: C_3  and  O_30
REMARK    2  A    between atoms: C_4  and  O_21
REMARK    3  A    between atoms: C_6  and  C_7
REMARK    4  A    between atoms: C_8  and  O_20
REMARK    5  A    between atoms: C_12  and  O_19
REMARK    6  A    between atoms: C_14  and  O_18
REMARK    7  A    between atoms: O_21  and  C_22
REMARK    8  A    between atoms: C_22  and  C_24
REMARK    9  A    between atoms: C_24  and  C_25
REMARK   10  A    between atoms: C_25  and  C_26
REMARK   11  A    between atoms: C_26  and  C_27
REMARK   12  A    between atoms: C_27  and  C_28
REMARK   13  A    between atoms: C_28  and  N_29
REMARK                            x       y       z     vdW  Elec       q    Type
REMARK                         _______ _______ _______ _____ _____    ______ ____
ROOT
ATOM      1  C   UNL     1       8.956  -1.146  22.318  0.00  0.00    +0.015 A 
ATOM      2  C   UNL     1       8.685  -1.006  23.693  0.00  0.00    +0.025 A 
ATOM      3  C   UNL     1       8.792   0.280  24.253  0.00  0.00    +0.061 A 
ATOM      4  C   UNL     1       9.212   1.366  23.476  0.00  0.00    +0.173 A 
ATOM      5  C   UNL     1       9.577   1.179  22.143  0.00  0.00    +0.159 A 
ATOM      6  C   UNL     1       9.431  -0.071  21.553  0.00  0.00    +0.050 A 
ENDROOT
BRANCH   2   7
ATOM      7  C   UNL     1       8.300  -2.160  24.557  0.00  0.00    +0.181 A 
ATOM      8  O   UNL     1       7.091  -1.960  25.225  0.00  0.00    -0.451 OA
ATOM      9  C   UNL     1       6.676  -2.881  26.153  0.00  0.00    +0.147 A 
ATOM     10  C   UNL     1       7.336  -4.086  26.363  0.00  0.00    +0.109 A 
ATOM     11  C   UNL     1       6.861  -4.995  27.319  0.00  0.00    +0.135 A 
ATOM     12  C   UNL     1       5.729  -4.698  28.067  0.00  0.00    +0.091 A 
ATOM     13  C   UNL     1       5.080  -3.486  27.858  0.00  0.00    +0.124 A 
ATOM     14  C   UNL     1       8.547  -4.360  25.590  0.00  0.00    +0.238 A 
ATOM     15  O   UNL     1       9.123  -5.437  25.719  0.00  0.00    -0.283 OA
ATOM     16  C   UNL     1       5.542  -2.574  26.909  0.00  0.00    +0.092 A 
ATOM     17  C   UNL     1       9.056  -3.271  24.715  0.00  0.00    +0.208 A 
BRANCH  11  18
ATOM     18  O   UNL     1       7.469  -6.195  27.575  0.00  0.00    -0.506 OA
ATOM     19  H   UNL     1       8.135  -6.357  26.867  0.00  0.00    +0.292 HD
ENDBRANCH  11  18
BRANCH  13  20
ATOM     20  O   UNL     1       3.970  -3.150  28.581  0.00  0.00    -0.507 OA
ATOM     21  H   UNL     1       4.082  -2.246  28.925  0.00  0.00    +0.292 HD
ENDBRANCH  13  20
BRANCH  17  22
ATOM     22  O   UNL     1      10.307  -3.474  24.160  0.00  0.00    -0.501 OA
ATOM     23  H   UNL     1      10.967  -3.060  24.739  0.00  0.00    +0.292 HD
ENDBRANCH  17  22
ENDBRANCH   2   7
BRANCH   5  24
ATOM     24  O   UNL     1      10.082   2.228  21.429  0.00  0.00    -0.503 OA
ATOM     25  H   UNL     1       9.668   2.244  20.550  0.00  0.00    +0.292 HD
ENDBRANCH   5  24
BRANCH   4  26
ATOM     26  O   UNL     1       9.394   2.652  24.026  0.00  0.00    -0.422 OA
BRANCH  26  27
ATOM     27  C   UNL     1       8.316   3.530  24.101  0.00  0.00    +0.312 C 
ATOM     28  O   UNL     1       7.135   3.251  23.937  0.00  0.00    -0.250 OA
BRANCH  27  29
ATOM     29  C   UNL     1       8.808   4.912  24.470  0.00  0.00    +0.121 C 
BRANCH  29  30
ATOM     30  C   UNL     1      10.069   5.229  23.676  0.00  0.00    +0.011 C 
BRANCH  30  31
ATOM     31  C   UNL     1      10.844   6.423  24.235  0.00  0.00    +0.002 C 
BRANCH  31  32
ATOM     32  C   UNL     1      12.333   6.075  24.347  0.00  0.00    +0.015 C 
BRANCH  32  33
ATOM     33  C   UNL     1      12.759   5.016  23.334  0.00  0.00    +0.077 C 
BRANCH  33  34
ATOM     34  N   UNL     1      14.166   5.196  22.997  0.00  0.00    -0.330 NA
ATOM     35  H   UNL     1      14.441   4.504  22.300  0.00  0.00    +0.118 HD
ATOM     36  H   UNL     1      14.305   6.107  22.563  0.00  0.00    +0.118 HD
ENDBRANCH  33  34
ENDBRANCH  32  33
ENDBRANCH  31  32
ENDBRANCH  30  31
ENDBRANCH  29  30
ENDBRANCH  27  29
ENDBRANCH  26  27
ENDBRANCH   4  26
TORSDOF 13
ENDMDL
MODEL 4
REMARK VINA RESULT:      -7.2      2.988      8.389
REMARK  Name = 
REMARK  13 active torsions:
REMARK  status: ('A' for Active; 'I' for Inactive)
REMARK    1  A    between atoms: C_3  and  O_30
REMARK    2  A    between atoms: C_4  and  O_21
REMARK    3  A    between atoms: C_6  and  C_7
REMARK    4  A    between atoms: C_8  and  O_20
REMARK    5  A    between atoms: C_12  and  O_19
REMARK    6  A    between atoms: C_14  and  O_18
REMARK    7  A    between atoms: O_21  and  C_22
REMARK    8  A    between atoms: C_22  and  C_24
REMARK    9  A    between atoms: C_24  and  C_25
REMARK   10  A    between atoms: C_25  and  C_26
REMARK   11  A    between atoms: C_26  and  C_27
REMARK   12  A    between atoms: C_27  and  C_28
REMARK   13  A    between atoms: C_28  and  N_29
REMARK                            x       y       z     vdW  Elec       q    Type
REMARK                         _______ _______ _______ _____ _____    ______ ____
ROOT
ATOM      1  C   UNL     1       7.202  -3.708  21.998  0.00  0.00    +0.015 A 
ATOM      2  C   UNL     1       6.854  -2.781  22.999  0.00  0.00    +0.025 A 
ATOM      3  C   UNL     1       5.758  -3.091  23.825  0.00  0.00    +0.061 A 
ATOM      4  C   UNL     1       5.010  -4.255  23.613  0.00  0.00    +0.173 A 
ATOM      5  C   UNL     1       5.311  -5.102  22.547  0.00  0.00    +0.159 A 
ATOM      6  C   UNL     1       6.419  -4.845  21.750  0.00  0.00    +0.050 A 
ENDROOT
BRANCH   2   7
ATOM      7  C   UNL     1       7.596  -1.502  23.202  0.00  0.00    +0.181 A 
ATOM      8  O   UNL     1       6.845  -0.377  22.858  0.00  0.00    -0.451 OA
ATOM      9  C   UNL     1       7.442   0.858  22.869  0.00  0.00    +0.147 A 
ATOM     10  C   UNL     1       8.731   1.065  23.347  0.00  0.00    +0.109 A 
ATOM     11  C   UNL     1       9.287   2.351  23.345  0.00  0.00    +0.135 A 
ATOM     12  C   UNL     1       8.558   3.430  22.862  0.00  0.00    +0.091 A 
ATOM     13  C   UNL     1       7.273   3.214  22.377  0.00  0.00    +0.124 A 
ATOM     14  C   UNL     1       9.494  -0.092  23.816  0.00  0.00    +0.238 A 
ATOM     15  O   UNL     1      10.616   0.067  24.288  0.00  0.00    -0.283 OA
ATOM     16  C   UNL     1       6.708   1.938  22.376  0.00  0.00    +0.092 A 
ATOM     17  C   UNL     1       8.876  -1.432  23.635  0.00  0.00    +0.208 A 
BRANCH  11  18
ATOM     18  O   UNL     1      10.553   2.618  23.797  0.00  0.00    -0.506 OA
ATOM     19  H   UNL     1      11.117   1.835  23.604  0.00  0.00    +0.292 HD
ENDBRANCH  11  18
BRANCH  13  20
ATOM     20  O   UNL     1       6.526   4.246  21.883  0.00  0.00    -0.507 OA
ATOM     21  H   UNL     1       6.043   3.934  21.096  0.00  0.00    +0.292 HD
ENDBRANCH  13  20
BRANCH  17  22
ATOM     22  O   UNL     1       9.696  -2.517  23.889  0.00  0.00    -0.501 OA
ATOM     23  H   UNL     1       9.258  -3.081  24.546  0.00  0.00    +0.292 HD
ENDBRANCH  17  22
ENDBRANCH   2   7
BRANCH   5  24
ATOM     24  O   UNL     1       4.507  -6.177  22.294  0.00  0.00    -0.503 OA
ATOM     25  H   UNL     1       4.813  -6.934  22.822  0.00  0.00    +0.292 HD
ENDBRANCH   5  24
BRANCH   4  26
ATOM     26  O   UNL     1       3.866  -4.557  24.382  0.00  0.00    -0.422 OA
BRANCH  26  27
ATOM     27  C   UNL     1       4.002  -4.856  25.735  0.00  0.00    +0.312 C 
ATOM     28  O   UNL     1       3.443  -4.290  26.667  0.00  0.00    -0.250 OA
BRANCH  27  29
ATOM     29  C   UNL     1       4.925  -6.041  25.906  0.00  0.00    +0.121 C 
BRANCH  29  30
ATOM     30  C   UNL     1       5.806  -5.824  27.131  0.00  0.00    +0.011 C 
BRANCH  30  31
ATOM     31  C   UNL     1       6.896  -4.776  26.905  0.00  0.00    +0.002 C 
BRANCH  31  32
ATOM     32  C   UNL     1       7.907  -5.286  25.872  0.00  0.00    +0.015 C 
BRANCH  32  33
ATOM     33  C   UNL     1       9.344  -4.924  26.239  0.00  0.00    +0.077 C 
BRANCH  33  34
ATOM     34  N   UNL     1      10.234  -5.260  25.134  0.00  0.00    -0.330 NA
ATOM     35  H   UNL     1      10.792  -6.077  25.382  0.00  0.00    +0.118 HD
ATOM     36  H   UNL     1       9.687  -5.526  24.317  0.00  0.00    +0.118 HD
ENDBRANCH  33  34
ENDBRANCH  32  33
ENDBRANCH  31  32
ENDBRANCH  30  31
ENDBRANCH  29  30
ENDBRANCH  27  29
ENDBRANCH  26  27
ENDBRANCH   4  26
TORSDOF 13
ENDMDL
MODEL 5
REMARK VINA RESULT:      -7.1      1.661      1.856
REMARK  Name = 
REMARK  13 active torsions:
REMARK  status: ('A' for Active; 'I' for Inactive)
REMARK    1  A    between atoms: C_3  and  O_30
REMARK    2  A    between atoms: C_4  and  O_21
REMARK    3  A    between atoms: C_6  and  C_7
REMARK    4  A    between atoms: C_8  and  O_20
REMARK    5  A    between atoms: C_12  and  O_19
REMARK    6  A    between atoms: C_14  and  O_18
REMARK    7  A    between atoms: O_21  and  C_22
REMARK    8  A    between atoms: C_22  and  C_24
REMARK    9  A    between atoms: C_24  and  C_25
REMARK   10  A    between atoms: C_25  and  C_26
REMARK   11  A    between atoms: C_26  and  C_27
REMARK   12  A    between atoms: C_27  and  C_28
REMARK   13  A    between atoms: C_28  and  N_29
REMARK                            x       y       z     vdW  Elec       q    Type
REMARK                         _______ _______ _______ _____ _____    ______ ____
ROOT
ATOM      1  C   UNL     1       8.749  -1.534  21.934  0.00  0.00    +0.015 A 
ATOM      2  C   UNL     1       7.579  -1.369  22.701  0.00  0.00    +0.025 A 
ATOM      3  C   UNL     1       7.147  -0.056  22.960  0.00  0.00    +0.061 A 
ATOM      4  C   UNL     1       7.894   1.043  22.519  0.00  0.00    +0.173 A 
ATOM      5  C   UNL     1       9.105   0.851  21.855  0.00  0.00    +0.159 A 
ATOM      6  C   UNL     1       9.526  -0.436  21.541  0.00  0.00    +0.050 A 
ENDROOT
BRANCH   2   7
ATOM      7  C   UNL     1       6.801  -2.524  23.238  0.00  0.00    +0.181 A 
ATOM      8  O   UNL     1       7.186  -2.885  24.530  0.00  0.00    -0.451 OA
ATOM      9  C   UNL     1       6.649  -4.010  25.101  0.00  0.00    +0.147 A 
ATOM     10  C   UNL     1       5.624  -4.738  24.507  0.00  0.00    +0.109 A 
ATOM     11  C   UNL     1       5.105  -5.875  25.142  0.00  0.00    +0.135 A 
ATOM     12  C   UNL     1       5.612  -6.287  26.367  0.00  0.00    +0.091 A 
ATOM     13  C   UNL     1       6.643  -5.559  26.951  0.00  0.00    +0.124 A 
ATOM     14  C   UNL     1       5.133  -4.307  23.199  0.00  0.00    +0.238 A 
ATOM     15  O   UNL     1       4.196  -4.902  22.672  0.00  0.00    -0.283 OA
ATOM     16  C   UNL     1       7.166  -4.425  26.330  0.00  0.00    +0.092 A 
ATOM     17  C   UNL     1       5.850  -3.185  22.539  0.00  0.00    +0.208 A 
BRANCH  11  18
ATOM     18  O   UNL     1       4.101  -6.636  24.605  0.00  0.00    -0.506 OA
ATOM     19  H   UNL     1       4.281  -6.745  23.643  0.00  0.00    +0.292 HD
ENDBRANCH  11  18
BRANCH  13  20
ATOM     20  O   UNL     1       7.177  -5.936  28.151  0.00  0.00    -0.507 OA
ATOM     21  H   UNL     1       7.465  -5.138  28.630  0.00  0.00    +0.292 HD
ENDBRANCH  13  20
BRANCH  17  22
ATOM     22  O   UNL     1       5.505  -2.935  21.223  0.00  0.00    -0.501 OA
ATOM     23  H   UNL     1       4.671  -2.439  21.216  0.00  0.00    +0.292 HD
ENDBRANCH  17  22
ENDBRANCH   2   7
BRANCH   5  24
ATOM     24  O   UNL     1       9.870   1.933  21.523  0.00  0.00    -0.503 OA
ATOM     25  H   UNL     1      10.632   1.980  22.126  0.00  0.00    +0.292 HD
ENDBRANCH   5  24
BRANCH   4  26
ATOM     26  O   UNL     1       7.522   2.369  22.823  0.00  0.00    -0.422 OA
BRANCH  26  27
ATOM     27  C   UNL     1       6.575   2.611  23.815  0.00  0.00    +0.312 C 
ATOM     28  O   UNL     1       5.363   2.453  23.721  0.00  0.00    -0.250 OA
BRANCH  27  29
ATOM     29  C   UNL     1       7.265   3.067  25.080  0.00  0.00    +0.121 C 
BRANCH  29  30
ATOM     30  C   UNL     1       8.612   3.688  24.727  0.00  0.00    +0.011 C 
BRANCH  30  31
ATOM     31  C   UNL     1       8.614   5.213  24.833  0.00  0.00    +0.002 C 
BRANCH  31  32
ATOM     32  C   UNL     1       9.096   5.829  23.515  0.00  0.00    +0.015 C 
BRANCH  32  33
ATOM     33  C   UNL     1       7.945   6.378  22.676  0.00  0.00    +0.077 C 
BRANCH  33  34
ATOM     34  N   UNL     1       7.487   5.358  21.740  0.00  0.00    -0.330 NA
ATOM     35  H   UNL     1       7.193   4.529  22.256  0.00  0.00    +0.118 HD
ATOM     36  H   UNL     1       6.662   5.690  21.242  0.00  0.00    +0.118 HD
ENDBRANCH  33  34
ENDBRANCH  32  33
ENDBRANCH  31  32
ENDBRANCH  30  31
ENDBRANCH  29  30
ENDBRANCH  27  29
ENDBRANCH  26  27
ENDBRANCH   4  26
TORSDOF 13
ENDMDL
MODEL 6
REMARK VINA RESULT:      -7.0      2.328      3.012
REMARK  Name = 
REMARK  13 active torsions:
REMARK  status: ('A' for Active; 'I' for Inactive)
REMARK    1  A    between atoms: C_3  and  O_30
REMARK    2  A    between atoms: C_4  and  O_21
REMARK    3  A    between atoms: C_6  and  C_7
REMARK    4  A    between atoms: C_8  and  O_20
REMARK    5  A    between atoms: C_12  and  O_19
REMARK    6  A    between atoms: C_14  and  O_18
REMARK    7  A    between atoms: O_21  and  C_22
REMARK    8  A    between atoms: C_22  and  C_24
REMARK    9  A    between atoms: C_24  and  C_25
REMARK   10  A    between atoms: C_25  and  C_26
REMARK   11  A    between atoms: C_26  and  C_27
REMARK   12  A    between atoms: C_27  and  C_28
REMARK   13  A    between atoms: C_28  and  N_29
REMARK                            x       y       z     vdW  Elec       q    Type
REMARK                         _______ _______ _______ _____ _____    ______ ____
ROOT
ATOM      1  C   UNL     1       8.900  -1.644  22.098  0.00  0.00    +0.015 A 
ATOM      2  C   UNL     1       7.641  -1.466  22.704  0.00  0.00    +0.025 A 
ATOM      3  C   UNL     1       7.136  -0.156  22.789  0.00  0.00    +0.061 A 
ATOM      4  C   UNL     1       7.892   0.933  22.339  0.00  0.00    +0.173 A 
ATOM      5  C   UNL     1       9.180   0.738  21.842  0.00  0.00    +0.159 A 
ATOM      6  C   UNL     1       9.681  -0.550  21.699  0.00  0.00    +0.050 A 
ENDROOT
BRANCH   2   7
ATOM      7  C   UNL     1       6.845  -2.604  23.250  0.00  0.00    +0.181 A 
ATOM      8  O   UNL     1       7.207  -2.944  24.555  0.00  0.00    -0.451 OA
ATOM      9  C   UNL     1       6.651  -4.054  25.138  0.00  0.00    +0.147 A 
ATOM     10  C   UNL     1       5.629  -4.784  24.542  0.00  0.00    +0.109 A 
ATOM     11  C   UNL     1       5.090  -5.904  25.189  0.00  0.00    +0.135 A 
ATOM     12  C   UNL     1       5.575  -6.298  26.430  0.00  0.00    +0.091 A 
ATOM     13  C   UNL     1       6.603  -5.568  27.016  0.00  0.00    +0.124 A 
ATOM     14  C   UNL     1       5.161  -4.373  23.218  0.00  0.00    +0.238 A 
ATOM     15  O   UNL     1       4.228  -4.970  22.688  0.00  0.00    -0.283 OA
ATOM     16  C   UNL     1       7.146  -4.450  26.382  0.00  0.00    +0.092 A 
ATOM     17  C   UNL     1       5.899  -3.270  22.549  0.00  0.00    +0.208 A 
BRANCH  11  18
ATOM     18  O   UNL     1       4.087  -6.667  24.652  0.00  0.00    -0.506 OA
ATOM     19  H   UNL     1       3.236  -6.191  24.788  0.00  0.00    +0.292 HD
ENDBRANCH  11  18
BRANCH  13  20
ATOM     20  O   UNL     1       7.116  -5.928  28.231  0.00  0.00    -0.507 OA
ATOM     21  H   UNL     1       7.391  -5.122  28.705  0.00  0.00    +0.292 HD
ENDBRANCH  13  20
BRANCH  17  22
ATOM     22  O   UNL     1       5.576  -3.042  21.223  0.00  0.00    -0.501 OA
ATOM     23  H   UNL     1       4.617  -2.903  21.163  0.00  0.00    +0.292 HD
ENDBRANCH  17  22
ENDBRANCH   2   7
BRANCH   5  24
ATOM     24  O   UNL     1       9.942   1.821  21.504  0.00  0.00    -0.503 OA
ATOM     25  H   UNL     1      10.105   1.808  20.546  0.00  0.00    +0.292 HD
ENDBRANCH   5  24
BRANCH   4  26
ATOM     26  O   UNL     1       7.440   2.262  22.475  0.00  0.00    -0.422 OA
BRANCH  26  27
ATOM     27  C   UNL     1       7.864   3.029  23.556  0.00  0.00    +0.312 C 
ATOM     28  O   UNL     1       8.877   3.716  23.611  0.00  0.00    -0.250 OA
BRANCH  27  29
ATOM     29  C   UNL     1       6.853   2.937  24.676  0.00  0.00    +0.121 C 
BRANCH  29  30
ATOM     30  C   UNL     1       7.549   2.472  25.950  0.00  0.00    +0.011 C 
BRANCH  30  31
ATOM     31  C   UNL     1       6.709   1.489  26.767  0.00  0.00    +0.002 C 
BRANCH  31  32
ATOM     32  C   UNL     1       7.038   0.050  26.353  0.00  0.00    +0.015 C 
BRANCH  32  33
ATOM     33  C   UNL     1       8.541  -0.193  26.244  0.00  0.00    +0.077 C 
BRANCH  33  34
ATOM     34  N   UNL     1       9.096  -0.449  27.568  0.00  0.00    -0.330 NA
ATOM     35  H   UNL     1       8.440  -1.011  28.110  0.00  0.00    +0.118 HD
ATOM     36  H   UNL     1       9.946  -1.004  27.486  0.00  0.00    +0.118 HD
ENDBRANCH  33  34
ENDBRANCH  32  33
ENDBRANCH  31  32
ENDBRANCH  30  31
ENDBRANCH  29  30
ENDBRANCH  27  29
ENDBRANCH  26  27
ENDBRANCH   4  26
TORSDOF 13
ENDMDL
MODEL 7
REMARK VINA RESULT:      -7.0      3.322      8.528
REMARK  Name = 
REMARK  13 active torsions:
REMARK  status: ('A' for Active; 'I' for Inactive)
REMARK    1  A    between atoms: C_3  and  O_30
REMARK    2  A    between atoms: C_4  and  O_21
REMARK    3  A    between atoms: C_6  and  C_7
REMARK    4  A    between atoms: C_8  and  O_20
REMARK    5  A    between atoms: C_12  and  O_19
REMARK    6  A    between atoms: C_14  and  O_18
REMARK    7  A    between atoms: O_21  and  C_22
REMARK    8  A    between atoms: C_22  and  C_24
REMARK    9  A    between atoms: C_24  and  C_25
REMARK   10  A    between atoms: C_25  and  C_26
REMARK   11  A    between atoms: C_26  and  C_27
REMARK   12  A    between atoms: C_27  and  C_28
REMARK   13  A    between atoms: C_28  and  N_29
REMARK                            x       y       z     vdW  Elec       q    Type
REMARK                         _______ _______ _______ _____ _____    ______ ____
ROOT
ATOM      1  C   UNL     1       8.272  -2.372  26.164  0.00  0.00    +0.015 A 
ATOM      2  C   UNL     1       8.087  -2.030  24.810  0.00  0.00    +0.025 A 
ATOM      3  C   UNL     1       8.028  -3.079  23.874  0.00  0.00    +0.061 A 
ATOM      4  C   UNL     1       8.207  -4.408  24.275  0.00  0.00    +0.173 A 
ATOM      5  C   UNL     1       8.496  -4.708  25.606  0.00  0.00    +0.159 A 
ATOM      6  C   UNL     1       8.508  -3.696  26.558  0.00  0.00    +0.050 A 
ENDROOT
BRANCH   2   7
ATOM      7  C   UNL     1       7.959  -0.617  24.349  0.00  0.00    +0.181 A 
ATOM      8  O   UNL     1       9.193   0.007  24.159  0.00  0.00    -0.451 OA
ATOM      9  C   UNL     1       9.229   1.346  23.861  0.00  0.00    +0.147 A 
ATOM     10  C   UNL     1       8.084   2.088  23.598  0.00  0.00    +0.109 A 
ATOM     11  C   UNL     1       8.182   3.452  23.288  0.00  0.00    +0.135 A 
ATOM     12  C   UNL     1       9.422   4.075  23.246  0.00  0.00    +0.091 A 
ATOM     13  C   UNL     1      10.563   3.327  23.520  0.00  0.00    +0.124 A 
ATOM     14  C   UNL     1       6.786   1.420  23.685  0.00  0.00    +0.238 A 
ATOM     15  O   UNL     1       5.761   2.038  23.411  0.00  0.00    -0.283 OA
ATOM     16  C   UNL     1      10.478   1.969  23.827  0.00  0.00    +0.092 A 
ATOM     17  C   UNL     1       6.776   0.015  24.170  0.00  0.00    +0.208 A 
BRANCH  11  18
ATOM     18  O   UNL     1       7.091   4.237  23.025  0.00  0.00    -0.506 OA
ATOM     19  H   UNL     1       7.174   5.063  23.556  0.00  0.00    +0.292 HD
ENDBRANCH  11  18
BRANCH  13  20
ATOM     20  O   UNL     1      11.801   3.904  23.500  0.00  0.00    -0.507 OA
ATOM     21  H   UNL     1      11.807   4.654  24.121  0.00  0.00    +0.292 HD
ENDBRANCH  13  20
BRANCH  17  22
ATOM     22  O   UNL     1       5.531  -0.523  24.443  0.00  0.00    -0.501 OA
ATOM     23  H   UNL     1       5.653  -1.445  24.720  0.00  0.00    +0.292 HD
ENDBRANCH  17  22
ENDBRANCH   2   7
BRANCH   5  24
ATOM     24  O   UNL     1       8.770  -5.999  25.961  0.00  0.00    -0.503 OA
ATOM     25  H   UNL     1       8.020  -6.355  26.467  0.00  0.00    +0.292 HD
ENDBRANCH   5  24
BRANCH   4  26
ATOM     26  O   UNL     1       8.221  -5.472  23.350  0.00  0.00    -0.422 OA
BRANCH  26  27
ATOM     27  C   UNL     1       7.131  -5.667  22.505  0.00  0.00    +0.312 C 
ATOM     28  O   UNL     1       7.141  -5.626  21.280  0.00  0.00    -0.250 OA
BRANCH  27  29
ATOM     29  C   UNL     1       5.902  -5.992  23.322  0.00  0.00    +0.121 C 
BRANCH  29  30
ATOM     30  C   UNL     1       4.749  -5.098  22.881  0.00  0.00    +0.011 C 
BRANCH  30  31
ATOM     31  C   UNL     1       4.512  -3.916  23.822  0.00  0.00    +0.002 C 
BRANCH  31  32
ATOM     32  C   UNL     1       4.558  -4.390  25.278  0.00  0.00    +0.015 C 
BRANCH  32  33
ATOM     33  C   UNL     1       4.609  -3.227  26.266  0.00  0.00    +0.077 C 
BRANCH  33  34
ATOM     34  N   UNL     1       3.575  -2.254  25.935  0.00  0.00    -0.330 NA
ATOM     35  H   UNL     1       3.963  -1.312  25.988  0.00  0.00    +0.118 HD
ATOM     36  H   UNL     1       3.274  -2.383  24.970  0.00  0.00    +0.118 HD
ENDBRANCH  33  34
ENDBRANCH  32  33
ENDBRANCH  31  32
ENDBRANCH  30  31
ENDBRANCH  29  30
ENDBRANCH  27  29
ENDBRANCH  26  27
ENDBRANCH   4  26
TORSDOF 13
ENDMDL
MODEL 8
REMARK VINA RESULT:      -6.9      2.491      3.906
REMARK  Name = 
REMARK  13 active torsions:
REMARK  status: ('A' for Active; 'I' for Inactive)
REMARK    1  A    between atoms: C_3  and  O_30
REMARK    2  A    between atoms: C_4  and  O_21
REMARK    3  A    between atoms: C_6  and  C_7
REMARK    4  A    between atoms: C_8  and  O_20
REMARK    5  A    between atoms: C_12  and  O_19
REMARK    6  A    between atoms: C_14  and  O_18
REMARK    7  A    between atoms: O_21  and  C_22
REMARK    8  A    between atoms: C_22  and  C_24
REMARK    9  A    between atoms: C_24  and  C_25
REMARK   10  A    between atoms: C_25  and  C_26
REMARK   11  A    between atoms: C_26  and  C_27
REMARK   12  A    between atoms: C_27  and  C_28
REMARK   13  A    between atoms: C_28  and  N_29
REMARK                            x       y       z     vdW  Elec       q    Type
REMARK                         _______ _______ _______ _____ _____    ______ ____
ROOT
ATOM      1  C   UNL     1       9.224  -1.583  22.309  0.00  0.00    +0.015 A 
ATOM      2  C   UNL     1       8.175  -1.481  23.243  0.00  0.00    +0.025 A 
ATOM      3  C   UNL     1       7.585  -0.217  23.429  0.00  0.00    +0.061 A 
ATOM      4  C   UNL     1       8.071   0.906  22.748  0.00  0.00    +0.173 A 
ATOM      5  C   UNL     1       9.181   0.796  21.910  0.00  0.00    +0.159 A 
ATOM      6  C   UNL     1       9.747  -0.450  21.671  0.00  0.00    +0.050 A 
ENDROOT
BRANCH   2   7
ATOM      7  C   UNL     1       7.683  -2.650  24.029  0.00  0.00    +0.181 A 
ATOM      8  O   UNL     1       6.798  -3.455  23.310  0.00  0.00    -0.451 OA
ATOM      9  C   UNL     1       6.165  -4.492  23.947  0.00  0.00    +0.147 A 
ATOM     10  C   UNL     1       6.470  -4.873  25.249  0.00  0.00    +0.109 A 
ATOM     11  C   UNL     1       5.798  -5.948  25.847  0.00  0.00    +0.135 A 
ATOM     12  C   UNL     1       4.819  -6.640  25.146  0.00  0.00    +0.091 A 
ATOM     13  C   UNL     1       4.513  -6.247  23.847  0.00  0.00    +0.124 A 
ATOM     14  C   UNL     1       7.478  -4.105  25.980  0.00  0.00    +0.238 A 
ATOM     15  O   UNL     1       7.802  -4.448  27.114  0.00  0.00    -0.283 OA
ATOM     16  C   UNL     1       5.176  -5.180  23.241  0.00  0.00    +0.092 A 
ATOM     17  C   UNL     1       8.021  -2.891  25.317  0.00  0.00    +0.208 A 
BRANCH  11  18
ATOM     18  O   UNL     1       6.050  -6.367  27.126  0.00  0.00    -0.506 OA
ATOM     19  H   UNL     1       5.272  -6.132  27.683  0.00  0.00    +0.292 HD
ENDBRANCH  11  18
BRANCH  13  20
ATOM     20  O   UNL     1       3.548  -6.894  23.128  0.00  0.00    -0.507 OA
ATOM     21  H   UNL     1       2.706  -6.416  23.232  0.00  0.00    +0.292 HD
ENDBRANCH  13  20
BRANCH  17  22
ATOM     22  O   UNL     1       8.809  -2.071  26.105  0.00  0.00    -0.501 OA
ATOM     23  H   UNL     1       9.694  -2.465  26.164  0.00  0.00    +0.292 HD
ENDBRANCH  17  22
ENDBRANCH   2   7
BRANCH   5  24
ATOM     24  O   UNL     1       9.704   1.920  21.336  0.00  0.00    -0.503 OA
ATOM     25  H   UNL     1      10.532   2.152  21.790  0.00  0.00    +0.292 HD
ENDBRANCH   5  24
BRANCH   4  26
ATOM     26  O   UNL     1       7.544   2.196  22.966  0.00  0.00    -0.422 OA
BRANCH  26  27
ATOM     27  C   UNL     1       8.132   3.032  23.912  0.00  0.00    +0.312 C 
ATOM     28  O   UNL     1       8.599   2.695  24.994  0.00  0.00    -0.250 OA
BRANCH  27  29
ATOM     29  C   UNL     1       8.162   4.451  23.392  0.00  0.00    +0.121 C 
BRANCH  29  30
ATOM     30  C   UNL     1       7.012   4.656  22.413  0.00  0.00    +0.011 C 
BRANCH  30  31
ATOM     31  C   UNL     1       5.729   5.142  23.090  0.00  0.00    +0.002 C 
BRANCH  31  32
ATOM     32  C   UNL     1       4.554   4.242  22.691  0.00  0.00    +0.015 C 
BRANCH  32  33
ATOM     33  C   UNL     1       4.037   3.410  23.862  0.00  0.00    +0.077 C 
BRANCH  33  34
ATOM     34  N   UNL     1       4.662   2.094  23.846  0.00  0.00    -0.330 NA
ATOM     35  H   UNL     1       3.958   1.379  24.030  0.00  0.00    +0.118 HD
ATOM     36  H   UNL     1       5.032   1.897  22.917  0.00  0.00    +0.118 HD
ENDBRANCH  33  34
ENDBRANCH  32  33
ENDBRANCH  31  32
ENDBRANCH  30  31
ENDBRANCH  29  30
ENDBRANCH  27  29
ENDBRANCH  26  27
ENDBRANCH   4  26
TORSDOF 13
ENDMDL
MODEL 9
REMARK VINA RESULT:      -6.9      3.419      8.680
REMARK  Name = 
REMARK  13 active torsions:
REMARK  status: ('A' for Active; 'I' for Inactive)
REMARK    1  A    between atoms: C_3  and  O_30
REMARK    2  A    between atoms: C_4  and  O_21
REMARK    3  A    between atoms: C_6  and  C_7
REMARK    4  A    between atoms: C_8  and  O_20
REMARK    5  A    between atoms: C_12  and  O_19
REMARK    6  A    between atoms: C_14  and  O_18
REMARK    7  A    between atoms: O_21  and  C_22
REMARK    8  A    between atoms: C_22  and  C_24
REMARK    9  A    between atoms: C_24  and  C_25
REMARK   10  A    between atoms: C_25  and  C_26
REMARK   11  A    between atoms: C_26  and  C_27
REMARK   12  A    between atoms: C_27  and  C_28
REMARK   13  A    between atoms: C_28  and  N_29
REMARK                            x       y       z     vdW  Elec       q    Type
REMARK                         _______ _______ _______ _____ _____    ______ ____
ROOT
ATOM      1  C   UNL     1       9.869  -0.880  22.815  0.00  0.00    +0.015 A 
ATOM      2  C   UNL     1       8.962  -0.174  23.628  0.00  0.00    +0.025 A 
ATOM      3  C   UNL     1       8.516  -0.800  24.806  0.00  0.00    +0.061 A 
ATOM      4  C   UNL     1       8.919  -2.104  25.120  0.00  0.00    +0.173 A 
ATOM      5  C   UNL     1       9.733  -2.820  24.243  0.00  0.00    +0.159 A 
ATOM      6  C   UNL     1      10.228  -2.206  23.099  0.00  0.00    +0.050 A 
ENDROOT
BRANCH   2   7
ATOM      7  C   UNL     1       8.467   1.190  23.281  0.00  0.00    +0.181 A 
ATOM      8  O   UNL     1       9.390   2.195  23.574  0.00  0.00    -0.451 OA
ATOM      9  C   UNL     1       9.021   3.508  23.429  0.00  0.00    +0.147 A 
ATOM     10  C   UNL     1       7.809   3.891  22.866  0.00  0.00    +0.109 A 
ATOM     11  C   UNL     1       7.490   5.249  22.733  0.00  0.00    +0.135 A 
ATOM     12  C   UNL     1       8.378   6.225  23.166  0.00  0.00    +0.091 A 
ATOM     13  C   UNL     1       9.585   5.834  23.737  0.00  0.00    +0.124 A 
ATOM     14  C   UNL     1       6.874   2.846  22.452  0.00  0.00    +0.238 A 
ATOM     15  O   UNL     1       5.817   3.153  21.908  0.00  0.00    -0.283 OA
ATOM     16  C   UNL     1       9.915   4.485  23.873  0.00  0.00    +0.092 A 
ATOM     17  C   UNL     1       7.237   1.441  22.775  0.00  0.00    +0.208 A 
BRANCH  11  18
ATOM     18  O   UNL     1       6.311   5.689  22.192  0.00  0.00    -0.506 OA
ATOM     19  H   UNL     1       5.597   5.072  22.475  0.00  0.00    +0.292 HD
ENDBRANCH  11  18
BRANCH  13  20
ATOM     20  O   UNL     1      10.482   6.761  24.185  0.00  0.00    -0.507 OA
ATOM     21  H   UNL     1      11.077   7.002  23.452  0.00  0.00    +0.292 HD
ENDBRANCH  13  20
BRANCH  17  22
ATOM     22  O   UNL     1       6.249   0.496  22.565  0.00  0.00    -0.501 OA
ATOM     23  H   UNL     1       6.674  -0.370  22.461  0.00  0.00    +0.292 HD
ENDBRANCH  17  22
ENDBRANCH   2   7
BRANCH   5  24
ATOM     24  O   UNL     1      10.031  -4.125  24.515  0.00  0.00    -0.503 OA
ATOM     25  H   UNL     1      10.208  -4.218  25.467  0.00  0.00    +0.292 HD
ENDBRANCH   5  24
BRANCH   4  26
ATOM     26  O   UNL     1       8.434  -2.781  26.259  0.00  0.00    -0.422 OA
BRANCH  26  27
ATOM     27  C   UNL     1       7.079  -3.087  26.356  0.00  0.00    +0.312 C 
ATOM     28  O   UNL     1       6.207  -2.387  26.855  0.00  0.00    -0.250 OA
BRANCH  27  29
ATOM     29  C   UNL     1       6.809  -4.423  25.700  0.00  0.00    +0.121 C 
BRANCH  29  30
ATOM     30  C   UNL     1       5.797  -4.239  24.575  0.00  0.00    +0.011 C 
BRANCH  30  31
ATOM     31  C   UNL     1       6.450  -3.987  23.216  0.00  0.00    +0.002 C 
BRANCH  31  32
ATOM     32  C   UNL     1       7.208  -5.239  22.760  0.00  0.00    +0.015 C 
BRANCH  32  33
ATOM     33  C   UNL     1       6.720  -5.752  21.408  0.00  0.00    +0.077 C 
BRANCH  33  34
ATOM     34  N   UNL     1       5.332  -6.184  21.517  0.00  0.00    -0.330 NA
ATOM     35  H   UNL     1       5.126  -6.432  22.485  0.00  0.00    +0.118 HD
ATOM     36  H   UNL     1       4.709  -5.411  21.284  0.00  0.00    +0.118 HD
ENDBRANCH  33  34
ENDBRANCH  32  33
ENDBRANCH  31  32
ENDBRANCH  30  31
ENDBRANCH  29  30
ENDBRANCH  27  29
ENDBRANCH  26  27
ENDBRANCH   4  26
TORSDOF 13
ENDMDL
