MODEL 1
REMARK VINA RESULT:      -8.2      0.000      0.000
REMARK  Name = 
REMARK  10 active torsions:
REMARK  status: ('A' for Active; 'I' for Inactive)
REMARK    1  A    between atoms: C_2  and  O_31
REMARK    2  A    between atoms: C_3  and  O_30
REMARK    3  A    between atoms: C_4  and  O_29
REMARK    4  A    between atoms: C_5  and  O_7
REMARK    5  A    between atoms: O_7  and  C_8
REMARK    6  A    between atoms: C_9  and  C_21
REMARK    7  A    between atoms: C_13  and  O_20
REMARK    8  A    between atoms: C_15  and  O_19
REMARK    9  A    between atoms: C_23  and  O_28
REMARK   10  A    between atoms: C_24  and  O_27
REMARK                            x       y       z     vdW  Elec       q    Type
REMARK                         _______ _______ _______ _____ _____    ______ ____
ROOT
ATOM      1  C   UNL     1       8.299  -1.614  23.225  0.00  0.00    +0.214 A 
ATOM      2  C   UNL     1       8.764  -0.391  22.486  0.00  0.00    +0.238 A 
ATOM      3  O   UNL     1       9.159  -0.498  21.327  0.00  0.00    -0.283 OA
ATOM      4  C   UNL     1       8.731   0.887  23.205  0.00  0.00    +0.109 A 
ATOM      5  C   UNL     1       8.521   0.841  24.581  0.00  0.00    +0.147 A 
ATOM      6  C   UNL     1       8.459   2.019  25.333  0.00  0.00    +0.092 A 
ATOM      7  C   UNL     1       8.626   3.244  24.694  0.00  0.00    +0.124 A 
ATOM      8  C   UNL     1       8.850   3.312  23.325  0.00  0.00    +0.091 A 
ATOM      9  O   UNL     1       8.391  -0.335  25.278  0.00  0.00    -0.451 OA
ATOM     10  C   UNL     1       8.900   2.132  22.578  0.00  0.00    +0.135 A 
ATOM     11  C   UNL     1       8.253  -1.526  24.576  0.00  0.00    +0.181 A 
ENDROOT
BRANCH  11  12
ATOM     12  C   UNL     1       8.092  -2.682  25.497  0.00  0.00    +0.025 A 
ATOM     13  C   UNL     1       9.089  -3.675  25.585  0.00  0.00    +0.015 A 
ATOM     14  C   UNL     1       8.889  -4.834  26.341  0.00  0.00    +0.050 A 
ATOM     15  C   UNL     1       7.721  -4.967  27.073  0.00  0.00    +0.158 A 
ATOM     16  C   UNL     1       6.752  -3.966  27.054  0.00  0.00    +0.159 A 
ATOM     17  C   UNL     1       6.923  -2.828  26.268  0.00  0.00    +0.060 A 
BRANCH  15  18
ATOM     18  O   UNL     1       7.531  -6.096  27.815  0.00  0.00    -0.503 OA
ATOM     19  H   UNL     1       7.731  -5.830  28.735  0.00  0.00    +0.292 HD
ENDBRANCH  15  18
BRANCH  16  20
ATOM     20  O   UNL     1       5.635  -4.162  27.819  0.00  0.00    -0.503 OA
ATOM     21  H   UNL     1       5.350  -5.087  27.721  0.00  0.00    +0.292 HD
ENDBRANCH  16  20
ENDBRANCH  11  12
BRANCH   7  22
ATOM     22  O   UNL     1       8.580   4.420  25.381  0.00  0.00    -0.507 OA
ATOM     23  H   UNL     1       8.349   4.244  26.309  0.00  0.00    +0.292 HD
ENDBRANCH   7  22
BRANCH  10  24
ATOM     24  O   UNL     1       9.095   2.221  21.231  0.00  0.00    -0.506 OA
ATOM     25  H   UNL     1       8.280   2.510  20.788  0.00  0.00    +0.292 HD
ENDBRANCH  10  24
BRANCH   1  26
ATOM     26  O   UNL     1       8.074  -2.714  22.421  0.00  0.00    -0.453 OA
BRANCH  26  29
ATOM     27  C   UNL     1       6.959  -6.110  22.735  0.00  0.00    +0.198 C 
ATOM     28  O   UNL     1       7.603  -4.964  22.184  0.00  0.00    -0.337 OA
ATOM     29  C   UNL     1       7.235  -3.767  22.880  0.00  0.00    +0.339 C 
ATOM     30  C   UNL     1       5.744  -3.484  22.639  0.00  0.00    +0.214 C 
ATOM     31  C   UNL     1       4.964  -4.658  23.250  0.00  0.00    +0.180 C 
ATOM     32  C   UNL     1       5.436  -6.003  22.655  0.00  0.00    +0.171 C 
BRANCH  30  33
ATOM     33  O   UNL     1       5.406  -3.401  21.243  0.00  0.00    -0.383 OA
ATOM     34  H   UNL     1       4.921  -4.219  21.019  0.00  0.00    +0.210 HD
ENDBRANCH  30  33
BRANCH  31  35
ATOM     35  O   UNL     1       3.560  -4.486  23.034  0.00  0.00    -0.386 OA
ATOM     36  H   UNL     1       3.124  -4.956  23.777  0.00  0.00    +0.210 HD
ENDBRANCH  31  35
BRANCH  32  37
ATOM     37  O   UNL     1       4.864  -7.126  23.330  0.00  0.00    -0.387 OA
ATOM     38  H   UNL     1       5.235  -7.937  22.949  0.00  0.00    +0.210 HD
ENDBRANCH  32  37
ENDBRANCH  26  29
ENDBRANCH   1  26
TORSDOF 10
ENDMDL
MODEL 2
REMARK VINA RESULT:      -8.2      1.842      4.706
REMARK  Name = 
REMARK  10 active torsions:
REMARK  status: ('A' for Active; 'I' for Inactive)
REMARK    1  A    between atoms: C_2  and  O_31
REMARK    2  A    between atoms: C_3  and  O_30
REMARK    3  A    between atoms: C_4  and  O_29
REMARK    4  A    between atoms: C_5  and  O_7
REMARK    5  A    between atoms: O_7  and  C_8
REMARK    6  A    between atoms: C_9  and  C_21
REMARK    7  A    between atoms: C_13  and  O_20
REMARK    8  A    between atoms: C_15  and  O_19
REMARK    9  A    between atoms: C_23  and  O_28
REMARK   10  A    between atoms: C_24  and  O_27
REMARK                            x       y       z     vdW  Elec       q    Type
REMARK                         _______ _______ _______ _____ _____    ______ ____
ROOT
ATOM      1  C   UNL     1       7.896  -2.748  24.993  0.00  0.00    +0.214 A 
ATOM      2  C   UNL     1       8.715  -1.558  25.406  0.00  0.00    +0.238 A 
ATOM      3  O   UNL     1       9.056  -1.436  26.581  0.00  0.00    -0.283 OA
ATOM      4  C   UNL     1       9.061  -0.582  24.368  0.00  0.00    +0.109 A 
ATOM      5  C   UNL     1       8.401  -0.687  23.146  0.00  0.00    +0.147 A 
ATOM      6  C   UNL     1       8.690   0.197  22.101  0.00  0.00    +0.092 A 
ATOM      7  C   UNL     1       9.636   1.198  22.297  0.00  0.00    +0.124 A 
ATOM      8  C   UNL     1      10.298   1.328  23.513  0.00  0.00    +0.091 A 
ATOM      9  O   UNL     1       7.427  -1.623  22.901  0.00  0.00    -0.451 OA
ATOM     10  C   UNL     1      10.011   0.435  24.549  0.00  0.00    +0.135 A 
ATOM     11  C   UNL     1       7.225  -2.645  23.821  0.00  0.00    +0.181 A 
ENDROOT
BRANCH  11  12
ATOM     12  C   UNL     1       6.157  -3.576  23.370  0.00  0.00    +0.025 A 
ATOM     13  C   UNL     1       4.841  -3.453  23.860  0.00  0.00    +0.015 A 
ATOM     14  C   UNL     1       3.862  -4.403  23.551  0.00  0.00    +0.050 A 
ATOM     15  C   UNL     1       4.179  -5.438  22.688  0.00  0.00    +0.158 A 
ATOM     16  C   UNL     1       5.455  -5.541  22.138  0.00  0.00    +0.159 A 
ATOM     17  C   UNL     1       6.449  -4.623  22.474  0.00  0.00    +0.060 A 
BRANCH  15  18
ATOM     18  O   UNL     1       3.221  -6.360  22.383  0.00  0.00    -0.503 OA
ATOM     19  H   UNL     1       2.401  -6.017  22.791  0.00  0.00    +0.292 HD
ENDBRANCH  15  18
BRANCH  16  20
ATOM     20  O   UNL     1       5.684  -6.579  21.278  0.00  0.00    -0.503 OA
ATOM     21  H   UNL     1       6.642  -6.651  21.125  0.00  0.00    +0.292 HD
ENDBRANCH  16  20
ENDBRANCH  11  12
BRANCH   7  22
ATOM     22  O   UNL     1       9.951   2.087  21.314  0.00  0.00    -0.507 OA
ATOM     23  H   UNL     1      10.654   2.681  21.626  0.00  0.00    +0.292 HD
ENDBRANCH   7  22
BRANCH  10  24
ATOM     24  O   UNL     1      10.690   0.564  25.725  0.00  0.00    -0.506 OA
ATOM     25  H   UNL     1      10.395   1.357  26.203  0.00  0.00    +0.292 HD
ENDBRANCH  10  24
BRANCH   1  26
ATOM     26  O   UNL     1       7.854  -3.763  25.928  0.00  0.00    -0.453 OA
BRANCH  26  29
ATOM     27  C   UNL     1       4.919  -3.645  27.990  0.00  0.00    +0.198 C 
ATOM     28  O   UNL     1       6.257  -3.404  27.559  0.00  0.00    -0.337 OA
ATOM     29  C   UNL     1       6.601  -4.214  26.428  0.00  0.00    +0.339 C 
ATOM     30  C   UNL     1       6.630  -5.689  26.858  0.00  0.00    +0.214 C 
ATOM     31  C   UNL     1       5.204  -6.052  27.298  0.00  0.00    +0.180 C 
ATOM     32  C   UNL     1       4.710  -5.100  28.409  0.00  0.00    +0.171 C 
BRANCH  30  33
ATOM     33  O   UNL     1       7.515  -5.935  27.966  0.00  0.00    -0.383 OA
ATOM     34  H   UNL     1       8.051  -5.126  28.086  0.00  0.00    +0.210 HD
ENDBRANCH  30  33
BRANCH  31  35
ATOM     35  O   UNL     1       5.155  -7.409  27.749  0.00  0.00    -0.386 OA
ATOM     36  H   UNL     1       4.346  -7.470  28.301  0.00  0.00    +0.210 HD
ENDBRANCH  31  35
BRANCH  32  37
ATOM     37  O   UNL     1       3.326  -5.292  28.712  0.00  0.00    -0.387 OA
ATOM     38  H   UNL     1       3.250  -5.608  29.626  0.00  0.00    +0.210 HD
ENDBRANCH  32  37
ENDBRANCH  26  29
ENDBRANCH   1  26
TORSDOF 10
ENDMDL
MODEL 3
REMARK VINA RESULT:      -7.5      2.118      6.793
REMARK  Name = 
REMARK  10 active torsions:
REMARK  status: ('A' for Active; 'I' for Inactive)
REMARK    1  A    between atoms: C_2  and  O_31
REMARK    2  A    between atoms: C_3  and  O_30
REMARK    3  A    between atoms: C_4  and  O_29
REMARK    4  A    between atoms: C_5  and  O_7
REMARK    5  A    between atoms: O_7  and  C_8
REMARK    6  A    between atoms: C_9  and  C_21
REMARK    7  A    between atoms: C_13  and  O_20
REMARK    8  A    between atoms: C_15  and  O_19
REMARK    9  A    between atoms: C_23  and  O_28
REMARK   10  A    between atoms: C_24  and  O_27
REMARK                            x       y       z     vdW  Elec       q    Type
REMARK                         _______ _______ _______ _____ _____    ______ ____
ROOT
ATOM      1  C   UNL     1       7.735  -2.201  24.260  0.00  0.00    +0.214 A 
ATOM      2  C   UNL     1       7.602  -3.195  23.141  0.00  0.00    +0.238 A 
ATOM      3  O   UNL     1       8.260  -3.043  22.114  0.00  0.00    -0.283 OA
ATOM      4  C   UNL     1       6.666  -4.308  23.333  0.00  0.00    +0.109 A 
ATOM      5  C   UNL     1       5.789  -4.227  24.413  0.00  0.00    +0.147 A 
ATOM      6  C   UNL     1       4.881  -5.258  24.672  0.00  0.00    +0.092 A 
ATOM      7  C   UNL     1       4.847  -6.364  23.829  0.00  0.00    +0.124 A 
ATOM      8  C   UNL     1       5.704  -6.459  22.740  0.00  0.00    +0.091 A 
ATOM      9  O   UNL     1       5.741  -3.145  25.257  0.00  0.00    -0.451 OA
ATOM     10  C   UNL     1       6.617  -5.430  22.493  0.00  0.00    +0.135 A 
ATOM     11  C   UNL     1       6.735  -2.177  25.174  0.00  0.00    +0.181 A 
ENDROOT
BRANCH  11  12
ATOM     12  C   UNL     1       6.534  -1.106  26.184  0.00  0.00    +0.025 A 
ATOM     13  C   UNL     1       5.344  -0.350  26.204  0.00  0.00    +0.015 A 
ATOM     14  C   UNL     1       5.199   0.748  27.058  0.00  0.00    +0.050 A 
ATOM     15  C   UNL     1       6.216   1.047  27.948  0.00  0.00    +0.158 A 
ATOM     16  C   UNL     1       7.373   0.272  27.992  0.00  0.00    +0.159 A 
ATOM     17  C   UNL     1       7.544  -0.798  27.116  0.00  0.00    +0.060 A 
BRANCH  15  18
ATOM     18  O   UNL     1       6.069   2.114  28.784  0.00  0.00    -0.503 OA
ATOM     19  H   UNL     1       5.643   2.805  28.239  0.00  0.00    +0.292 HD
ENDBRANCH  15  18
BRANCH  16  20
ATOM     20  O   UNL     1       8.323   0.618  28.913  0.00  0.00    -0.503 OA
ATOM     21  H   UNL     1       8.147   0.133  29.738  0.00  0.00    +0.292 HD
ENDBRANCH  16  20
ENDBRANCH  11  12
BRANCH   7  22
ATOM     22  O   UNL     1       3.977  -7.393  24.034  0.00  0.00    -0.507 OA
ATOM     23  H   UNL     1       4.236  -8.151  23.484  0.00  0.00    +0.292 HD
ENDBRANCH   7  22
BRANCH  10  24
ATOM     24  O   UNL     1       7.467  -5.555  21.433  0.00  0.00    -0.506 OA
ATOM     25  H   UNL     1       8.006  -6.359  21.522  0.00  0.00    +0.292 HD
ENDBRANCH  10  24
BRANCH   1  26
ATOM     26  O   UNL     1       8.825  -1.360  24.148  0.00  0.00    -0.453 OA
BRANCH  26  29
ATOM     27  C   UNL     1       7.028   1.390  22.704  0.00  0.00    +0.198 C 
ATOM     28  O   UNL     1       7.383   0.044  23.012  0.00  0.00    -0.337 OA
ATOM     29  C   UNL     1       8.647  -0.027  23.685  0.00  0.00    +0.339 C 
ATOM     30  C   UNL     1       9.756   0.419  22.719  0.00  0.00    +0.214 C 
ATOM     31  C   UNL     1       9.475   1.888  22.368  0.00  0.00    +0.180 C 
ATOM     32  C   UNL     1       8.055   2.055  21.788  0.00  0.00    +0.171 C 
BRANCH  30  33
ATOM     33  O   UNL     1       9.773  -0.338  21.495  0.00  0.00    -0.383 OA
ATOM     34  H   UNL     1      10.555  -0.923  21.534  0.00  0.00    +0.210 HD
ENDBRANCH  30  33
BRANCH  31  35
ATOM     35  O   UNL     1      10.451   2.369  21.439  0.00  0.00    -0.386 OA
ATOM     36  H   UNL     1      10.008   3.097  20.951  0.00  0.00    +0.210 HD
ENDBRANCH  31  35
BRANCH  32  37
ATOM     37  O   UNL     1       7.695   3.429  21.622  0.00  0.00    -0.387 OA
ATOM     38  H   UNL     1       8.477   3.977  21.796  0.00  0.00    +0.210 HD
ENDBRANCH  32  37
ENDBRANCH  26  29
ENDBRANCH   1  26
TORSDOF 10
ENDMDL
MODEL 4
REMARK VINA RESULT:      -7.4      2.474      7.319
REMARK  Name = 
REMARK  10 active torsions:
REMARK  status: ('A' for Active; 'I' for Inactive)
REMARK    1  A    between atoms: C_2  and  O_31
REMARK    2  A    between atoms: C_3  and  O_30
REMARK    3  A    between atoms: C_4  and  O_29
REMARK    4  A    between atoms: C_5  and  O_7
REMARK    5  A    between atoms: O_7  and  C_8
REMARK    6  A    between atoms: C_9  and  C_21
REMARK    7  A    between atoms: C_13  and  O_20
REMARK    8  A    between atoms: C_15  and  O_19
REMARK    9  A    between atoms: C_23  and  O_28
REMARK   10  A    between atoms: C_24  and  O_27
REMARK                            x       y       z     vdW  Elec       q    Type
REMARK                         _______ _______ _______ _____ _____    ______ ____
ROOT
ATOM      1  C   UNL     1       7.895  -1.913  25.320  0.00  0.00    +0.214 A 
ATOM      2  C   UNL     1       7.415  -3.322  25.528  0.00  0.00    +0.238 A 
ATOM      3  O   UNL     1       7.415  -3.800  26.659  0.00  0.00    -0.283 OA
ATOM      4  C   UNL     1       6.975  -4.067  24.343  0.00  0.00    +0.109 A 
ATOM      5  C   UNL     1       7.270  -3.520  23.097  0.00  0.00    +0.147 A 
ATOM      6  C   UNL     1       6.867  -4.163  21.923  0.00  0.00    +0.092 A 
ATOM      7  C   UNL     1       6.180  -5.370  22.008  0.00  0.00    +0.124 A 
ATOM      8  C   UNL     1       5.886  -5.939  23.241  0.00  0.00    +0.091 A 
ATOM      9  O   UNL     1       7.982  -2.356  22.942  0.00  0.00    -0.451 OA
ATOM     10  C   UNL     1       6.282  -5.286  24.411  0.00  0.00    +0.135 A 
ATOM     11  C   UNL     1       8.247  -1.571  24.057  0.00  0.00    +0.181 A 
ENDROOT
BRANCH  11  12
ATOM     12  C   UNL     1       8.996  -0.341  23.688  0.00  0.00    +0.025 A 
ATOM     13  C   UNL     1      10.193  -0.001  24.351  0.00  0.00    +0.015 A 
ATOM     14  C   UNL     1      10.832   1.219  24.110  0.00  0.00    +0.050 A 
ATOM     15  C   UNL     1      10.315   2.070  23.149  0.00  0.00    +0.158 A 
ATOM     16  C   UNL     1       9.170   1.724  22.433  0.00  0.00    +0.159 A 
ATOM     17  C   UNL     1       8.503   0.529  22.697  0.00  0.00    +0.060 A 
BRANCH  15  18
ATOM     18  O   UNL     1      10.943   3.257  22.910  0.00  0.00    -0.503 OA
ATOM     19  H   UNL     1      10.381   3.932  23.342  0.00  0.00    +0.292 HD
ENDBRANCH  15  18
BRANCH  16  20
ATOM     20  O   UNL     1       8.734   2.608  21.485  0.00  0.00    -0.503 OA
ATOM     21  H   UNL     1       8.320   2.107  20.761  0.00  0.00    +0.292 HD
ENDBRANCH  16  20
ENDBRANCH  11  12
BRANCH   7  22
ATOM     22  O   UNL     1       5.770  -6.039  20.895  0.00  0.00    -0.507 OA
ATOM     23  H   UNL     1       5.142  -6.737  21.148  0.00  0.00    +0.292 HD
ENDBRANCH   7  22
BRANCH  10  24
ATOM     24  O   UNL     1       5.961  -5.848  25.611  0.00  0.00    -0.506 OA
ATOM     25  H   UNL     1       6.754  -5.943  26.165  0.00  0.00    +0.292 HD
ENDBRANCH  10  24
BRANCH   1  26
ATOM     26  O   UNL     1       8.012  -1.174  26.481  0.00  0.00    -0.453 OA
BRANCH  26  29
ATOM     27  C   UNL     1       6.616   1.560  28.338  0.00  0.00    +0.198 C 
ATOM     28  O   UNL     1       7.331   0.356  28.074  0.00  0.00    -0.337 OA
ATOM     29  C   UNL     1       7.106  -0.108  26.736  0.00  0.00    +0.339 C 
ATOM     30  C   UNL     1       5.636  -0.532  26.593  0.00  0.00    +0.214 C 
ATOM     31  C   UNL     1       4.786   0.728  26.818  0.00  0.00    +0.180 C 
ATOM     32  C   UNL     1       5.107   1.372  28.184  0.00  0.00    +0.171 C 
BRANCH  30  33
ATOM     33  O   UNL     1       5.239  -1.519  27.561  0.00  0.00    -0.383 OA
ATOM     34  H   UNL     1       5.706  -1.305  28.392  0.00  0.00    +0.210 HD
ENDBRANCH  30  33
BRANCH  31  35
ATOM     35  O   UNL     1       3.394   0.407  26.735  0.00  0.00    -0.386 OA
ATOM     36  H   UNL     1       3.157   0.050  27.618  0.00  0.00    +0.210 HD
ENDBRANCH  31  35
BRANCH  32  37
ATOM     37  O   UNL     1       4.470   2.643  28.347  0.00  0.00    -0.387 OA
ATOM     38  H   UNL     1       4.183   2.728  29.270  0.00  0.00    +0.210 HD
ENDBRANCH  32  37
ENDBRANCH  26  29
ENDBRANCH   1  26
TORSDOF 10
ENDMDL
MODEL 5
REMARK VINA RESULT:      -7.4      2.278      3.588
REMARK  Name = 
REMARK  10 active torsions:
REMARK  status: ('A' for Active; 'I' for Inactive)
REMARK    1  A    between atoms: C_2  and  O_31
REMARK    2  A    between atoms: C_3  and  O_30
REMARK    3  A    between atoms: C_4  and  O_29
REMARK    4  A    between atoms: C_5  and  O_7
REMARK    5  A    between atoms: O_7  and  C_8
REMARK    6  A    between atoms: C_9  and  C_21
REMARK    7  A    between atoms: C_13  and  O_20
REMARK    8  A    between atoms: C_15  and  O_19
REMARK    9  A    between atoms: C_23  and  O_28
REMARK   10  A    between atoms: C_24  and  O_27
REMARK                            x       y       z     vdW  Elec       q    Type
REMARK                         _______ _______ _______ _____ _____    ______ ____
ROOT
ATOM      1  C   UNL     1       7.067  -4.343  24.590  0.00  0.00    +0.214 A 
ATOM      2  C   UNL     1       8.064  -3.771  23.622  0.00  0.00    +0.238 A 
ATOM      3  O   UNL     1       8.322  -4.381  22.587  0.00  0.00    -0.283 OA
ATOM      4  C   UNL     1       8.696  -2.496  23.978  0.00  0.00    +0.109 A 
ATOM      5  C   UNL     1       8.526  -2.040  25.284  0.00  0.00    +0.147 A 
ATOM      6  C   UNL     1       9.083  -0.824  25.692  0.00  0.00    +0.092 A 
ATOM      7  C   UNL     1       9.827  -0.076  24.785  0.00  0.00    +0.124 A 
ATOM      8  C   UNL     1      10.018  -0.518  23.482  0.00  0.00    +0.091 A 
ATOM      9  O   UNL     1       7.841  -2.749  26.239  0.00  0.00    -0.451 OA
ATOM     10  C   UNL     1       9.450  -1.729  23.077  0.00  0.00    +0.135 A 
ATOM     11  C   UNL     1       7.107  -3.865  25.857  0.00  0.00    +0.181 A 
ENDROOT
BRANCH  11  12
ATOM     12  C   UNL     1       6.411  -4.479  27.018  0.00  0.00    +0.025 A 
ATOM     13  C   UNL     1       5.306  -3.839  27.615  0.00  0.00    +0.015 A 
ATOM     14  C   UNL     1       4.730  -4.336  28.789  0.00  0.00    +0.050 A 
ATOM     15  C   UNL     1       5.210  -5.517  29.326  0.00  0.00    +0.158 A 
ATOM     16  C   UNL     1       6.258  -6.203  28.714  0.00  0.00    +0.159 A 
ATOM     17  C   UNL     1       6.866  -5.693  27.568  0.00  0.00    +0.060 A 
BRANCH  15  18
ATOM     18  O   UNL     1       4.643  -6.004  30.467  0.00  0.00    -0.503 OA
ATOM     19  H   UNL     1       5.306  -6.622  30.835  0.00  0.00    +0.292 HD
ENDBRANCH  15  18
BRANCH  16  20
ATOM     20  O   UNL     1       6.662  -7.374  29.293  0.00  0.00    -0.503 OA
ATOM     21  H   UNL     1       7.531  -7.617  28.929  0.00  0.00    +0.292 HD
ENDBRANCH  16  20
ENDBRANCH  11  12
BRANCH   7  22
ATOM     22  O   UNL     1      10.394   1.112  25.134  0.00  0.00    -0.507 OA
ATOM     23  H   UNL     1      10.862   1.485  24.368  0.00  0.00    +0.292 HD
ENDBRANCH   7  22
BRANCH  10  24
ATOM     24  O   UNL     1       9.629  -2.132  21.786  0.00  0.00    -0.506 OA
ATOM     25  H   UNL     1       8.773  -2.314  21.365  0.00  0.00    +0.292 HD
ENDBRANCH  10  24
BRANCH   1  26
ATOM     26  O   UNL     1       6.300  -5.371  24.076  0.00  0.00    -0.453 OA
BRANCH  26  29
ATOM     27  C   UNL     1       3.417  -6.871  25.597  0.00  0.00    +0.198 C 
ATOM     28  O   UNL     1       4.715  -6.764  25.018  0.00  0.00    -0.337 OA
ATOM     29  C   UNL     1       4.926  -5.474  24.431  0.00  0.00    +0.339 C 
ATOM     30  C   UNL     1       3.988  -5.312  23.225  0.00  0.00    +0.214 C 
ATOM     31  C   UNL     1       2.552  -5.369  23.768  0.00  0.00    +0.180 C 
ATOM     32  C   UNL     1       2.312  -6.672  24.559  0.00  0.00    +0.171 C 
BRANCH  30  33
ATOM     33  O   UNL     1       4.139  -6.361  22.251  0.00  0.00    -0.383 OA
ATOM     34  H   UNL     1       3.987  -7.206  22.717  0.00  0.00    +0.210 HD
ENDBRANCH  30  33
BRANCH  31  35
ATOM     35  O   UNL     1       1.613  -5.260  22.694  0.00  0.00    -0.386 OA
ATOM     36  H   UNL     1       0.764  -5.590  23.058  0.00  0.00    +0.210 HD
ENDBRANCH  31  35
BRANCH  32  37
ATOM     37  O   UNL     1       1.050  -6.674  25.231  0.00  0.00    -0.387 OA
ATOM     38  H   UNL     1       0.882  -5.783  25.575  0.00  0.00    +0.210 HD
ENDBRANCH  32  37
ENDBRANCH  26  29
ENDBRANCH   1  26
TORSDOF 10
ENDMDL
MODEL 6
REMARK VINA RESULT:      -7.4      2.453      3.700
REMARK  Name = 
REMARK  10 active torsions:
REMARK  status: ('A' for Active; 'I' for Inactive)
REMARK    1  A    between atoms: C_2  and  O_31
REMARK    2  A    between atoms: C_3  and  O_30
REMARK    3  A    between atoms: C_4  and  O_29
REMARK    4  A    between atoms: C_5  and  O_7
REMARK    5  A    between atoms: O_7  and  C_8
REMARK    6  A    between atoms: C_9  and  C_21
REMARK    7  A    between atoms: C_13  and  O_20
REMARK    8  A    between atoms: C_15  and  O_19
REMARK    9  A    between atoms: C_23  and  O_28
REMARK   10  A    between atoms: C_24  and  O_27
REMARK                            x       y       z     vdW  Elec       q    Type
REMARK                         _______ _______ _______ _____ _____    ______ ____
ROOT
ATOM      1  C   UNL     1       7.384  -2.443  25.159  0.00  0.00    +0.214 A 
ATOM      2  C   UNL     1       8.606  -2.315  24.293  0.00  0.00    +0.238 A 
ATOM      3  O   UNL     1       9.449  -3.209  24.300  0.00  0.00    -0.283 OA
ATOM      4  C   UNL     1       8.734  -1.100  23.481  0.00  0.00    +0.109 A 
ATOM      5  C   UNL     1       7.861  -0.051  23.757  0.00  0.00    +0.147 A 
ATOM      6  C   UNL     1       7.910   1.132  23.013  0.00  0.00    +0.092 A 
ATOM      7  C   UNL     1       8.855   1.261  21.999  0.00  0.00    +0.124 A 
ATOM      8  C   UNL     1       9.744   0.231  21.716  0.00  0.00    +0.091 A 
ATOM      9  O   UNL     1       6.935  -0.096  24.770  0.00  0.00    -0.451 OA
ATOM     10  C   UNL     1       9.682  -0.952  22.456  0.00  0.00    +0.135 A 
ATOM     11  C   UNL     1       6.703  -1.302  25.421  0.00  0.00    +0.181 A 
ENDROOT
BRANCH  11  12
ATOM     12  C   UNL     1       5.649  -1.162  26.460  0.00  0.00    +0.025 A 
ATOM     13  C   UNL     1       4.381  -1.752  26.282  0.00  0.00    +0.015 A 
ATOM     14  C   UNL     1       3.339  -1.514  27.184  0.00  0.00    +0.050 A 
ATOM     15  C   UNL     1       3.586  -0.746  28.308  0.00  0.00    +0.158 A 
ATOM     16  C   UNL     1       4.851  -0.209  28.540  0.00  0.00    +0.159 A 
ATOM     17  C   UNL     1       5.883  -0.405  27.624  0.00  0.00    +0.060 A 
BRANCH  15  18
ATOM     18  O   UNL     1       2.571  -0.521  29.191  0.00  0.00    -0.503 OA
ATOM     19  H   UNL     1       2.825  -1.009  29.999  0.00  0.00    +0.292 HD
ENDBRANCH  15  18
BRANCH  16  20
ATOM     20  O   UNL     1       5.021   0.521  29.684  0.00  0.00    -0.503 OA
ATOM     21  H   UNL     1       5.509  -0.021  30.328  0.00  0.00    +0.292 HD
ENDBRANCH  16  20
ENDBRANCH  11  12
BRANCH   7  22
ATOM     22  O   UNL     1       8.948   2.394  21.249  0.00  0.00    -0.507 OA
ATOM     23  H   UNL     1       8.422   3.100  21.661  0.00  0.00    +0.292 HD
ENDBRANCH   7  22
BRANCH  10  24
ATOM     24  O   UNL     1      10.546  -1.960  22.145  0.00  0.00    -0.506 OA
ATOM     25  H   UNL     1      10.300  -2.371  21.299  0.00  0.00    +0.292 HD
ENDBRANCH  10  24
BRANCH   1  26
ATOM     26  O   UNL     1       7.174  -3.712  25.663  0.00  0.00    -0.453 OA
BRANCH  26  29
ATOM     27  C   UNL     1       4.971  -6.542  25.541  0.00  0.00    +0.198 C 
ATOM     28  O   UNL     1       6.125  -5.763  25.847  0.00  0.00    -0.337 OA
ATOM     29  C   UNL     1       6.120  -4.514  25.144  0.00  0.00    +0.339 C 
ATOM     30  C   UNL     1       6.266  -4.785  23.639  0.00  0.00    +0.214 C 
ATOM     31  C   UNL     1       5.029  -5.588  23.209  0.00  0.00    +0.180 C 
ATOM     32  C   UNL     1       4.886  -6.874  24.052  0.00  0.00    +0.171 C 
BRANCH  30  33
ATOM     33  O   UNL     1       7.436  -5.559  23.318  0.00  0.00    -0.383 OA
ATOM     34  H   UNL     1       7.190  -6.154  22.582  0.00  0.00    +0.210 HD
ENDBRANCH  30  33
BRANCH  31  35
ATOM     35  O   UNL     1       5.109  -5.912  21.818  0.00  0.00    -0.386 OA
ATOM     36  H   UNL     1       4.293  -6.421  21.623  0.00  0.00    +0.210 HD
ENDBRANCH  31  35
BRANCH  32  37
ATOM     37  O   UNL     1       3.650  -7.549  23.805  0.00  0.00    -0.387 OA
ATOM     38  H   UNL     1       3.141  -7.034  23.159  0.00  0.00    +0.210 HD
ENDBRANCH  32  37
ENDBRANCH  26  29
ENDBRANCH   1  26
TORSDOF 10
ENDMDL
MODEL 7
REMARK VINA RESULT:      -7.3      2.306      7.597
REMARK  Name = 
REMARK  10 active torsions:
REMARK  status: ('A' for Active; 'I' for Inactive)
REMARK    1  A    between atoms: C_2  and  O_31
REMARK    2  A    between atoms: C_3  and  O_30
REMARK    3  A    between atoms: C_4  and  O_29
REMARK    4  A    between atoms: C_5  and  O_7
REMARK    5  A    between atoms: O_7  and  C_8
REMARK    6  A    between atoms: C_9  and  C_21
REMARK    7  A    between atoms: C_13  and  O_20
REMARK    8  A    between atoms: C_15  and  O_19
REMARK    9  A    between atoms: C_23  and  O_28
REMARK   10  A    between atoms: C_24  and  O_27
REMARK                            x       y       z     vdW  Elec       q    Type
REMARK                         _______ _______ _______ _____ _____    ______ ____
ROOT
ATOM      1  C   UNL     1       7.474  -2.601  25.289  0.00  0.00    +0.214 A 
ATOM      2  C   UNL     1       7.093  -3.959  25.807  0.00  0.00    +0.238 A 
ATOM      3  O   UNL     1       7.598  -4.374  26.848  0.00  0.00    -0.283 OA
ATOM      4  C   UNL     1       6.130  -4.737  25.020  0.00  0.00    +0.109 A 
ATOM      5  C   UNL     1       5.836  -4.281  23.737  0.00  0.00    +0.147 A 
ATOM      6  C   UNL     1       4.914  -4.958  22.933  0.00  0.00    +0.092 A 
ATOM      7  C   UNL     1       4.300  -6.108  23.421  0.00  0.00    +0.124 A 
ATOM      8  C   UNL     1       4.588  -6.586  24.693  0.00  0.00    +0.091 A 
ATOM      9  O   UNL     1       6.437  -3.179  23.180  0.00  0.00    -0.451 OA
ATOM     10  C   UNL     1       5.502  -5.899  25.495  0.00  0.00    +0.135 A 
ATOM     11  C   UNL     1       7.216  -2.355  23.983  0.00  0.00    +0.181 A 
ENDROOT
BRANCH  11  12
ATOM     12  C   UNL     1       7.754  -1.201  23.214  0.00  0.00    +0.025 A 
ATOM     13  C   UNL     1       9.063  -1.232  22.692  0.00  0.00    +0.015 A 
ATOM     14  C   UNL     1       9.628  -0.105  22.088  0.00  0.00    +0.050 A 
ATOM     15  C   UNL     1       8.856   1.034  21.937  0.00  0.00    +0.158 A 
ATOM     16  C   UNL     1       7.537   1.065  22.384  0.00  0.00    +0.159 A 
ATOM     17  C   UNL     1       6.980  -0.040  23.026  0.00  0.00    +0.060 A 
BRANCH  15  18
ATOM     18  O   UNL     1       9.407   2.131  21.342  0.00  0.00    -0.503 OA
ATOM     19  H   UNL     1       9.136   2.886  21.902  0.00  0.00    +0.292 HD
ENDBRANCH  15  18
BRANCH  16  20
ATOM     20  O   UNL     1       6.833   2.219  22.179  0.00  0.00    -0.503 OA
ATOM     21  H   UNL     1       6.400   2.168  21.310  0.00  0.00    +0.292 HD
ENDBRANCH  16  20
ENDBRANCH  11  12
BRANCH   7  22
ATOM     22  O   UNL     1       3.398  -6.807  22.677  0.00  0.00    -0.507 OA
ATOM     23  H   UNL     1       3.770  -6.980  21.796  0.00  0.00    +0.292 HD
ENDBRANCH   7  22
BRANCH  10  24
ATOM     24  O   UNL     1       5.752  -6.371  26.750  0.00  0.00    -0.506 OA
ATOM     25  H   UNL     1       5.715  -7.342  26.762  0.00  0.00    +0.292 HD
ENDBRANCH  10  24
BRANCH   1  26
ATOM     26  O   UNL     1       8.141  -1.809  26.204  0.00  0.00    -0.453 OA
BRANCH  26  29
ATOM     27  C   UNL     1       5.203  -0.297  27.603  0.00  0.00    +0.198 C 
ATOM     28  O   UNL     1       6.067  -0.883  26.632  0.00  0.00    -0.337 OA
ATOM     29  C   UNL     1       7.402  -1.027  27.135  0.00  0.00    +0.339 C 
ATOM     30  C   UNL     1       8.010   0.367  27.352  0.00  0.00    +0.214 C 
ATOM     31  C   UNL     1       7.160   1.060  28.428  0.00  0.00    +0.180 C 
ATOM     32  C   UNL     1       5.672   1.098  28.016  0.00  0.00    +0.171 C 
BRANCH  30  33
ATOM     33  O   UNL     1       7.983   1.183  26.167  0.00  0.00    -0.383 OA
ATOM     34  H   UNL     1       7.486   0.684  25.490  0.00  0.00    +0.210 HD
ENDBRANCH  30  33
BRANCH  31  35
ATOM     35  O   UNL     1       7.644   2.385  28.663  0.00  0.00    -0.386 OA
ATOM     36  H   UNL     1       8.159   2.620  27.861  0.00  0.00    +0.210 HD
ENDBRANCH  31  35
BRANCH  32  37
ATOM     37  O   UNL     1       4.829   1.569  29.071  0.00  0.00    -0.387 OA
ATOM     38  H   UNL     1       5.185   1.251  29.916  0.00  0.00    +0.210 HD
ENDBRANCH  32  37
ENDBRANCH  26  29
ENDBRANCH   1  26
TORSDOF 10
ENDMDL
MODEL 8
REMARK VINA RESULT:      -7.3      2.355      6.988
REMARK  Name = 
REMARK  10 active torsions:
REMARK  status: ('A' for Active; 'I' for Inactive)
REMARK    1  A    between atoms: C_2  and  O_31
REMARK    2  A    between atoms: C_3  and  O_30
REMARK    3  A    between atoms: C_4  and  O_29
REMARK    4  A    between atoms: C_5  and  O_7
REMARK    5  A    between atoms: O_7  and  C_8
REMARK    6  A    between atoms: C_9  and  C_21
REMARK    7  A    between atoms: C_13  and  O_20
REMARK    8  A    between atoms: C_15  and  O_19
REMARK    9  A    between atoms: C_23  and  O_28
REMARK   10  A    between atoms: C_24  and  O_27
REMARK                            x       y       z     vdW  Elec       q    Type
REMARK                         _______ _______ _______ _____ _____    ______ ____
ROOT
ATOM      1  C   UNL     1       6.566  -2.511  23.945  0.00  0.00    +0.214 A 
ATOM      2  C   UNL     1       5.937  -3.576  23.092  0.00  0.00    +0.238 A 
ATOM      3  O   UNL     1       6.499  -3.936  22.061  0.00  0.00    -0.283 OA
ATOM      4  C   UNL     1       4.656  -4.131  23.541  0.00  0.00    +0.109 A 
ATOM      5  C   UNL     1       3.994  -3.464  24.569  0.00  0.00    +0.147 A 
ATOM      6  C   UNL     1       2.777  -3.943  25.063  0.00  0.00    +0.092 A 
ATOM      7  C   UNL     1       2.219  -5.089  24.505  0.00  0.00    +0.124 A 
ATOM      8  C   UNL     1       2.857  -5.764  23.471  0.00  0.00    +0.091 A 
ATOM      9  O   UNL     1       4.467  -2.305  25.133  0.00  0.00    -0.451 OA
ATOM     10  C   UNL     1       4.078  -5.285  22.990  0.00  0.00    +0.135 A 
ATOM     11  C   UNL     1       5.754  -1.879  24.825  0.00  0.00    +0.181 A 
ENDROOT
BRANCH  11  12
ATOM     12  C   UNL     1       6.099  -0.629  25.554  0.00  0.00    +0.025 A 
ATOM     13  C   UNL     1       5.668   0.625  25.075  0.00  0.00    +0.015 A 
ATOM     14  C   UNL     1       6.100   1.814  25.671  0.00  0.00    +0.050 A 
ATOM     15  C   UNL     1       6.904   1.748  26.796  0.00  0.00    +0.158 A 
ATOM     16  C   UNL     1       7.287   0.518  27.326  0.00  0.00    +0.159 A 
ATOM     17  C   UNL     1       6.897  -0.671  26.713  0.00  0.00    +0.060 A 
BRANCH  15  18
ATOM     18  O   UNL     1       7.319   2.909  27.380  0.00  0.00    -0.503 OA
ATOM     19  H   UNL     1       6.498   3.349  27.678  0.00  0.00    +0.292 HD
ENDBRANCH  15  18
BRANCH  16  20
ATOM     20  O   UNL     1       8.065   0.536  28.451  0.00  0.00    -0.503 OA
ATOM     21  H   UNL     1       7.859   1.340  28.958  0.00  0.00    +0.292 HD
ENDBRANCH  16  20
ENDBRANCH  11  12
BRANCH   7  22
ATOM     22  O   UNL     1       1.033  -5.594  24.946  0.00  0.00    -0.507 OA
ATOM     23  H   UNL     1       1.004  -6.551  24.774  0.00  0.00    +0.292 HD
ENDBRANCH   7  22
BRANCH  10  24
ATOM     24  O   UNL     1       4.700  -5.976  21.991  0.00  0.00    -0.506 OA
ATOM     25  H   UNL     1       4.124  -6.040  21.211  0.00  0.00    +0.292 HD
ENDBRANCH  10  24
BRANCH   1  26
ATOM     26  O   UNL     1       7.887  -2.243  23.640  0.00  0.00    -0.453 OA
BRANCH  26  29
ATOM     27  C   UNL     1       9.160   0.119  21.257  0.00  0.00    +0.198 C 
ATOM     28  O   UNL     1       8.944  -1.128  21.914  0.00  0.00    -0.337 OA
ATOM     29  C   UNL     1       8.255  -0.956  23.159  0.00  0.00    +0.339 C 
ATOM     30  C   UNL     1       9.166  -0.196  24.135  0.00  0.00    +0.214 C 
ATOM     31  C   UNL     1       9.414   1.191  23.523  0.00  0.00    +0.180 C 
ATOM     32  C   UNL     1      10.007   1.069  22.103  0.00  0.00    +0.171 C 
BRANCH  30  33
ATOM     33  O   UNL     1      10.441  -0.834  24.328  0.00  0.00    -0.383 OA
ATOM     34  H   UNL     1      11.084  -0.358  23.768  0.00  0.00    +0.210 HD
ENDBRANCH  30  33
BRANCH  31  35
ATOM     35  O   UNL     1      10.288   1.953  24.362  0.00  0.00    -0.386 OA
ATOM     36  H   UNL     1      11.177   1.555  24.239  0.00  0.00    +0.210 HD
ENDBRANCH  31  35
BRANCH  32  37
ATOM     37  O   UNL     1      10.079   2.332  21.435  0.00  0.00    -0.387 OA
ATOM     38  H   UNL     1       9.645   2.249  20.571  0.00  0.00    +0.210 HD
ENDBRANCH  32  37
ENDBRANCH  26  29
ENDBRANCH   1  26
TORSDOF 10
ENDMDL
MODEL 9
REMARK VINA RESULT:      -7.1      3.046      6.037
REMARK  Name = 
REMARK  10 active torsions:
REMARK  status: ('A' for Active; 'I' for Inactive)
REMARK    1  A    between atoms: C_2  and  O_31
REMARK    2  A    between atoms: C_3  and  O_30
REMARK    3  A    between atoms: C_4  and  O_29
REMARK    4  A    between atoms: C_5  and  O_7
REMARK    5  A    between atoms: O_7  and  C_8
REMARK    6  A    between atoms: C_9  and  C_21
REMARK    7  A    between atoms: C_13  and  O_20
REMARK    8  A    between atoms: C_15  and  O_19
REMARK    9  A    between atoms: C_23  and  O_28
REMARK   10  A    between atoms: C_24  and  O_27
REMARK                            x       y       z     vdW  Elec       q    Type
REMARK                         _______ _______ _______ _____ _____    ______ ____
ROOT
ATOM      1  C   UNL     1       6.080  -0.807  25.249  0.00  0.00    +0.214 A 
ATOM      2  C   UNL     1       4.808  -0.989  26.028  0.00  0.00    +0.238 A 
ATOM      3  O   UNL     1       4.101  -1.971  25.813  0.00  0.00    -0.283 OA
ATOM      4  C   UNL     1       4.467   0.042  27.014  0.00  0.00    +0.109 A 
ATOM      5  C   UNL     1       5.197   1.228  26.979  0.00  0.00    +0.147 A 
ATOM      6  C   UNL     1       4.942   2.250  27.899  0.00  0.00    +0.092 A 
ATOM      7  C   UNL     1       3.935   2.080  28.845  0.00  0.00    +0.124 A 
ATOM      8  C   UNL     1       3.187   0.910  28.890  0.00  0.00    +0.091 A 
ATOM      9  O   UNL     1       6.172   1.477  26.046  0.00  0.00    -0.451 OA
ATOM     10  C   UNL     1       3.454  -0.111  27.974  0.00  0.00    +0.135 A 
ATOM     11  C   UNL     1       6.606   0.441  25.227  0.00  0.00    +0.181 A 
ENDROOT
BRANCH  11  12
ATOM     12  C   UNL     1       7.684   0.891  24.308  0.00  0.00    +0.025 A 
ATOM     13  C   UNL     1       8.910   1.367  24.816  0.00  0.00    +0.015 A 
ATOM     14  C   UNL     1       9.876   1.921  23.971  0.00  0.00    +0.050 A 
ATOM     15  C   UNL     1       9.650   1.930  22.605  0.00  0.00    +0.158 A 
ATOM     16  C   UNL     1       8.474   1.402  22.075  0.00  0.00    +0.159 A 
ATOM     17  C   UNL     1       7.487   0.888  22.914  0.00  0.00    +0.060 A 
BRANCH  15  18
ATOM     18  O   UNL     1      10.597   2.465  21.782  0.00  0.00    -0.503 OA
ATOM     19  H   UNL     1      11.019   3.173  22.308  0.00  0.00    +0.292 HD
ENDBRANCH  15  18
BRANCH  16  20
ATOM     20  O   UNL     1       8.334   1.429  20.715  0.00  0.00    -0.503 OA
ATOM     21  H   UNL     1       7.942   2.282  20.460  0.00  0.00    +0.292 HD
ENDBRANCH  16  20
ENDBRANCH  11  12
BRANCH   7  22
ATOM     22  O   UNL     1       3.644   3.046  29.759  0.00  0.00    -0.507 OA
ATOM     23  H   UNL     1       2.682   3.185  29.789  0.00  0.00    +0.292 HD
ENDBRANCH   7  22
BRANCH  10  24
ATOM     24  O   UNL     1       2.725  -1.262  28.052  0.00  0.00    -0.506 OA
ATOM     25  H   UNL     1       2.876  -1.704  28.904  0.00  0.00    +0.292 HD
ENDBRANCH  10  24
BRANCH   1  26
ATOM     26  O   UNL     1       6.494  -1.933  24.564  0.00  0.00    -0.453 OA
BRANCH  26  29
ATOM     27  C   UNL     1       9.586  -3.749  24.440  0.00  0.00    +0.198 C 
ATOM     28  O   UNL     1       8.385  -3.130  23.987  0.00  0.00    -0.337 OA
ATOM     29  C   UNL     1       7.552  -2.728  25.083  0.00  0.00    +0.339 C 
ATOM     30  C   UNL     1       7.049  -3.982  25.815  0.00  0.00    +0.214 C 
ATOM     31  C   UNL     1       8.287  -4.693  26.382  0.00  0.00    +0.180 C 
ATOM     32  C   UNL     1       9.304  -5.005  25.263  0.00  0.00    +0.171 C 
BRANCH  30  33
ATOM     33  O   UNL     1       6.362  -4.902  24.948  0.00  0.00    -0.383 OA
ATOM     34  H   UNL     1       6.339  -4.493  24.061  0.00  0.00    +0.210 HD
ENDBRANCH  30  33
BRANCH  31  35
ATOM     35  O   UNL     1       7.902  -5.897  27.053  0.00  0.00    -0.386 OA
ATOM     36  H   UNL     1       7.307  -5.610  27.779  0.00  0.00    +0.210 HD
ENDBRANCH  31  35
BRANCH  32  37
ATOM     37  O   UNL     1      10.543  -5.499  25.780  0.00  0.00    -0.387 OA
ATOM     38  H   UNL     1      10.683  -5.120  26.662  0.00  0.00    +0.210 HD
ENDBRANCH  32  37
ENDBRANCH  26  29
ENDBRANCH   1  26
TORSDOF 10
ENDMDL
