MODEL 1
REMARK VINA RESULT:      -8.0      0.000      0.000
REMARK  Name = 
REMARK  18 active torsions:
REMARK  status: ('A' for Active; 'I' for Inactive)
REMARK    1  A    between atoms: C_1  and  C_2
REMARK    2  A    between atoms: C_3  and  O_51
REMARK    3  A    between atoms: C_5  and  O_50
REMARK    4  A    between atoms: C_7  and  O_49
REMARK    5  A    between atoms: C_8  and  O_11
REMARK    6  A    between atoms: O_11  and  C_12
REMARK    7  A    between atoms: C_14  and  O_48
REMARK    8  A    between atoms: C_19  and  C_40
REMARK    9  A    between atoms: C_20  and  O_23
REMARK   10  A    between atoms: O_23  and  C_24
REMARK   11  A    between atoms: C_26  and  O_39
REMARK   12  A    between atoms: C_28  and  O_38
REMARK   13  A    between atoms: C_29  and  O_34
REMARK   14  A    between atoms: C_31  and  C_33
REMARK   15  A    between atoms: O_34  and  C_35
REMARK   16  A    between atoms: C_35  and  C_37
REMARK   17  A    between atoms: C_42  and  O_47
REMARK   18  A    between atoms: C_43  and  O_46
REMARK                            x       y       z     vdW  Elec       q    Type
REMARK                         _______ _______ _______ _____ _____    ______ ____
ROOT
ATOM      1  C   UNL     1       8.229   1.269  22.306  0.00  0.00    +0.131 A 
ATOM      2  C   UNL     1       7.305   0.728  23.192  0.00  0.00    +0.093 A 
ATOM      3  C   UNL     1       7.496  -0.568  23.702  0.00  0.00    +0.147 A 
ATOM      4  O   UNL     1       6.532  -1.011  24.557  0.00  0.00    -0.451 OA
ATOM      5  C   UNL     1       6.601  -2.290  25.094  0.00  0.00    +0.181 A 
ATOM      6  C   UNL     1       7.614  -3.165  24.851  0.00  0.00    +0.214 A 
ATOM      7  C   UNL     1       8.731  -2.662  23.963  0.00  0.00    +0.238 A 
ATOM      8  O   UNL     1       9.725  -3.358  23.798  0.00  0.00    -0.283 OA
ATOM      9  C   UNL     1       8.593  -1.333  23.344  0.00  0.00    +0.109 A 
ATOM     10  C   UNL     1       9.509  -0.793  22.430  0.00  0.00    +0.135 A 
ATOM     11  C   UNL     1       9.320   0.495  21.905  0.00  0.00    +0.092 A 
ENDROOT
BRANCH   5  12
ATOM     12  C   UNL     1       5.443  -2.452  25.996  0.00  0.00    +0.025 A 
ATOM     13  C   UNL     1       5.591  -2.153  27.363  0.00  0.00    +0.015 A 
ATOM     14  C   UNL     1       4.466  -2.021  28.186  0.00  0.00    +0.050 A 
ATOM     15  C   UNL     1       3.201  -2.174  27.642  0.00  0.00    +0.158 A 
ATOM     16  C   UNL     1       3.043  -2.510  26.303  0.00  0.00    +0.159 A 
ATOM     17  C   UNL     1       4.155  -2.623  25.470  0.00  0.00    +0.060 A 
BRANCH  15  18
ATOM     18  O   UNL     1       2.106  -1.941  28.423  0.00  0.00    -0.503 OA
ATOM     19  H   UNL     1       1.919  -0.988  28.311  0.00  0.00    +0.292 HD
ENDBRANCH  15  18
BRANCH  16  20
ATOM     20  O   UNL     1       1.769  -2.672  25.834  0.00  0.00    -0.503 OA
ATOM     21  H   UNL     1       1.229  -1.957  26.215  0.00  0.00    +0.292 HD
ENDBRANCH  16  20
ENDBRANCH   5  12
BRANCH  10  22
ATOM     22  O   UNL     1      10.600  -1.501  22.018  0.00  0.00    -0.506 OA
ATOM     23  H   UNL     1      11.257  -1.583  22.730  0.00  0.00    +0.292 HD
ENDBRANCH  10  22
BRANCH   1  24
ATOM     24  O   UNL     1       8.143   2.507  21.731  0.00  0.00    -0.461 OA
BRANCH  24  28
ATOM     25  C   UNL     1       5.515   5.780  22.818  0.00  0.00    +0.041 C 
ATOM     26  C   UNL     1       7.001   5.916  22.497  0.00  0.00    +0.150 C 
ATOM     27  O   UNL     1       7.462   4.766  21.765  0.00  0.00    -0.334 OA
ATOM     28  C   UNL     1       7.585   3.555  22.539  0.00  0.00    +0.339 C 
ATOM     29  C   UNL     1       8.581   3.794  23.697  0.00  0.00    +0.214 C 
ATOM     30  C   UNL     1       8.031   4.917  24.587  0.00  0.00    +0.180 C 
ATOM     31  C   UNL     1       7.841   6.202  23.759  0.00  0.00    +0.174 C 
BRANCH  29  32
ATOM     32  O   UNL     1       9.868   4.182  23.157  0.00  0.00    -0.383 OA
ATOM     33  H   UNL     1      10.518   3.556  23.532  0.00  0.00    +0.210 HD
ENDBRANCH  29  32
BRANCH  30  34
ATOM     34  O   UNL     1       8.870   5.127  25.725  0.00  0.00    -0.386 OA
ATOM     35  H   UNL     1       8.699   4.411  26.364  0.00  0.00    +0.210 HD
ENDBRANCH  30  34
BRANCH  31  36
ATOM     36  O   UNL     1       9.112   6.752  23.383  0.00  0.00    -0.387 OA
ATOM     37  H   UNL     1       9.631   6.861  24.210  0.00  0.00    +0.210 HD
ENDBRANCH  31  36
ENDBRANCH  24  28
ENDBRANCH   1  24
BRANCH   6  38
ATOM     38  O   UNL     1       7.818  -4.443  25.344  0.00  0.00    -0.453 OA
BRANCH  38  39
ATOM     39  C   UNL     1       6.832  -5.432  25.062  0.00  0.00    +0.340 C 
ATOM     40  O   UNL     1       5.761  -5.396  26.011  0.00  0.00    -0.333 OA
ATOM     41  C   UNL     1       4.949  -6.565  25.896  0.00  0.00    +0.163 C 
ATOM     42  C   UNL     1       3.941  -6.538  27.034  0.00  0.00    +0.042 C 
ATOM     43  C   UNL     1       4.288  -6.681  24.509  0.00  0.00    +0.236 C 
ATOM     44  C   UNL     1       5.287  -6.414  23.361  0.00  0.00    +0.192 C 
ATOM     45  C   UNL     1       6.195  -5.198  23.675  0.00  0.00    +0.215 C 
BRANCH  44  46
ATOM     46  O   UNL     1       4.530  -6.229  22.150  0.00  0.00    -0.385 OA
ATOM     47  H   UNL     1       3.889  -5.510  22.302  0.00  0.00    +0.210 HD
ENDBRANCH  44  46
BRANCH  45  48
ATOM     48  O   UNL     1       7.168  -5.051  22.631  0.00  0.00    -0.383 OA
ATOM     49  H   UNL     1       6.908  -5.678  21.927  0.00  0.00    +0.210 HD
ENDBRANCH  45  48
BRANCH  43  50
ATOM     50  O   UNL     1       3.564  -7.929  24.319  0.00  0.00    -0.456 OA
BRANCH  50  51
ATOM     51  C   UNL     1       2.253  -7.883  23.967  0.00  0.00    +0.304 C 
ATOM     52  C   UNL     1       1.451  -8.910  24.704  0.00  0.00    +0.136 C 
ATOM     53  O   UNL     1       1.776  -7.144  23.115  0.00  0.00    -0.251 OA
ENDBRANCH  50  51
ENDBRANCH  43  50
ENDBRANCH  38  39
ENDBRANCH   6  38
TORSDOF 15
ENDMDL
MODEL 2
REMARK VINA RESULT:      -7.9      1.571      2.832
REMARK  Name = 
REMARK  18 active torsions:
REMARK  status: ('A' for Active; 'I' for Inactive)
REMARK    1  A    between atoms: C_1  and  C_2
REMARK    2  A    between atoms: C_3  and  O_51
REMARK    3  A    between atoms: C_5  and  O_50
REMARK    4  A    between atoms: C_7  and  O_49
REMARK    5  A    between atoms: C_8  and  O_11
REMARK    6  A    between atoms: O_11  and  C_12
REMARK    7  A    between atoms: C_14  and  O_48
REMARK    8  A    between atoms: C_19  and  C_40
REMARK    9  A    between atoms: C_20  and  O_23
REMARK   10  A    between atoms: O_23  and  C_24
REMARK   11  A    between atoms: C_26  and  O_39
REMARK   12  A    between atoms: C_28  and  O_38
REMARK   13  A    between atoms: C_29  and  O_34
REMARK   14  A    between atoms: C_31  and  C_33
REMARK   15  A    between atoms: O_34  and  C_35
REMARK   16  A    between atoms: C_35  and  C_37
REMARK   17  A    between atoms: C_42  and  O_47
REMARK   18  A    between atoms: C_43  and  O_46
REMARK                            x       y       z     vdW  Elec       q    Type
REMARK                         _______ _______ _______ _____ _____    ______ ____
ROOT
ATOM      1  C   UNL     1       8.446   0.929  22.433  0.00  0.00    +0.131 A 
ATOM      2  C   UNL     1       7.277   0.353  22.918  0.00  0.00    +0.093 A 
ATOM      3  C   UNL     1       7.280  -0.985  23.346  0.00  0.00    +0.147 A 
ATOM      4  O   UNL     1       6.084  -1.461  23.798  0.00  0.00    -0.451 OA
ATOM      5  C   UNL     1       5.962  -2.780  24.213  0.00  0.00    +0.181 A 
ATOM      6  C   UNL     1       6.992  -3.670  24.237  0.00  0.00    +0.214 A 
ATOM      7  C   UNL     1       8.342  -3.139  23.809  0.00  0.00    +0.238 A 
ATOM      8  O   UNL     1       9.330  -3.855  23.917  0.00  0.00    -0.283 OA
ATOM      9  C   UNL     1       8.427  -1.760  23.299  0.00  0.00    +0.109 A 
ATOM     10  C   UNL     1       9.596  -1.182  22.785  0.00  0.00    +0.135 A 
ATOM     11  C   UNL     1       9.601   0.150  22.343  0.00  0.00    +0.092 A 
ENDROOT
BRANCH   5  12
ATOM     12  C   UNL     1       4.572  -2.971  24.670  0.00  0.00    +0.025 A 
ATOM     13  C   UNL     1       3.721  -3.824  23.942  0.00  0.00    +0.015 A 
ATOM     14  C   UNL     1       2.505  -4.250  24.491  0.00  0.00    +0.050 A 
ATOM     15  C   UNL     1       2.149  -3.836  25.764  0.00  0.00    +0.158 A 
ATOM     16  C   UNL     1       2.960  -2.961  26.476  0.00  0.00    +0.159 A 
ATOM     17  C   UNL     1       4.182  -2.547  25.948  0.00  0.00    +0.060 A 
BRANCH  15  18
ATOM     18  O   UNL     1       1.014  -4.336  26.335  0.00  0.00    -0.503 OA
ATOM     19  H   UNL     1       0.897  -5.215  25.923  0.00  0.00    +0.292 HD
ENDBRANCH  15  18
BRANCH  16  20
ATOM     20  O   UNL     1       2.538  -2.569  27.716  0.00  0.00    -0.503 OA
ATOM     21  H   UNL     1       2.513  -3.365  28.276  0.00  0.00    +0.292 HD
ENDBRANCH  16  20
ENDBRANCH   5  12
BRANCH  10  22
ATOM     22  O   UNL     1      10.756  -1.894  22.691  0.00  0.00    -0.506 OA
ATOM     23  H   UNL     1      10.806  -2.580  23.378  0.00  0.00    +0.292 HD
ENDBRANCH  10  22
BRANCH   1  24
ATOM     24  O   UNL     1       8.563   2.212  21.973  0.00  0.00    -0.461 OA
BRANCH  24  28
ATOM     25  C   UNL     1       5.507   5.153  22.870  0.00  0.00    +0.041 C 
ATOM     26  C   UNL     1       6.955   5.473  22.512  0.00  0.00    +0.150 C 
ATOM     27  O   UNL     1       7.569   4.349  21.856  0.00  0.00    -0.334 OA
ATOM     28  C   UNL     1       7.869   3.228  22.714  0.00  0.00    +0.339 C 
ATOM     29  C   UNL     1       8.830   3.690  23.832  0.00  0.00    +0.214 C 
ATOM     30  C   UNL     1       8.134   4.788  24.648  0.00  0.00    +0.180 C 
ATOM     31  C   UNL     1       7.756   5.967  23.733  0.00  0.00    +0.174 C 
BRANCH  29  32
ATOM     32  O   UNL     1      10.044   4.215  23.241  0.00  0.00    -0.383 OA
ATOM     33  H   UNL     1       9.789   5.044  22.791  0.00  0.00    +0.210 HD
ENDBRANCH  29  32
BRANCH  30  34
ATOM     34  O   UNL     1       8.944   5.198  25.753  0.00  0.00    -0.386 OA
ATOM     35  H   UNL     1       8.807   6.154  25.890  0.00  0.00    +0.210 HD
ENDBRANCH  30  34
BRANCH  31  36
ATOM     36  O   UNL     1       8.933   6.662  23.295  0.00  0.00    -0.387 OA
ATOM     37  H   UNL     1       8.986   7.492  23.817  0.00  0.00    +0.210 HD
ENDBRANCH  31  36
ENDBRANCH  24  28
ENDBRANCH   1  24
BRANCH   6  38
ATOM     38  O   UNL     1       7.012  -4.989  24.655  0.00  0.00    -0.453 OA
BRANCH  38  39
ATOM     39  C   UNL     1       6.254  -5.336  25.811  0.00  0.00    +0.340 C 
ATOM     40  O   UNL     1       5.288  -6.351  25.524  0.00  0.00    -0.333 OA
ATOM     41  C   UNL     1       4.352  -6.470  26.597  0.00  0.00    +0.163 C 
ATOM     42  C   UNL     1       3.267  -7.441  26.154  0.00  0.00    +0.042 C 
ATOM     43  C   UNL     1       5.029  -6.886  27.917  0.00  0.00    +0.236 C 
ATOM     44  C   UNL     1       6.308  -6.067  28.200  0.00  0.00    +0.192 C 
ATOM     45  C   UNL     1       7.168  -5.903  26.920  0.00  0.00    +0.215 C 
BRANCH  44  46
ATOM     46  O   UNL     1       7.030  -6.727  29.257  0.00  0.00    -0.385 OA
ATOM     47  H   UNL     1       7.975  -6.732  29.020  0.00  0.00    +0.210 HD
ENDBRANCH  44  46
BRANCH  45  48
ATOM     48  O   UNL     1       8.289  -5.056  27.208  0.00  0.00    -0.383 OA
ATOM     49  H   UNL     1       8.468  -5.158  28.164  0.00  0.00    +0.210 HD
ENDBRANCH  45  48
BRANCH  43  50
ATOM     50  O   UNL     1       4.121  -6.884  29.054  0.00  0.00    -0.456 OA
BRANCH  50  51
ATOM     51  C   UNL     1       3.459  -5.741  29.368  0.00  0.00    +0.304 C 
ATOM     52  C   UNL     1       4.165  -4.976  30.444  0.00  0.00    +0.136 C 
ATOM     53  O   UNL     1       2.390  -5.389  28.886  0.00  0.00    -0.251 OA
ENDBRANCH  50  51
ENDBRANCH  43  50
ENDBRANCH  38  39
ENDBRANCH   6  38
TORSDOF 15
ENDMDL
MODEL 3
REMARK VINA RESULT:      -7.8      2.357      9.638
REMARK  Name = 
REMARK  18 active torsions:
REMARK  status: ('A' for Active; 'I' for Inactive)
REMARK    1  A    between atoms: C_1  and  C_2
REMARK    2  A    between atoms: C_3  and  O_51
REMARK    3  A    between atoms: C_5  and  O_50
REMARK    4  A    between atoms: C_7  and  O_49
REMARK    5  A    between atoms: C_8  and  O_11
REMARK    6  A    between atoms: O_11  and  C_12
REMARK    7  A    between atoms: C_14  and  O_48
REMARK    8  A    between atoms: C_19  and  C_40
REMARK    9  A    between atoms: C_20  and  O_23
REMARK   10  A    between atoms: O_23  and  C_24
REMARK   11  A    between atoms: C_26  and  O_39
REMARK   12  A    between atoms: C_28  and  O_38
REMARK   13  A    between atoms: C_29  and  O_34
REMARK   14  A    between atoms: C_31  and  C_33
REMARK   15  A    between atoms: O_34  and  C_35
REMARK   16  A    between atoms: C_35  and  C_37
REMARK   17  A    between atoms: C_42  and  O_47
REMARK   18  A    between atoms: C_43  and  O_46
REMARK                            x       y       z     vdW  Elec       q    Type
REMARK                         _______ _______ _______ _____ _____    ______ ____
ROOT
ATOM      1  C   UNL     1       6.099  -5.584  26.166  0.00  0.00    +0.131 A 
ATOM      2  C   UNL     1       5.844  -4.304  26.646  0.00  0.00    +0.093 A 
ATOM      3  C   UNL     1       6.749  -3.262  26.383  0.00  0.00    +0.147 A 
ATOM      4  O   UNL     1       6.414  -2.046  26.902  0.00  0.00    -0.451 OA
ATOM      5  C   UNL     1       7.253  -0.953  26.735  0.00  0.00    +0.181 A 
ATOM      6  C   UNL     1       8.421  -0.989  26.037  0.00  0.00    +0.214 A 
ATOM      7  C   UNL     1       8.773  -2.311  25.393  0.00  0.00    +0.238 A 
ATOM      8  O   UNL     1       9.751  -2.379  24.658  0.00  0.00    -0.283 OA
ATOM      9  C   UNL     1       7.906  -3.474  25.652  0.00  0.00    +0.109 A 
ATOM     10  C   UNL     1       8.173  -4.771  25.193  0.00  0.00    +0.135 A 
ATOM     11  C   UNL     1       7.281  -5.822  25.461  0.00  0.00    +0.092 A 
ENDROOT
BRANCH   5  12
ATOM     12  C   UNL     1       6.599   0.206  27.373  0.00  0.00    +0.025 A 
ATOM     13  C   UNL     1       7.193   0.790  28.508  0.00  0.00    +0.015 A 
ATOM     14  C   UNL     1       6.768   2.044  28.966  0.00  0.00    +0.050 A 
ATOM     15  C   UNL     1       5.764   2.713  28.285  0.00  0.00    +0.158 A 
ATOM     16  C   UNL     1       5.141   2.129  27.189  0.00  0.00    +0.159 A 
ATOM     17  C   UNL     1       5.571   0.892  26.713  0.00  0.00    +0.060 A 
BRANCH  15  18
ATOM     18  O   UNL     1       5.426   3.978  28.672  0.00  0.00    -0.503 OA
ATOM     19  H   UNL     1       5.385   3.936  29.649  0.00  0.00    +0.292 HD
ENDBRANCH  15  18
BRANCH  16  20
ATOM     20  O   UNL     1       4.139   2.832  26.579  0.00  0.00    -0.503 OA
ATOM     21  H   UNL     1       4.407   3.768  26.573  0.00  0.00    +0.292 HD
ENDBRANCH  16  20
ENDBRANCH   5  12
BRANCH  10  22
ATOM     22  O   UNL     1       9.304  -5.053  24.485  0.00  0.00    -0.506 OA
ATOM     23  H   UNL     1       9.096  -5.523  23.660  0.00  0.00    +0.292 HD
ENDBRANCH  10  22
BRANCH   1  24
ATOM     24  O   UNL     1       5.305  -6.678  26.371  0.00  0.00    -0.461 OA
BRANCH  24  28
ATOM     25  C   UNL     1       0.987  -6.882  26.703  0.00  0.00    +0.041 C 
ATOM     26  C   UNL     1       1.847  -7.809  25.848  0.00  0.00    +0.150 C 
ATOM     27  O   UNL     1       3.216  -7.771  26.291  0.00  0.00    -0.334 OA
ATOM     28  C   UNL     1       3.931  -6.561  25.968  0.00  0.00    +0.339 C 
ATOM     29  C   UNL     1       3.938  -6.370  24.434  0.00  0.00    +0.214 C 
ATOM     30  C   UNL     1       2.485  -6.250  23.954  0.00  0.00    +0.180 C 
ATOM     31  C   UNL     1       1.694  -7.513  24.342  0.00  0.00    +0.174 C 
BRANCH  29  32
ATOM     32  O   UNL     1       4.568  -7.514  23.807  0.00  0.00    -0.383 OA
ATOM     33  H   UNL     1       4.226  -8.302  24.274  0.00  0.00    +0.210 HD
ENDBRANCH  29  32
BRANCH  30  34
ATOM     34  O   UNL     1       2.429  -5.988  22.549  0.00  0.00    -0.386 OA
ATOM     35  H   UNL     1       3.063  -6.582  22.106  0.00  0.00    +0.210 HD
ENDBRANCH  30  34
BRANCH  31  36
ATOM     36  O   UNL     1       2.140  -8.642  23.577  0.00  0.00    -0.387 OA
ATOM     37  H   UNL     1       2.435  -9.324  24.220  0.00  0.00    +0.210 HD
ENDBRANCH  31  36
ENDBRANCH  24  28
ENDBRANCH   1  24
BRANCH   6  38
ATOM     38  O   UNL     1       9.324   0.026  25.770  0.00  0.00    -0.453 OA
BRANCH  38  39
ATOM     39  C   UNL     1       8.919   1.064  24.881  0.00  0.00    +0.340 C 
ATOM     40  O   UNL     1       8.681   2.292  25.576  0.00  0.00    -0.333 OA
ATOM     41  C   UNL     1       7.999   3.221  24.733  0.00  0.00    +0.163 C 
ATOM     42  C   UNL     1       7.634   4.429  25.582  0.00  0.00    +0.042 C 
ATOM     43  C   UNL     1       8.824   3.590  23.485  0.00  0.00    +0.236 C 
ATOM     44  C   UNL     1       9.432   2.346  22.799  0.00  0.00    +0.192 C 
ATOM     45  C   UNL     1      10.020   1.358  23.838  0.00  0.00    +0.215 C 
BRANCH  44  46
ATOM     46  O   UNL     1      10.425   2.800  21.860  0.00  0.00    -0.385 OA
ATOM     47  H   UNL     1      10.581   3.749  22.020  0.00  0.00    +0.210 HD
ENDBRANCH  44  46
BRANCH  45  48
ATOM     48  O   UNL     1      10.481   0.179  23.164  0.00  0.00    -0.383 OA
ATOM     49  H   UNL     1      10.605   0.433  22.228  0.00  0.00    +0.210 HD
ENDBRANCH  45  48
BRANCH  43  50
ATOM     50  O   UNL     1       8.100   4.430  22.543  0.00  0.00    -0.456 OA
BRANCH  50  51
ATOM     51  C   UNL     1       8.287   5.775  22.581  0.00  0.00    +0.304 C 
ATOM     52  C   UNL     1       7.193   6.500  21.860  0.00  0.00    +0.136 C 
ATOM     53  O   UNL     1       9.249   6.340  23.085  0.00  0.00    -0.251 OA
ENDBRANCH  50  51
ENDBRANCH  43  50
ENDBRANCH  38  39
ENDBRANCH   6  38
TORSDOF 15
ENDMDL
MODEL 4
REMARK VINA RESULT:      -7.8      2.449      9.552
REMARK  Name = 
REMARK  18 active torsions:
REMARK  status: ('A' for Active; 'I' for Inactive)
REMARK    1  A    between atoms: C_1  and  C_2
REMARK    2  A    between atoms: C_3  and  O_51
REMARK    3  A    between atoms: C_5  and  O_50
REMARK    4  A    between atoms: C_7  and  O_49
REMARK    5  A    between atoms: C_8  and  O_11
REMARK    6  A    between atoms: O_11  and  C_12
REMARK    7  A    between atoms: C_14  and  O_48
REMARK    8  A    between atoms: C_19  and  C_40
REMARK    9  A    between atoms: C_20  and  O_23
REMARK   10  A    between atoms: O_23  and  C_24
REMARK   11  A    between atoms: C_26  and  O_39
REMARK   12  A    between atoms: C_28  and  O_38
REMARK   13  A    between atoms: C_29  and  O_34
REMARK   14  A    between atoms: C_31  and  C_33
REMARK   15  A    between atoms: O_34  and  C_35
REMARK   16  A    between atoms: C_35  and  C_37
REMARK   17  A    between atoms: C_42  and  O_47
REMARK   18  A    between atoms: C_43  and  O_46
REMARK                            x       y       z     vdW  Elec       q    Type
REMARK                         _______ _______ _______ _____ _____    ______ ____
ROOT
ATOM      1  C   UNL     1       7.707  -3.660  24.911  0.00  0.00    +0.131 A 
ATOM      2  C   UNL     1       7.133  -2.567  25.551  0.00  0.00    +0.093 A 
ATOM      3  C   UNL     1       7.637  -1.275  25.324  0.00  0.00    +0.147 A 
ATOM      4  O   UNL     1       7.011  -0.272  26.003  0.00  0.00    -0.451 OA
ATOM      5  C   UNL     1       7.449   1.040  25.881  0.00  0.00    +0.181 A 
ATOM      6  C   UNL     1       8.477   1.430  25.079  0.00  0.00    +0.214 A 
ATOM      7  C   UNL     1       9.135   0.339  24.262  0.00  0.00    +0.238 A 
ATOM      8  O   UNL     1       9.989   0.641  23.437  0.00  0.00    -0.283 OA
ATOM      9  C   UNL     1       8.704  -1.053  24.470  0.00  0.00    +0.109 A 
ATOM     10  C   UNL     1       9.297  -2.160  23.847  0.00  0.00    +0.135 A 
ATOM     11  C   UNL     1       8.809  -3.457  24.077  0.00  0.00    +0.092 A 
ENDROOT
BRANCH   5  12
ATOM     12  C   UNL     1       6.555   1.880  26.702  0.00  0.00    +0.025 A 
ATOM     13  C   UNL     1       7.054   2.463  27.882  0.00  0.00    +0.015 A 
ATOM     14  C   UNL     1       6.339   3.480  28.528  0.00  0.00    +0.050 A 
ATOM     15  C   UNL     1       5.140   3.919  27.990  0.00  0.00    +0.158 A 
ATOM     16  C   UNL     1       4.617   3.323  26.850  0.00  0.00    +0.159 A 
ATOM     17  C   UNL     1       5.330   2.325  26.187  0.00  0.00    +0.060 A 
BRANCH  15  18
ATOM     18  O   UNL     1       4.501   4.979  28.564  0.00  0.00    -0.503 OA
ATOM     19  H   UNL     1       3.681   4.601  28.940  0.00  0.00    +0.292 HD
ENDBRANCH  15  18
BRANCH  16  20
ATOM     20  O   UNL     1       3.416   3.784  26.385  0.00  0.00    -0.503 OA
ATOM     21  H   UNL     1       3.317   3.457  25.473  0.00  0.00    +0.292 HD
ENDBRANCH  16  20
ENDBRANCH   5  12
BRANCH  10  22
ATOM     22  O   UNL     1      10.364  -2.016  23.010  0.00  0.00    -0.506 OA
ATOM     23  H   UNL     1      10.268  -1.229  22.448  0.00  0.00    +0.292 HD
ENDBRANCH  10  22
BRANCH   1  24
ATOM     24  O   UNL     1       7.317  -4.962  25.065  0.00  0.00    -0.461 OA
BRANCH  24  28
ATOM     25  C   UNL     1       3.758  -6.049  27.289  0.00  0.00    +0.041 C 
ATOM     26  C   UNL     1       4.363  -6.862  26.148  0.00  0.00    +0.150 C 
ATOM     27  O   UNL     1       5.734  -6.480  25.934  0.00  0.00    -0.334 OA
ATOM     28  C   UNL     1       5.921  -5.190  25.316  0.00  0.00    +0.339 C 
ATOM     29  C   UNL     1       5.220  -5.182  23.939  0.00  0.00    +0.214 C 
ATOM     30  C   UNL     1       3.722  -5.434  24.155  0.00  0.00    +0.180 C 
ATOM     31  C   UNL     1       3.510  -6.784  24.866  0.00  0.00    +0.174 C 
BRANCH  29  32
ATOM     32  O   UNL     1       5.777  -6.229  23.106  0.00  0.00    -0.383 OA
ATOM     33  H   UNL     1       5.806  -7.032  23.662  0.00  0.00    +0.210 HD
ENDBRANCH  29  32
BRANCH  30  34
ATOM     34  O   UNL     1       3.005  -5.355  22.920  0.00  0.00    -0.386 OA
ATOM     35  H   UNL     1       3.504  -4.774  22.317  0.00  0.00    +0.210 HD
ENDBRANCH  30  34
BRANCH  31  36
ATOM     36  O   UNL     1       3.844  -7.872  23.992  0.00  0.00    -0.387 OA
ATOM     37  H   UNL     1       4.781  -7.744  23.724  0.00  0.00    +0.210 HD
ENDBRANCH  31  36
ENDBRANCH  24  28
ENDBRANCH   1  24
BRANCH   6  38
ATOM     38  O   UNL     1       8.986   2.695  24.844  0.00  0.00    -0.453 OA
BRANCH  38  39
ATOM     39  C   UNL     1       8.072   3.725  24.477  0.00  0.00    +0.340 C 
ATOM     40  O   UNL     1       8.119   4.824  25.393  0.00  0.00    -0.333 OA
ATOM     41  C   UNL     1       7.007   5.695  25.188  0.00  0.00    +0.163 C 
ATOM     42  C   UNL     1       7.030   6.738  26.295  0.00  0.00    +0.042 C 
ATOM     43  C   UNL     1       7.006   6.316  23.778  0.00  0.00    +0.236 C 
ATOM     44  C   UNL     1       7.276   5.265  22.677  0.00  0.00    +0.192 C 
ATOM     45  C   UNL     1       8.419   4.302  23.086  0.00  0.00    +0.215 C 
BRANCH  44  46
ATOM     46  O   UNL     1       7.572   5.970  21.457  0.00  0.00    -0.385 OA
ATOM     47  H   UNL     1       8.331   6.557  21.623  0.00  0.00    +0.210 HD
ENDBRANCH  44  46
BRANCH  45  48
ATOM     48  O   UNL     1       8.567   3.288  22.083  0.00  0.00    -0.383 OA
ATOM     49  H   UNL     1       9.435   3.447  21.662  0.00  0.00    +0.210 HD
ENDBRANCH  45  48
BRANCH  43  50
ATOM     50  O   UNL     1       5.814   7.102  23.495  0.00  0.00    -0.456 OA
BRANCH  50  51
ATOM     51  C   UNL     1       4.628   6.463  23.326  0.00  0.00    +0.304 C 
ATOM     52  C   UNL     1       3.988   6.830  22.023  0.00  0.00    +0.136 C 
ATOM     53  O   UNL     1       4.102   5.723  24.147  0.00  0.00    -0.251 OA
ENDBRANCH  50  51
ENDBRANCH  43  50
ENDBRANCH  38  39
ENDBRANCH   6  38
TORSDOF 15
ENDMDL
MODEL 5
REMARK VINA RESULT:      -7.4      1.924     10.387
REMARK  Name = 
REMARK  18 active torsions:
REMARK  status: ('A' for Active; 'I' for Inactive)
REMARK    1  A    between atoms: C_1  and  C_2
REMARK    2  A    between atoms: C_3  and  O_51
REMARK    3  A    between atoms: C_5  and  O_50
REMARK    4  A    between atoms: C_7  and  O_49
REMARK    5  A    between atoms: C_8  and  O_11
REMARK    6  A    between atoms: O_11  and  C_12
REMARK    7  A    between atoms: C_14  and  O_48
REMARK    8  A    between atoms: C_19  and  C_40
REMARK    9  A    between atoms: C_20  and  O_23
REMARK   10  A    between atoms: O_23  and  C_24
REMARK   11  A    between atoms: C_26  and  O_39
REMARK   12  A    between atoms: C_28  and  O_38
REMARK   13  A    between atoms: C_29  and  O_34
REMARK   14  A    between atoms: C_31  and  C_33
REMARK   15  A    between atoms: O_34  and  C_35
REMARK   16  A    between atoms: C_35  and  C_37
REMARK   17  A    between atoms: C_42  and  O_47
REMARK   18  A    between atoms: C_43  and  O_46
REMARK                            x       y       z     vdW  Elec       q    Type
REMARK                         _______ _______ _______ _____ _____    ______ ____
ROOT
ATOM      1  C   UNL     1       4.830  -5.085  25.227  0.00  0.00    +0.131 A 
ATOM      2  C   UNL     1       5.688  -4.179  24.614  0.00  0.00    +0.093 A 
ATOM      3  C   UNL     1       5.841  -2.887  25.145  0.00  0.00    +0.147 A 
ATOM      4  O   UNL     1       6.699  -2.071  24.468  0.00  0.00    -0.451 OA
ATOM      5  C   UNL     1       6.900  -0.761  24.883  0.00  0.00    +0.181 A 
ATOM      6  C   UNL     1       6.308  -0.209  25.978  0.00  0.00    +0.214 A 
ATOM      7  C   UNL     1       5.410  -1.123  26.783  0.00  0.00    +0.238 A 
ATOM      8  O   UNL     1       4.940  -0.721  27.840  0.00  0.00    -0.283 OA
ATOM      9  C   UNL     1       5.153  -2.481  26.276  0.00  0.00    +0.109 A 
ATOM     10  C   UNL     1       4.269  -3.389  26.876  0.00  0.00    +0.135 A 
ATOM     11  C   UNL     1       4.099  -4.678  26.346  0.00  0.00    +0.092 A 
ENDROOT
BRANCH   5  12
ATOM     12  C   UNL     1       7.897  -0.160  23.977  0.00  0.00    +0.025 A 
ATOM     13  C   UNL     1       7.493   0.271  22.700  0.00  0.00    +0.015 A 
ATOM     14  C   UNL     1       8.327   1.092  21.930  0.00  0.00    +0.050 A 
ATOM     15  C   UNL     1       9.552   1.489  22.441  0.00  0.00    +0.158 A 
ATOM     16  C   UNL     1       9.981   1.037  23.683  0.00  0.00    +0.159 A 
ATOM     17  C   UNL     1       9.150   0.236  24.465  0.00  0.00    +0.060 A 
BRANCH  15  18
ATOM     18  O   UNL     1      10.315   2.372  21.733  0.00  0.00    -0.503 OA
ATOM     19  H   UNL     1       9.856   2.462  20.873  0.00  0.00    +0.292 HD
ENDBRANCH  15  18
BRANCH  16  20
ATOM     20  O   UNL     1      11.212   1.444  24.117  0.00  0.00    -0.503 OA
ATOM     21  H   UNL     1      11.712   0.643  24.355  0.00  0.00    +0.292 HD
ENDBRANCH  16  20
ENDBRANCH   5  12
BRANCH  10  22
ATOM     22  O   UNL     1       3.544  -3.048  27.980  0.00  0.00    -0.506 OA
ATOM     23  H   UNL     1       3.567  -3.754  28.649  0.00  0.00    +0.292 HD
ENDBRANCH  10  22
BRANCH   1  24
ATOM     24  O   UNL     1       4.585  -6.359  24.796  0.00  0.00    -0.461 OA
BRANCH  24  28
ATOM     25  C   UNL     1       0.938  -8.584  25.534  0.00  0.00    +0.041 C 
ATOM     26  C   UNL     1       1.771  -8.661  24.257  0.00  0.00    +0.150 C 
ATOM     27  O   UNL     1       3.102  -8.169  24.497  0.00  0.00    -0.334 OA
ATOM     28  C   UNL     1       3.207  -6.740  24.660  0.00  0.00    +0.339 C 
ATOM     29  C   UNL     1       2.682  -6.045  23.384  0.00  0.00    +0.214 C 
ATOM     30  C   UNL     1       1.209  -6.431  23.191  0.00  0.00    +0.180 C 
ATOM     31  C   UNL     1       1.076  -7.961  23.072  0.00  0.00    +0.174 C 
BRANCH  29  32
ATOM     32  O   UNL     1       3.457  -6.482  22.241  0.00  0.00    -0.383 OA
ATOM     33  H   UNL     1       4.040  -5.733  22.007  0.00  0.00    +0.210 HD
ENDBRANCH  29  32
BRANCH  30  34
ATOM     34  O   UNL     1       0.643  -5.750  22.068  0.00  0.00    -0.386 OA
ATOM     35  H   UNL     1       0.824  -4.798  22.170  0.00  0.00    +0.210 HD
ENDBRANCH  30  34
BRANCH  31  36
ATOM     36  O   UNL     1       1.641  -8.421  21.836  0.00  0.00    -0.387 OA
ATOM     37  H   UNL     1       2.044  -7.639  21.398  0.00  0.00    +0.210 HD
ENDBRANCH  31  36
ENDBRANCH  24  28
ENDBRANCH   1  24
BRANCH   6  38
ATOM     38  O   UNL     1       6.447   1.060  26.514  0.00  0.00    -0.453 OA
BRANCH  38  39
ATOM     39  C   UNL     1       6.383   2.171  25.624  0.00  0.00    +0.340 C 
ATOM     40  O   UNL     1       5.124   2.235  24.948  0.00  0.00    -0.333 OA
ATOM     41  C   UNL     1       5.185   3.158  23.860  0.00  0.00    +0.163 C 
ATOM     42  C   UNL     1       3.876   3.051  23.092  0.00  0.00    +0.042 C 
ATOM     43  C   UNL     1       5.490   4.593  24.330  0.00  0.00    +0.236 C 
ATOM     44  C   UNL     1       6.653   4.640  25.346  0.00  0.00    +0.192 C 
ATOM     45  C   UNL     1       6.534   3.503  26.393  0.00  0.00    +0.215 C 
BRANCH  44  46
ATOM     46  O   UNL     1       6.653   5.943  25.959  0.00  0.00    -0.385 OA
ATOM     47  H   UNL     1       6.213   5.870  26.826  0.00  0.00    +0.210 HD
ENDBRANCH  44  46
BRANCH  45  48
ATOM     48  O   UNL     1       7.684   3.526  27.251  0.00  0.00    -0.383 OA
ATOM     49  H   UNL     1       7.446   2.995  28.037  0.00  0.00    +0.210 HD
ENDBRANCH  45  48
BRANCH  43  50
ATOM     50  O   UNL     1       5.690   5.528  23.233  0.00  0.00    -0.456 OA
BRANCH  50  51
ATOM     51  C   UNL     1       6.833   5.454  22.504  0.00  0.00    +0.304 C 
ATOM     52  C   UNL     1       7.492   6.793  22.380  0.00  0.00    +0.136 C 
ATOM     53  O   UNL     1       7.259   4.444  21.961  0.00  0.00    -0.251 OA
ENDBRANCH  50  51
ENDBRANCH  43  50
ENDBRANCH  38  39
ENDBRANCH   6  38
TORSDOF 15
ENDMDL
MODEL 6
REMARK VINA RESULT:      -7.3      1.098      1.887
REMARK  Name = 
REMARK  18 active torsions:
REMARK  status: ('A' for Active; 'I' for Inactive)
REMARK    1  A    between atoms: C_1  and  C_2
REMARK    2  A    between atoms: C_3  and  O_51
REMARK    3  A    between atoms: C_5  and  O_50
REMARK    4  A    between atoms: C_7  and  O_49
REMARK    5  A    between atoms: C_8  and  O_11
REMARK    6  A    between atoms: O_11  and  C_12
REMARK    7  A    between atoms: C_14  and  O_48
REMARK    8  A    between atoms: C_19  and  C_40
REMARK    9  A    between atoms: C_20  and  O_23
REMARK   10  A    between atoms: O_23  and  C_24
REMARK   11  A    between atoms: C_26  and  O_39
REMARK   12  A    between atoms: C_28  and  O_38
REMARK   13  A    between atoms: C_29  and  O_34
REMARK   14  A    between atoms: C_31  and  C_33
REMARK   15  A    between atoms: O_34  and  C_35
REMARK   16  A    between atoms: C_35  and  C_37
REMARK   17  A    between atoms: C_42  and  O_47
REMARK   18  A    between atoms: C_43  and  O_46
REMARK                            x       y       z     vdW  Elec       q    Type
REMARK                         _______ _______ _______ _____ _____    ______ ____
ROOT
ATOM      1  C   UNL     1       8.227   0.979  22.247  0.00  0.00    +0.131 A 
ATOM      2  C   UNL     1       7.231   0.523  23.104  0.00  0.00    +0.093 A 
ATOM      3  C   UNL     1       7.359  -0.731  23.725  0.00  0.00    +0.147 A 
ATOM      4  O   UNL     1       6.327  -1.091  24.540  0.00  0.00    -0.451 OA
ATOM      5  C   UNL     1       6.331  -2.325  25.178  0.00  0.00    +0.181 A 
ATOM      6  C   UNL     1       7.341  -3.233  25.075  0.00  0.00    +0.214 A 
ATOM      7  C   UNL     1       8.527  -2.818  24.233  0.00  0.00    +0.238 A 
ATOM      8  O   UNL     1       9.515  -3.541  24.193  0.00  0.00    -0.283 OA
ATOM      9  C   UNL     1       8.462  -1.540  23.505  0.00  0.00    +0.109 A 
ATOM     10  C   UNL     1       9.451  -1.088  22.621  0.00  0.00    +0.135 A 
ATOM     11  C   UNL     1       9.327   0.159  21.986  0.00  0.00    +0.092 A 
ENDROOT
BRANCH   5  12
ATOM     12  C   UNL     1       5.111  -2.398  26.004  0.00  0.00    +0.025 A 
ATOM     13  C   UNL     1       3.892  -2.754  25.398  0.00  0.00    +0.015 A 
ATOM     14  C   UNL     1       2.786  -3.108  26.182  0.00  0.00    +0.050 A 
ATOM     15  C   UNL     1       2.904  -3.116  27.563  0.00  0.00    +0.158 A 
ATOM     16  C   UNL     1       4.089  -2.726  28.174  0.00  0.00    +0.159 A 
ATOM     17  C   UNL     1       5.201  -2.393  27.403  0.00  0.00    +0.060 A 
BRANCH  15  18
ATOM     18  O   UNL     1       1.857  -3.561  28.318  0.00  0.00    -0.503 OA
ATOM     19  H   UNL     1       1.417  -4.233  27.759  0.00  0.00    +0.292 HD
ENDBRANCH  15  18
BRANCH  16  20
ATOM     20  O   UNL     1       4.131  -2.731  29.541  0.00  0.00    -0.503 OA
ATOM     21  H   UNL     1       5.021  -3.029  29.799  0.00  0.00    +0.292 HD
ENDBRANCH  16  20
ENDBRANCH   5  12
BRANCH  10  22
ATOM     22  O   UNL     1      10.552  -1.842  22.343  0.00  0.00    -0.506 OA
ATOM     23  H   UNL     1      10.966  -1.570  21.507  0.00  0.00    +0.292 HD
ENDBRANCH  10  22
BRANCH   1  24
ATOM     24  O   UNL     1       8.207   2.170  21.574  0.00  0.00    -0.461 OA
BRANCH  24  28
ATOM     25  C   UNL     1       9.095   4.820  24.888  0.00  0.00    +0.041 C 
ATOM     26  C   UNL     1       7.748   4.146  24.639  0.00  0.00    +0.150 C 
ATOM     27  O   UNL     1       7.907   3.023  23.753  0.00  0.00    -0.334 OA
ATOM     28  C   UNL     1       8.164   3.362  22.375  0.00  0.00    +0.339 C 
ATOM     29  C   UNL     1       6.992   4.212  21.835  0.00  0.00    +0.214 C 
ATOM     30  C   UNL     1       6.900   5.497  22.669  0.00  0.00    +0.180 C 
ATOM     31  C   UNL     1       6.682   5.149  24.153  0.00  0.00    +0.174 C 
BRANCH  29  32
ATOM     32  O   UNL     1       5.757   3.463  21.950  0.00  0.00    -0.383 OA
ATOM     33  H   UNL     1       6.017   2.542  22.147  0.00  0.00    +0.210 HD
ENDBRANCH  29  32
BRANCH  30  34
ATOM     34  O   UNL     1       5.883   6.365  22.162  0.00  0.00    -0.386 OA
ATOM     35  H   UNL     1       5.251   5.826  21.652  0.00  0.00    +0.210 HD
ENDBRANCH  30  34
BRANCH  31  36
ATOM     36  O   UNL     1       5.371   4.600  24.354  0.00  0.00    -0.387 OA
ATOM     37  H   UNL     1       4.733   5.236  23.962  0.00  0.00    +0.210 HD
ENDBRANCH  31  36
ENDBRANCH  24  28
ENDBRANCH   1  24
BRANCH   6  38
ATOM     38  O   UNL     1       7.482  -4.471  25.678  0.00  0.00    -0.453 OA
BRANCH  38  39
ATOM     39  C   UNL     1       6.549  -5.491  25.335  0.00  0.00    +0.340 C 
ATOM     40  O   UNL     1       5.427  -5.502  26.224  0.00  0.00    -0.333 OA
ATOM     41  C   UNL     1       4.665  -6.697  26.055  0.00  0.00    +0.163 C 
ATOM     42  C   UNL     1       3.596  -6.717  27.137  0.00  0.00    +0.042 C 
ATOM     43  C   UNL     1       4.084  -6.822  24.634  0.00  0.00    +0.236 C 
ATOM     44  C   UNL     1       5.134  -6.509  23.544  0.00  0.00    +0.192 C 
ATOM     45  C   UNL     1       5.980  -5.265  23.917  0.00  0.00    +0.215 C 
BRANCH  44  46
ATOM     46  O   UNL     1       4.437  -6.337  22.295  0.00  0.00    -0.385 OA
ATOM     47  H   UNL     1       4.396  -7.203  21.851  0.00  0.00    +0.210 HD
ENDBRANCH  44  46
BRANCH  45  48
ATOM     48  O   UNL     1       7.002  -5.073  22.929  0.00  0.00    -0.383 OA
ATOM     49  H   UNL     1       7.815  -4.844  23.421  0.00  0.00    +0.210 HD
ENDBRANCH  45  48
BRANCH  43  50
ATOM     50  O   UNL     1       3.415  -8.092  24.394  0.00  0.00    -0.456 OA
BRANCH  50  51
ATOM     51  C   UNL     1       2.121  -8.089  23.982  0.00  0.00    +0.304 C 
ATOM     52  C   UNL     1       1.310  -9.113  24.714  0.00  0.00    +0.136 C 
ATOM     53  O   UNL     1       1.667  -7.387  23.088  0.00  0.00    -0.251 OA
ENDBRANCH  50  51
ENDBRANCH  43  50
ENDBRANCH  38  39
ENDBRANCH   6  38
TORSDOF 15
ENDMDL
MODEL 7
REMARK VINA RESULT:      -7.3      2.462      4.675
REMARK  Name = 
REMARK  18 active torsions:
REMARK  status: ('A' for Active; 'I' for Inactive)
REMARK    1  A    between atoms: C_1  and  C_2
REMARK    2  A    between atoms: C_3  and  O_51
REMARK    3  A    between atoms: C_5  and  O_50
REMARK    4  A    between atoms: C_7  and  O_49
REMARK    5  A    between atoms: C_8  and  O_11
REMARK    6  A    between atoms: O_11  and  C_12
REMARK    7  A    between atoms: C_14  and  O_48
REMARK    8  A    between atoms: C_19  and  C_40
REMARK    9  A    between atoms: C_20  and  O_23
REMARK   10  A    between atoms: O_23  and  C_24
REMARK   11  A    between atoms: C_26  and  O_39
REMARK   12  A    between atoms: C_28  and  O_38
REMARK   13  A    between atoms: C_29  and  O_34
REMARK   14  A    between atoms: C_31  and  C_33
REMARK   15  A    between atoms: O_34  and  C_35
REMARK   16  A    between atoms: C_35  and  C_37
REMARK   17  A    between atoms: C_42  and  O_47
REMARK   18  A    between atoms: C_43  and  O_46
REMARK                            x       y       z     vdW  Elec       q    Type
REMARK                         _______ _______ _______ _____ _____    ______ ____
ROOT
ATOM      1  C   UNL     1       6.864   3.729  22.521  0.00  0.00    +0.131 A 
ATOM      2  C   UNL     1       6.480   2.405  22.341  0.00  0.00    +0.093 A 
ATOM      3  C   UNL     1       7.261   1.368  22.878  0.00  0.00    +0.147 A 
ATOM      4  O   UNL     1       6.805   0.104  22.642  0.00  0.00    -0.451 OA
ATOM      5  C   UNL     1       7.517  -0.998  23.096  0.00  0.00    +0.181 A 
ATOM      6  C   UNL     1       8.669  -0.917  23.817  0.00  0.00    +0.214 A 
ATOM      7  C   UNL     1       9.150   0.477  24.152  0.00  0.00    +0.238 A 
ATOM      8  O   UNL     1      10.114   0.617  24.893  0.00  0.00    -0.283 OA
ATOM      9  C   UNL     1       8.420   1.627  23.591  0.00  0.00    +0.109 A 
ATOM     10  C   UNL     1       8.817   2.962  23.748  0.00  0.00    +0.135 A 
ATOM     11  C   UNL     1       8.050   4.005  23.204  0.00  0.00    +0.092 A 
ENDROOT
BRANCH   5  12
ATOM     12  C   UNL     1       6.754  -2.202  22.715  0.00  0.00    +0.025 A 
ATOM     13  C   UNL     1       7.377  -3.189  21.928  0.00  0.00    +0.015 A 
ATOM     14  C   UNL     1       6.795  -4.456  21.786  0.00  0.00    +0.050 A 
ATOM     15  C   UNL     1       5.604  -4.736  22.438  0.00  0.00    +0.158 A 
ATOM     16  C   UNL     1       4.959  -3.757  23.184  0.00  0.00    +0.159 A 
ATOM     17  C   UNL     1       5.540  -2.501  23.348  0.00  0.00    +0.060 A 
BRANCH  15  18
ATOM     18  O   UNL     1       5.096  -6.001  22.382  0.00  0.00    -0.503 OA
ATOM     19  H   UNL     1       4.467  -5.983  21.633  0.00  0.00    +0.292 HD
ENDBRANCH  15  18
BRANCH  16  20
ATOM     20  O   UNL     1       3.774  -4.091  23.780  0.00  0.00    -0.503 OA
ATOM     21  H   UNL     1       3.490  -4.940  23.399  0.00  0.00    +0.292 HD
ENDBRANCH  16  20
ENDBRANCH   5  12
BRANCH  10  22
ATOM     22  O   UNL     1       9.958   3.288  24.421  0.00  0.00    -0.506 OA
ATOM     23  H   UNL     1      10.596   3.734  23.839  0.00  0.00    +0.292 HD
ENDBRANCH  10  22
BRANCH   1  24
ATOM     24  O   UNL     1       6.198   4.819  22.033  0.00  0.00    -0.461 OA
BRANCH  24  28
ATOM     25  C   UNL     1       4.947   6.435  25.856  0.00  0.00    +0.041 C 
ATOM     26  C   UNL     1       4.218   5.337  25.086  0.00  0.00    +0.150 C 
ATOM     27  O   UNL     1       5.098   4.737  24.119  0.00  0.00    -0.334 OA
ATOM     28  C   UNL     1       5.395   5.556  22.969  0.00  0.00    +0.339 C 
ATOM     29  C   UNL     1       4.077   5.903  22.240  0.00  0.00    +0.214 C 
ATOM     30  C   UNL     1       3.179   6.685  23.208  0.00  0.00    +0.180 C 
ATOM     31  C   UNL     1       2.900   5.843  24.467  0.00  0.00    +0.174 C 
BRANCH  29  32
ATOM     32  O   UNL     1       3.413   4.682  21.833  0.00  0.00    -0.383 OA
ATOM     33  H   UNL     1       2.468   4.910  21.726  0.00  0.00    +0.210 HD
ENDBRANCH  29  32
BRANCH  30  34
ATOM     34  O   UNL     1       1.975   7.108  22.562  0.00  0.00    -0.386 OA
ATOM     35  H   UNL     1       1.231   6.619  22.960  0.00  0.00    +0.210 HD
ENDBRANCH  30  34
BRANCH  31  36
ATOM     36  O   UNL     1       2.052   4.730  24.151  0.00  0.00    -0.387 OA
ATOM     37  H   UNL     1       2.635   3.944  24.060  0.00  0.00    +0.210 HD
ENDBRANCH  31  36
ENDBRANCH  24  28
ENDBRANCH   1  24
BRANCH   6  38
ATOM     38  O   UNL     1       9.450  -1.927  24.353  0.00  0.00    -0.453 OA
BRANCH  38  39
ATOM     39  C   UNL     1       8.910  -2.690  25.428  0.00  0.00    +0.340 C 
ATOM     40  O   UNL     1       7.524  -2.404  25.635  0.00  0.00    -0.333 OA
ATOM     41  C   UNL     1       7.081  -2.941  26.882  0.00  0.00    +0.163 C 
ATOM     42  C   UNL     1       5.657  -2.458  27.111  0.00  0.00    +0.042 C 
ATOM     43  C   UNL     1       7.212  -4.475  26.936  0.00  0.00    +0.236 C 
ATOM     44  C   UNL     1       8.584  -4.961  26.418  0.00  0.00    +0.192 C 
ATOM     45  C   UNL     1       9.004  -4.203  25.133  0.00  0.00    +0.215 C 
BRANCH  44  46
ATOM     46  O   UNL     1       8.498  -6.383  26.205  0.00  0.00    -0.385 OA
ATOM     47  H   UNL     1       8.378  -6.539  25.251  0.00  0.00    +0.210 HD
ENDBRANCH  44  46
BRANCH  45  48
ATOM     48  O   UNL     1      10.322  -4.617  24.747  0.00  0.00    -0.383 OA
ATOM     49  H   UNL     1      10.617  -3.982  24.063  0.00  0.00    +0.210 HD
ENDBRANCH  45  48
BRANCH  43  50
ATOM     50  O   UNL     1       6.895  -5.035  28.241  0.00  0.00    -0.456 OA
BRANCH  50  51
ATOM     51  C   UNL     1       5.968  -6.023  28.326  0.00  0.00    +0.304 C 
ATOM     52  C   UNL     1       5.265  -6.004  29.648  0.00  0.00    +0.136 C 
ATOM     53  O   UNL     1       5.757  -6.869  27.466  0.00  0.00    -0.251 OA
ENDBRANCH  50  51
ENDBRANCH  43  50
ENDBRANCH  38  39
ENDBRANCH   6  38
TORSDOF 15
ENDMDL
MODEL 8
REMARK VINA RESULT:      -7.3      2.224      4.095
REMARK  Name = 
REMARK  18 active torsions:
REMARK  status: ('A' for Active; 'I' for Inactive)
REMARK    1  A    between atoms: C_1  and  C_2
REMARK    2  A    between atoms: C_3  and  O_51
REMARK    3  A    between atoms: C_5  and  O_50
REMARK    4  A    between atoms: C_7  and  O_49
REMARK    5  A    between atoms: C_8  and  O_11
REMARK    6  A    between atoms: O_11  and  C_12
REMARK    7  A    between atoms: C_14  and  O_48
REMARK    8  A    between atoms: C_19  and  C_40
REMARK    9  A    between atoms: C_20  and  O_23
REMARK   10  A    between atoms: O_23  and  C_24
REMARK   11  A    between atoms: C_26  and  O_39
REMARK   12  A    between atoms: C_28  and  O_38
REMARK   13  A    between atoms: C_29  and  O_34
REMARK   14  A    between atoms: C_31  and  C_33
REMARK   15  A    between atoms: O_34  and  C_35
REMARK   16  A    between atoms: C_35  and  C_37
REMARK   17  A    between atoms: C_42  and  O_47
REMARK   18  A    between atoms: C_43  and  O_46
REMARK                            x       y       z     vdW  Elec       q    Type
REMARK                         _______ _______ _______ _____ _____    ______ ____
ROOT
ATOM      1  C   UNL     1       8.273   1.454  22.926  0.00  0.00    +0.131 A 
ATOM      2  C   UNL     1       7.449   0.353  22.725  0.00  0.00    +0.093 A 
ATOM      3  C   UNL     1       7.520  -0.746  23.598  0.00  0.00    +0.147 A 
ATOM      4  O   UNL     1       6.677  -1.779  23.314  0.00  0.00    -0.451 OA
ATOM      5  C   UNL     1       6.687  -2.931  24.089  0.00  0.00    +0.181 A 
ATOM      6  C   UNL     1       7.483  -3.109  25.179  0.00  0.00    +0.214 A 
ATOM      7  C   UNL     1       8.372  -1.943  25.553  0.00  0.00    +0.238 A 
ATOM      8  O   UNL     1       9.027  -1.996  26.587  0.00  0.00    -0.283 OA
ATOM      9  C   UNL     1       8.399  -0.766  24.668  0.00  0.00    +0.109 A 
ATOM     10  C   UNL     1       9.247   0.335  24.852  0.00  0.00    +0.135 A 
ATOM     11  C   UNL     1       9.193   1.433  23.977  0.00  0.00    +0.092 A 
ENDROOT
BRANCH   5  12
ATOM     12  C   UNL     1       5.650  -3.833  23.552  0.00  0.00    +0.025 A 
ATOM     13  C   UNL     1       6.042  -4.989  22.852  0.00  0.00    +0.015 A 
ATOM     14  C   UNL     1       5.114  -6.002  22.579  0.00  0.00    +0.050 A 
ATOM     15  C   UNL     1       3.806  -5.864  23.014  0.00  0.00    +0.158 A 
ATOM     16  C   UNL     1       3.397  -4.709  23.669  0.00  0.00    +0.159 A 
ATOM     17  C   UNL     1       4.317  -3.704  23.964  0.00  0.00    +0.060 A 
BRANCH  15  18
ATOM     18  O   UNL     1       2.932  -6.897  22.837  0.00  0.00    -0.503 OA
ATOM     19  H   UNL     1       2.288  -6.806  23.568  0.00  0.00    +0.292 HD
ENDBRANCH  15  18
BRANCH  16  20
ATOM     20  O   UNL     1       2.086  -4.624  24.048  0.00  0.00    -0.503 OA
ATOM     21  H   UNL     1       1.547  -4.704  23.241  0.00  0.00    +0.292 HD
ENDBRANCH  16  20
ENDBRANCH   5  12
BRANCH  10  22
ATOM     22  O   UNL     1      10.151   0.372  25.872  0.00  0.00    -0.506 OA
ATOM     23  H   UNL     1       9.932  -0.278  26.561  0.00  0.00    +0.292 HD
ENDBRANCH  10  22
BRANCH   1  24
ATOM     24  O   UNL     1       8.308   2.571  22.137  0.00  0.00    -0.461 OA
BRANCH  24  28
ATOM     25  C   UNL     1       8.404   5.540  25.294  0.00  0.00    +0.041 C 
ATOM     26  C   UNL     1       7.155   4.803  24.820  0.00  0.00    +0.150 C 
ATOM     27  O   UNL     1       7.520   3.609  24.103  0.00  0.00    -0.334 OA
ATOM     28  C   UNL     1       8.074   3.829  22.790  0.00  0.00    +0.339 C 
ATOM     29  C   UNL     1       7.041   4.588  21.925  0.00  0.00    +0.214 C 
ATOM     30  C   UNL     1       6.751   5.939  22.591  0.00  0.00    +0.180 C 
ATOM     31  C   UNL     1       6.212   5.721  24.017  0.00  0.00    +0.174 C 
BRANCH  29  32
ATOM     32  O   UNL     1       5.821   3.812  21.837  0.00  0.00    -0.383 OA
ATOM     33  H   UNL     1       5.251   4.120  22.570  0.00  0.00    +0.210 HD
ENDBRANCH  29  32
BRANCH  30  34
ATOM     34  O   UNL     1       5.862   6.724  21.791  0.00  0.00    -0.386 OA
ATOM     35  H   UNL     1       5.013   6.795  22.265  0.00  0.00    +0.210 HD
ENDBRANCH  30  34
BRANCH  31  36
ATOM     36  O   UNL     1       4.896   5.151  23.976  0.00  0.00    -0.387 OA
ATOM     37  H   UNL     1       4.501   5.406  23.113  0.00  0.00    +0.210 HD
ENDBRANCH  31  36
ENDBRANCH  24  28
ENDBRANCH   1  24
BRANCH   6  38
ATOM     38  O   UNL     1       7.566  -4.183  26.048  0.00  0.00    -0.453 OA
BRANCH  38  39
ATOM     39  C   UNL     1       6.672  -4.215  27.157  0.00  0.00    +0.340 C 
ATOM     40  O   UNL     1       5.378  -3.714  26.807  0.00  0.00    -0.333 OA
ATOM     41  C   UNL     1       4.598  -3.476  27.979  0.00  0.00    +0.163 C 
ATOM     42  C   UNL     1       3.310  -2.793  27.543  0.00  0.00    +0.042 C 
ATOM     43  C   UNL     1       4.351  -4.765  28.786  0.00  0.00    +0.236 C 
ATOM     44  C   UNL     1       5.641  -5.596  28.968  0.00  0.00    +0.192 C 
ATOM     45  C   UNL     1       6.459  -5.663  27.652  0.00  0.00    +0.215 C 
BRANCH  44  46
ATOM     46  O   UNL     1       5.263  -6.903  29.438  0.00  0.00    -0.385 OA
ATOM     47  H   UNL     1       4.321  -7.039  29.228  0.00  0.00    +0.210 HD
ENDBRANCH  44  46
BRANCH  45  48
ATOM     48  O   UNL     1       7.691  -6.357  27.895  0.00  0.00    -0.383 OA
ATOM     49  H   UNL     1       7.910  -6.201  28.834  0.00  0.00    +0.210 HD
ENDBRANCH  45  48
BRANCH  43  50
ATOM     50  O   UNL     1       3.674  -4.531  30.052  0.00  0.00    -0.456 OA
BRANCH  50  51
ATOM     51  C   UNL     1       2.503  -5.172  30.302  0.00  0.00    +0.304 C 
ATOM     52  C   UNL     1       1.376  -4.203  30.485  0.00  0.00    +0.136 C 
ATOM     53  O   UNL     1       2.374  -6.383  30.424  0.00  0.00    -0.251 OA
ENDBRANCH  50  51
ENDBRANCH  43  50
ENDBRANCH  38  39
ENDBRANCH   6  38
TORSDOF 15
ENDMDL
MODEL 9
REMARK VINA RESULT:      -7.2      2.765     10.834
REMARK  Name = 
REMARK  18 active torsions:
REMARK  status: ('A' for Active; 'I' for Inactive)
REMARK    1  A    between atoms: C_1  and  C_2
REMARK    2  A    between atoms: C_3  and  O_51
REMARK    3  A    between atoms: C_5  and  O_50
REMARK    4  A    between atoms: C_7  and  O_49
REMARK    5  A    between atoms: C_8  and  O_11
REMARK    6  A    between atoms: O_11  and  C_12
REMARK    7  A    between atoms: C_14  and  O_48
REMARK    8  A    between atoms: C_19  and  C_40
REMARK    9  A    between atoms: C_20  and  O_23
REMARK   10  A    between atoms: O_23  and  C_24
REMARK   11  A    between atoms: C_26  and  O_39
REMARK   12  A    between atoms: C_28  and  O_38
REMARK   13  A    between atoms: C_29  and  O_34
REMARK   14  A    between atoms: C_31  and  C_33
REMARK   15  A    between atoms: O_34  and  C_35
REMARK   16  A    between atoms: C_35  and  C_37
REMARK   17  A    between atoms: C_42  and  O_47
REMARK   18  A    between atoms: C_43  and  O_46
REMARK                            x       y       z     vdW  Elec       q    Type
REMARK                         _______ _______ _______ _____ _____    ______ ____
ROOT
ATOM      1  C   UNL     1       4.153  -1.792  28.223  0.00  0.00    +0.131 A 
ATOM      2  C   UNL     1       5.007  -1.417  27.192  0.00  0.00    +0.093 A 
ATOM      3  C   UNL     1       5.068  -0.073  26.784  0.00  0.00    +0.147 A 
ATOM      4  O   UNL     1       5.929   0.193  25.761  0.00  0.00    -0.451 OA
ATOM      5  C   UNL     1       6.044   1.480  25.254  0.00  0.00    +0.181 A 
ATOM      6  C   UNL     1       5.360   2.553  25.736  0.00  0.00    +0.214 A 
ATOM      7  C   UNL     1       4.455   2.290  26.920  0.00  0.00    +0.238 A 
ATOM      8  O   UNL     1       3.901   3.233  27.472  0.00  0.00    -0.283 OA
ATOM      9  C   UNL     1       4.291   0.903  27.387  0.00  0.00    +0.109 A 
ATOM     10  C   UNL     1       3.413   0.516  28.408  0.00  0.00    +0.135 A 
ATOM     11  C   UNL     1       3.336  -0.826  28.814  0.00  0.00    +0.092 A 
ENDROOT
BRANCH   5  12
ATOM     12  C   UNL     1       7.069   1.445  24.193  0.00  0.00    +0.025 A 
ATOM     13  C   UNL     1       6.721   1.845  22.889  0.00  0.00    +0.015 A 
ATOM     14  C   UNL     1       7.715   2.096  21.934  0.00  0.00    +0.050 A 
ATOM     15  C   UNL     1       9.048   1.960  22.286  0.00  0.00    +0.158 A 
ATOM     16  C   UNL     1       9.403   1.526  23.557  0.00  0.00    +0.159 A 
ATOM     17  C   UNL     1       8.423   1.294  24.521  0.00  0.00    +0.060 A 
BRANCH  15  18
ATOM     18  O   UNL     1      10.013   2.306  21.385  0.00  0.00    -0.503 OA
ATOM     19  H   UNL     1       9.525   2.724  20.647  0.00  0.00    +0.292 HD
ENDBRANCH  15  18
BRANCH  16  20
ATOM     20  O   UNL     1      10.736   1.387  23.832  0.00  0.00    -0.503 OA
ATOM     21  H   UNL     1      11.224   1.680  23.042  0.00  0.00    +0.292 HD
ENDBRANCH  16  20
ENDBRANCH   5  12
BRANCH  10  22
ATOM     22  O   UNL     1       2.606   1.422  29.030  0.00  0.00    -0.506 OA
ATOM     23  H   UNL     1       2.266   1.074  29.871  0.00  0.00    +0.292 HD
ENDBRANCH  10  22
BRANCH   1  24
ATOM     24  O   UNL     1       3.994  -3.066  28.694  0.00  0.00    -0.461 OA
BRANCH  24  28
ATOM     25  C   UNL     1       3.621  -6.152  25.672  0.00  0.00    +0.041 C 
ATOM     26  C   UNL     1       3.837  -6.403  27.161  0.00  0.00    +0.150 C 
ATOM     27  O   UNL     1       3.479  -5.236  27.923  0.00  0.00    -0.334 OA
ATOM     28  C   UNL     1       4.402  -4.131  27.821  0.00  0.00    +0.339 C 
ATOM     29  C   UNL     1       5.796  -4.589  28.306  0.00  0.00    +0.214 C 
ATOM     30  C   UNL     1       6.270  -5.738  27.406  0.00  0.00    +0.180 C 
ATOM     31  C   UNL     1       5.265  -6.903  27.462  0.00  0.00    +0.174 C 
BRANCH  29  32
ATOM     32  O   UNL     1       5.704  -5.047  29.678  0.00  0.00    -0.383 OA
ATOM     33  H   UNL     1       6.007  -5.977  29.673  0.00  0.00    +0.210 HD
ENDBRANCH  29  32
BRANCH  30  34
ATOM     34  O   UNL     1       7.595  -6.150  27.756  0.00  0.00    -0.386 OA
ATOM     35  H   UNL     1       7.538  -7.031  28.170  0.00  0.00    +0.210 HD
ENDBRANCH  30  34
BRANCH  31  36
ATOM     36  O   UNL     1       5.298  -7.536  28.749  0.00  0.00    -0.387 OA
ATOM     37  H   UNL     1       6.229  -7.805  28.910  0.00  0.00    +0.210 HD
ENDBRANCH  31  36
ENDBRANCH  24  28
ENDBRANCH   1  24
BRANCH   6  38
ATOM     38  O   UNL     1       5.407   3.881  25.347  0.00  0.00    -0.453 OA
BRANCH  38  39
ATOM     39  C   UNL     1       6.656   4.402  24.901  0.00  0.00    +0.340 C 
ATOM     40  O   UNL     1       6.488   5.318  23.815  0.00  0.00    -0.333 OA
ATOM     41  C   UNL     1       7.744   5.595  23.194  0.00  0.00    +0.163 C 
ATOM     42  C   UNL     1       7.469   6.436  21.956  0.00  0.00    +0.042 C 
ATOM     43  C   UNL     1       8.739   6.261  24.163  0.00  0.00    +0.236 C 
ATOM     44  C   UNL     1       8.785   5.548  25.534  0.00  0.00    +0.192 C 
ATOM     45  C   UNL     1       7.361   5.187  26.030  0.00  0.00    +0.215 C 
BRANCH  44  46
ATOM     46  O   UNL     1       9.479   6.409  26.457  0.00  0.00    -0.385 OA
ATOM     47  H   UNL     1       9.733   5.877  27.232  0.00  0.00    +0.210 HD
ENDBRANCH  44  46
BRANCH  45  48
ATOM     48  O   UNL     1       7.459   4.443  27.252  0.00  0.00    -0.383 OA
ATOM     49  H   UNL     1       6.588   4.521  27.688  0.00  0.00    +0.210 HD
ENDBRANCH  45  48
BRANCH  43  50
ATOM     50  O   UNL     1      10.069   6.432  23.597  0.00  0.00    -0.456 OA
BRANCH  50  51
ATOM     51  C   UNL     1      11.008   5.477  23.819  0.00  0.00    +0.304 C 
ATOM     52  C   UNL     1      12.285   6.071  24.326  0.00  0.00    +0.136 C 
ATOM     53  O   UNL     1      10.869   4.283  23.586  0.00  0.00    -0.251 OA
ENDBRANCH  50  51
ENDBRANCH  43  50
ENDBRANCH  38  39
ENDBRANCH   6  38
TORSDOF 15
ENDMDL
