MODEL 1
REMARK VINA RESULT:      -7.3      0.000      0.000
REMARK  Name = 
REMARK  11 active torsions:
REMARK  status: ('A' for Active; 'I' for Inactive)
REMARK    1  A    between atoms: C_3  and  O_34
REMARK    2  A    between atoms: C_4  and  O_33
REMARK    3  A    between atoms: C_6  and  C_7
REMARK    4  A    between atoms: C_8  and  O_20
REMARK    5  A    between atoms: C_12  and  O_19
REMARK    6  A    between atoms: C_14  and  O_18
REMARK    7  A    between atoms: O_20  and  C_21
REMARK    8  A    between atoms: C_22  and  O_32
REMARK    9  A    between atoms: C_24  and  O_31
REMARK   10  A    between atoms: C_26  and  C_29
REMARK   11  A    between atoms: C_29  and  O_30
REMARK                            x       y       z     vdW  Elec       q    Type
REMARK                         _______ _______ _______ _____ _____    ______ ____
ROOT
ATOM      1  C   UNL     1       8.434  -1.596  24.737  0.00  0.00    +0.181 A 
ATOM      2  O   UNL     1       8.330  -0.363  25.405  0.00  0.00    -0.451 OA
ATOM      3  C   UNL     1       8.426   0.818  24.724  0.00  0.00    +0.147 A 
ATOM      4  C   UNL     1       8.706   0.873  23.377  0.00  0.00    +0.109 A 
ATOM      5  C   UNL     1       8.825   2.106  22.713  0.00  0.00    +0.135 A 
ATOM      6  C   UNL     1       8.654   3.293  23.410  0.00  0.00    +0.091 A 
ATOM      7  C   UNL     1       8.358   3.233  24.766  0.00  0.00    +0.124 A 
ATOM      8  C   UNL     1       8.893  -0.380  22.671  0.00  0.00    +0.238 A 
ATOM      9  O   UNL     1       9.216  -0.269  21.487  0.00  0.00    -0.283 OA
ATOM     10  C   UNL     1       8.243   2.008  25.429  0.00  0.00    +0.092 A 
ATOM     11  C   UNL     1       8.709  -1.690  23.401  0.00  0.00    +0.214 A 
ENDROOT
BRANCH   1  13
ATOM     12  C   UNL     1       9.016  -3.809  25.921  0.00  0.00    +0.015 A 
ATOM     13  C   UNL     1       8.144  -2.728  25.701  0.00  0.00    +0.025 A 
ATOM     14  C   UNL     1       6.906  -2.778  26.396  0.00  0.00    +0.060 A 
ATOM     15  C   UNL     1       6.531  -3.887  27.147  0.00  0.00    +0.159 A 
ATOM     16  C   UNL     1       7.364  -4.991  27.228  0.00  0.00    +0.158 A 
ATOM     17  C   UNL     1       8.624  -4.945  26.658  0.00  0.00    +0.050 A 
BRANCH  15  18
ATOM     18  O   UNL     1       5.323  -3.905  27.783  0.00  0.00    -0.503 OA
ATOM     19  H   UNL     1       5.508  -3.556  28.678  0.00  0.00    +0.292 HD
ENDBRANCH  15  18
BRANCH  16  20
ATOM     20  O   UNL     1       6.895  -6.110  27.858  0.00  0.00    -0.503 OA
ATOM     21  H   UNL     1       7.656  -6.705  27.993  0.00  0.00    +0.292 HD
ENDBRANCH  16  20
ENDBRANCH   1  13
BRANCH   5  22
ATOM     22  O   UNL     1       9.110   2.219  21.383  0.00  0.00    -0.506 OA
ATOM     23  H   UNL     1       8.604   1.522  20.901  0.00  0.00    +0.292 HD
ENDBRANCH   5  22
BRANCH   7  24
ATOM     24  O   UNL     1       8.176   4.376  25.490  0.00  0.00    -0.507 OA
ATOM     25  H   UNL     1       7.751   4.145  26.333  0.00  0.00    +0.292 HD
ENDBRANCH   7  24
BRANCH  11  26
ATOM     26  O   UNL     1       8.803  -2.909  22.701  0.00  0.00    -0.453 OA
BRANCH  26  27
ATOM     27  C   UNL     1       7.548  -3.417  22.230  0.00  0.00    +0.340 C 
ATOM     28  O   UNL     1       6.439  -3.146  23.111  0.00  0.00    -0.331 OA
ATOM     29  C   UNL     1       5.325  -3.801  22.445  0.00  0.00    +0.179 C 
ATOM     30  C   UNL     1       5.942  -5.038  21.751  0.00  0.00    +0.180 C 
ATOM     31  C   UNL     1       7.432  -4.945  22.123  0.00  0.00    +0.214 C 
BRANCH  30  32
ATOM     32  O   UNL     1       5.801  -4.879  20.329  0.00  0.00    -0.386 OA
ATOM     33  H   UNL     1       4.849  -4.849  20.129  0.00  0.00    +0.210 HD
ENDBRANCH  30  32
BRANCH  31  34
ATOM     34  O   UNL     1       7.668  -5.631  23.357  0.00  0.00    -0.383 OA
ATOM     35  H   UNL     1       8.450  -5.226  23.773  0.00  0.00    +0.210 HD
ENDBRANCH  31  34
BRANCH  29  36
ATOM     36  C   UNL     1       4.206  -4.092  23.439  0.00  0.00    +0.190 C 
BRANCH  36  37
ATOM     37  O   UNL     1       3.259  -5.015  22.918  0.00  0.00    -0.392 OA
ATOM     38  H   UNL     1       2.409  -4.538  22.884  0.00  0.00    +0.210 HD
ENDBRANCH  36  37
ENDBRANCH  29  36
ENDBRANCH  26  27
ENDBRANCH  11  26
TORSDOF 11
ENDMDL
MODEL 2
REMARK VINA RESULT:      -7.2      2.464      7.406
REMARK  Name = 
REMARK  11 active torsions:
REMARK  status: ('A' for Active; 'I' for Inactive)
REMARK    1  A    between atoms: C_3  and  O_34
REMARK    2  A    between atoms: C_4  and  O_33
REMARK    3  A    between atoms: C_6  and  C_7
REMARK    4  A    between atoms: C_8  and  O_20
REMARK    5  A    between atoms: C_12  and  O_19
REMARK    6  A    between atoms: C_14  and  O_18
REMARK    7  A    between atoms: O_20  and  C_21
REMARK    8  A    between atoms: C_22  and  O_32
REMARK    9  A    between atoms: C_24  and  O_31
REMARK   10  A    between atoms: C_26  and  C_29
REMARK   11  A    between atoms: C_29  and  O_30
REMARK                            x       y       z     vdW  Elec       q    Type
REMARK                         _______ _______ _______ _____ _____    ______ ____
ROOT
ATOM      1  C   UNL     1       7.542  -1.260  24.082  0.00  0.00    +0.181 A 
ATOM      2  O   UNL     1       7.783  -2.489  23.441  0.00  0.00    -0.451 OA
ATOM      3  C   UNL     1       6.810  -3.444  23.357  0.00  0.00    +0.147 A 
ATOM      4  C   UNL     1       5.577  -3.296  23.955  0.00  0.00    +0.109 A 
ATOM      5  C   UNL     1       4.608  -4.309  23.871  0.00  0.00    +0.135 A 
ATOM      6  C   UNL     1       4.879  -5.479  23.177  0.00  0.00    +0.091 A 
ATOM      7  C   UNL     1       6.118  -5.618  22.564  0.00  0.00    +0.124 A 
ATOM      8  C   UNL     1       5.320  -2.070  24.686  0.00  0.00    +0.238 A 
ATOM      9  O   UNL     1       4.233  -2.025  25.263  0.00  0.00    -0.283 OA
ATOM     10  C   UNL     1       7.085  -4.613  22.648  0.00  0.00    +0.092 A 
ATOM     11  C   UNL     1       6.364  -0.978  24.715  0.00  0.00    +0.214 A 
ENDROOT
BRANCH   1  13
ATOM     12  C   UNL     1       9.731  -0.153  24.871  0.00  0.00    +0.015 A 
ATOM     13  C   UNL     1       8.733  -0.342  23.898  0.00  0.00    +0.025 A 
ATOM     14  C   UNL     1       8.859   0.441  22.720  0.00  0.00    +0.060 A 
ATOM     15  C   UNL     1       9.837   1.422  22.593  0.00  0.00    +0.159 A 
ATOM     16  C   UNL     1      10.718   1.670  23.632  0.00  0.00    +0.158 A 
ATOM     17  C   UNL     1      10.703   0.860  24.754  0.00  0.00    +0.050 A 
BRANCH  15  18
ATOM     18  O   UNL     1       9.912   2.168  21.451  0.00  0.00    -0.503 OA
ATOM     19  H   UNL     1       8.986   2.246  21.143  0.00  0.00    +0.292 HD
ENDBRANCH  15  18
BRANCH  16  20
ATOM     20  O   UNL     1      11.568   2.735  23.520  0.00  0.00    -0.503 OA
ATOM     21  H   UNL     1      11.018   3.532  23.405  0.00  0.00    +0.292 HD
ENDBRANCH  16  20
ENDBRANCH   1  13
BRANCH   5  22
ATOM     22  O   UNL     1       3.375  -4.220  24.452  0.00  0.00    -0.506 OA
ATOM     23  H   UNL     1       2.949  -5.108  24.403  0.00  0.00    +0.292 HD
ENDBRANCH   5  22
BRANCH   7  24
ATOM     24  O   UNL     1       6.426  -6.750  21.864  0.00  0.00    -0.507 OA
ATOM     25  H   UNL     1       7.162  -7.200  22.310  0.00  0.00    +0.292 HD
ENDBRANCH   7  24
BRANCH  11  26
ATOM     26  O   UNL     1       6.086   0.248  25.350  0.00  0.00    -0.453 OA
BRANCH  26  27
ATOM     27  C   UNL     1       5.516   1.243  24.489  0.00  0.00    +0.340 C 
ATOM     28  O   UNL     1       6.489   2.114  23.877  0.00  0.00    -0.331 OA
ATOM     29  C   UNL     1       5.666   3.042  23.118  0.00  0.00    +0.179 C 
ATOM     30  C   UNL     1       4.370   3.200  23.948  0.00  0.00    +0.180 C 
ATOM     31  C   UNL     1       4.614   2.288  25.162  0.00  0.00    +0.214 C 
BRANCH  30  32
ATOM     32  O   UNL     1       3.272   2.677  23.180  0.00  0.00    -0.386 OA
ATOM     33  H   UNL     1       2.892   1.933  23.678  0.00  0.00    +0.210 HD
ENDBRANCH  30  32
BRANCH  31  34
ATOM     34  O   UNL     1       5.263   3.028  26.202  0.00  0.00    -0.383 OA
ATOM     35  H   UNL     1       6.188   3.166  25.931  0.00  0.00    +0.210 HD
ENDBRANCH  31  34
BRANCH  29  36
ATOM     36  C   UNL     1       6.433   4.331  22.841  0.00  0.00    +0.190 C 
BRANCH  36  37
ATOM     37  O   UNL     1       7.641   4.087  22.132  0.00  0.00    -0.392 OA
ATOM     38  H   UNL     1       7.635   4.699  21.373  0.00  0.00    +0.210 HD
ENDBRANCH  36  37
ENDBRANCH  29  36
ENDBRANCH  26  27
ENDBRANCH  11  26
TORSDOF 11
ENDMDL
MODEL 3
REMARK VINA RESULT:      -7.2      2.170      7.559
REMARK  Name = 
REMARK  11 active torsions:
REMARK  status: ('A' for Active; 'I' for Inactive)
REMARK    1  A    between atoms: C_3  and  O_34
REMARK    2  A    between atoms: C_4  and  O_33
REMARK    3  A    between atoms: C_6  and  C_7
REMARK    4  A    between atoms: C_8  and  O_20
REMARK    5  A    between atoms: C_12  and  O_19
REMARK    6  A    between atoms: C_14  and  O_18
REMARK    7  A    between atoms: O_20  and  C_21
REMARK    8  A    between atoms: C_22  and  O_32
REMARK    9  A    between atoms: C_24  and  O_31
REMARK   10  A    between atoms: C_26  and  C_29
REMARK   11  A    between atoms: C_29  and  O_30
REMARK                            x       y       z     vdW  Elec       q    Type
REMARK                         _______ _______ _______ _____ _____    ______ ____
ROOT
ATOM      1  C   UNL     1       8.470  -1.731  24.317  0.00  0.00    +0.181 A 
ATOM      2  O   UNL     1       8.171  -2.568  23.228  0.00  0.00    -0.451 OA
ATOM      3  C   UNL     1       7.370  -3.665  23.380  0.00  0.00    +0.147 A 
ATOM      4  C   UNL     1       6.878  -4.055  24.606  0.00  0.00    +0.109 A 
ATOM      5  C   UNL     1       6.078  -5.203  24.731  0.00  0.00    +0.135 A 
ATOM      6  C   UNL     1       5.766  -5.962  23.613  0.00  0.00    +0.091 A 
ATOM      7  C   UNL     1       6.252  -5.557  22.376  0.00  0.00    +0.124 A 
ATOM      8  C   UNL     1       7.227  -3.254  25.764  0.00  0.00    +0.238 A 
ATOM      9  O   UNL     1       6.824  -3.692  26.842  0.00  0.00    -0.283 OA
ATOM     10  C   UNL     1       7.051  -4.417  22.249  0.00  0.00    +0.092 A 
ATOM     11  C   UNL     1       8.047  -1.997  25.590  0.00  0.00    +0.214 A 
ENDROOT
BRANCH   1  13
ATOM     12  C   UNL     1      10.350   0.019  24.523  0.00  0.00    +0.015 A 
ATOM     13  C   UNL     1       9.248  -0.522  23.837  0.00  0.00    +0.025 A 
ATOM     14  C   UNL     1       8.839   0.176  22.670  0.00  0.00    +0.060 A 
ATOM     15  C   UNL     1       9.415   1.387  22.301  0.00  0.00    +0.159 A 
ATOM     16  C   UNL     1      10.409   1.955  23.080  0.00  0.00    +0.158 A 
ATOM     17  C   UNL     1      10.914   1.260  24.165  0.00  0.00    +0.050 A 
BRANCH  15  18
ATOM     18  O   UNL     1       8.979   2.038  21.182  0.00  0.00    -0.503 OA
ATOM     19  H   UNL     1       9.707   2.650  20.951  0.00  0.00    +0.292 HD
ENDBRANCH  15  18
BRANCH  16  20
ATOM     20  O   UNL     1      10.846   3.210  22.758  0.00  0.00    -0.503 OA
ATOM     21  H   UNL     1      11.348   3.546  23.523  0.00  0.00    +0.292 HD
ENDBRANCH  16  20
ENDBRANCH   1  13
BRANCH   5  22
ATOM     22  O   UNL     1       5.572  -5.640  25.922  0.00  0.00    -0.506 OA
ATOM     23  H   UNL     1       4.638  -5.920  25.773  0.00  0.00    +0.292 HD
ENDBRANCH   5  22
BRANCH   7  24
ATOM     24  O   UNL     1       5.965  -6.269  21.248  0.00  0.00    -0.507 OA
ATOM     25  H   UNL     1       6.531  -7.059  21.226  0.00  0.00    +0.292 HD
ENDBRANCH   7  24
BRANCH  11  26
ATOM     26  O   UNL     1       8.315  -1.169  26.697  0.00  0.00    -0.453 OA
BRANCH  26  27
ATOM     27  C   UNL     1       7.306  -0.184  26.956  0.00  0.00    +0.340 C 
ATOM     28  O   UNL     1       7.582   1.105  26.372  0.00  0.00    -0.331 OA
ATOM     29  C   UNL     1       6.461   1.915  26.821  0.00  0.00    +0.179 C 
ATOM     30  C   UNL     1       6.100   1.361  28.220  0.00  0.00    +0.180 C 
ATOM     31  C   UNL     1       7.120   0.227  28.425  0.00  0.00    +0.214 C 
BRANCH  30  32
ATOM     32  O   UNL     1       4.778   0.799  28.159  0.00  0.00    -0.386 OA
ATOM     33  H   UNL     1       4.841  -0.134  28.427  0.00  0.00    +0.210 HD
ENDBRANCH  30  32
BRANCH  31  34
ATOM     34  O   UNL     1       8.306   0.745  29.035  0.00  0.00    -0.383 OA
ATOM     35  H   UNL     1       8.764   0.002  29.465  0.00  0.00    +0.210 HD
ENDBRANCH  31  34
BRANCH  29  36
ATOM     36  C   UNL     1       6.820   3.396  26.770  0.00  0.00    +0.190 C 
BRANCH  36  37
ATOM     37  O   UNL     1       7.583   3.797  27.901  0.00  0.00    -0.392 OA
ATOM     38  H   UNL     1       7.007   3.661  28.675  0.00  0.00    +0.210 HD
ENDBRANCH  36  37
ENDBRANCH  29  36
ENDBRANCH  26  27
ENDBRANCH  11  26
TORSDOF 11
ENDMDL
MODEL 4
REMARK VINA RESULT:      -7.2      2.249      6.797
REMARK  Name = 
REMARK  11 active torsions:
REMARK  status: ('A' for Active; 'I' for Inactive)
REMARK    1  A    between atoms: C_3  and  O_34
REMARK    2  A    between atoms: C_4  and  O_33
REMARK    3  A    between atoms: C_6  and  C_7
REMARK    4  A    between atoms: C_8  and  O_20
REMARK    5  A    between atoms: C_12  and  O_19
REMARK    6  A    between atoms: C_14  and  O_18
REMARK    7  A    between atoms: O_20  and  C_21
REMARK    8  A    between atoms: C_22  and  O_32
REMARK    9  A    between atoms: C_24  and  O_31
REMARK   10  A    between atoms: C_26  and  C_29
REMARK   11  A    between atoms: C_29  and  O_30
REMARK                            x       y       z     vdW  Elec       q    Type
REMARK                         _______ _______ _______ _____ _____    ______ ____
ROOT
ATOM      1  C   UNL     1       5.833  -2.062  24.722  0.00  0.00    +0.181 A 
ATOM      2  O   UNL     1       5.284  -3.120  25.467  0.00  0.00    -0.451 OA
ATOM      3  C   UNL     1       5.047  -4.338  24.894  0.00  0.00    +0.147 A 
ATOM      4  C   UNL     1       5.257  -4.577  23.554  0.00  0.00    +0.109 A 
ATOM      5  C   UNL     1       4.978  -5.834  22.992  0.00  0.00    +0.135 A 
ATOM      6  C   UNL     1       4.490  -6.861  23.786  0.00  0.00    +0.091 A 
ATOM      7  C   UNL     1       4.294  -6.620  25.140  0.00  0.00    +0.124 A 
ATOM      8  C   UNL     1       5.755  -3.485  22.740  0.00  0.00    +0.238 A 
ATOM      9  O   UNL     1       5.850  -3.732  21.537  0.00  0.00    -0.283 OA
ATOM     10  C   UNL     1       4.567  -5.370  25.701  0.00  0.00    +0.092 A 
ATOM     11  C   UNL     1       6.092  -2.160  23.383  0.00  0.00    +0.214 A 
ENDROOT
BRANCH   1  13
ATOM     12  C   UNL     1       5.445   0.341  25.565  0.00  0.00    +0.015 A 
ATOM     13  C   UNL     1       6.124  -0.888  25.634  0.00  0.00    +0.025 A 
ATOM     14  C   UNL     1       7.177  -0.963  26.585  0.00  0.00    +0.060 A 
ATOM     15  C   UNL     1       7.589   0.149  27.311  0.00  0.00    +0.159 A 
ATOM     16  C   UNL     1       6.980   1.378  27.115  0.00  0.00    +0.158 A 
ATOM     17  C   UNL     1       5.881   1.475  26.280  0.00  0.00    +0.050 A 
BRANCH  15  18
ATOM     18  O   UNL     1       8.619   0.041  28.202  0.00  0.00    -0.503 OA
ATOM     19  H   UNL     1       9.037  -0.820  27.995  0.00  0.00    +0.292 HD
ENDBRANCH  15  18
BRANCH  16  20
ATOM     20  O   UNL     1       7.509   2.470  27.745  0.00  0.00    -0.503 OA
ATOM     21  H   UNL     1       7.893   2.160  28.587  0.00  0.00    +0.292 HD
ENDBRANCH  16  20
ENDBRANCH   1  13
BRANCH   5  22
ATOM     22  O   UNL     1       5.157  -6.122  21.669  0.00  0.00    -0.506 OA
ATOM     23  H   UNL     1       4.367  -6.622  21.356  0.00  0.00    +0.292 HD
ENDBRANCH   5  22
BRANCH   7  24
ATOM     24  O   UNL     1       3.822  -7.604  25.961  0.00  0.00    -0.507 OA
ATOM     25  H   UNL     1       3.886  -7.298  26.881  0.00  0.00    +0.292 HD
ENDBRANCH   7  24
BRANCH  11  26
ATOM     26  O   UNL     1       6.659  -1.124  22.613  0.00  0.00    -0.453 OA
BRANCH  26  27
ATOM     27  C   UNL     1       7.848  -0.554  23.175  0.00  0.00    +0.340 C 
ATOM     28  O   UNL     1       8.043   0.836  22.844  0.00  0.00    -0.331 OA
ATOM     29  C   UNL     1       9.316   1.147  23.475  0.00  0.00    +0.179 C 
ATOM     30  C   UNL     1      10.136  -0.162  23.390  0.00  0.00    +0.180 C 
ATOM     31  C   UNL     1       9.180  -1.134  22.676  0.00  0.00    +0.214 C 
BRANCH  30  32
ATOM     32  O   UNL     1      10.376  -0.635  24.727  0.00  0.00    -0.386 OA
ATOM     33  H   UNL     1      10.044  -1.549  24.780  0.00  0.00    +0.210 HD
ENDBRANCH  30  32
BRANCH  31  34
ATOM     34  O   UNL     1       9.358  -1.036  21.260  0.00  0.00    -0.383 OA
ATOM     35  H   UNL     1      10.297  -1.208  21.069  0.00  0.00    +0.210 HD
ENDBRANCH  31  34
BRANCH  29  36
ATOM     36  C   UNL     1       9.952   2.367  22.818  0.00  0.00    +0.190 C 
BRANCH  36  37
ATOM     37  O   UNL     1      10.115   2.192  21.417  0.00  0.00    -0.392 OA
ATOM     38  H   UNL     1      10.442   3.045  21.076  0.00  0.00    +0.210 HD
ENDBRANCH  36  37
ENDBRANCH  29  36
ENDBRANCH  26  27
ENDBRANCH  11  26
TORSDOF 11
ENDMDL
MODEL 5
REMARK VINA RESULT:      -7.1      2.103      7.356
REMARK  Name = 
REMARK  11 active torsions:
REMARK  status: ('A' for Active; 'I' for Inactive)
REMARK    1  A    between atoms: C_3  and  O_34
REMARK    2  A    between atoms: C_4  and  O_33
REMARK    3  A    between atoms: C_6  and  C_7
REMARK    4  A    between atoms: C_8  and  O_20
REMARK    5  A    between atoms: C_12  and  O_19
REMARK    6  A    between atoms: C_14  and  O_18
REMARK    7  A    between atoms: O_20  and  C_21
REMARK    8  A    between atoms: C_22  and  O_32
REMARK    9  A    between atoms: C_24  and  O_31
REMARK   10  A    between atoms: C_26  and  C_29
REMARK   11  A    between atoms: C_29  and  O_30
REMARK                            x       y       z     vdW  Elec       q    Type
REMARK                         _______ _______ _______ _____ _____    ______ ____
ROOT
ATOM      1  C   UNL     1       7.444  -2.817  23.792  0.00  0.00    +0.181 A 
ATOM      2  O   UNL     1       6.488  -3.553  23.071  0.00  0.00    -0.451 OA
ATOM      3  C   UNL     1       5.811  -4.590  23.649  0.00  0.00    +0.147 A 
ATOM      4  C   UNL     1       6.078  -5.022  24.930  0.00  0.00    +0.109 A 
ATOM      5  C   UNL     1       5.383  -6.109  25.485  0.00  0.00    +0.135 A 
ATOM      6  C   UNL     1       4.407  -6.764  24.748  0.00  0.00    +0.091 A 
ATOM      7  C   UNL     1       4.131  -6.316  23.463  0.00  0.00    +0.124 A 
ATOM      8  C   UNL     1       7.111  -4.331  25.678  0.00  0.00    +0.238 A 
ATOM      9  O   UNL     1       7.360  -4.807  26.786  0.00  0.00    -0.283 OA
ATOM     10  C   UNL     1       4.824  -5.237  22.907  0.00  0.00    +0.092 A 
ATOM     11  C   UNL     1       7.806  -3.134  25.072  0.00  0.00    +0.214 A 
ENDROOT
BRANCH   1  13
ATOM     12  C   UNL     1       9.167  -1.609  22.305  0.00  0.00    +0.015 A 
ATOM     13  C   UNL     1       7.923  -1.644  22.962  0.00  0.00    +0.025 A 
ATOM     14  C   UNL     1       7.137  -0.466  22.864  0.00  0.00    +0.060 A 
ATOM     15  C   UNL     1       7.620   0.691  22.263  0.00  0.00    +0.159 A 
ATOM     16  C   UNL     1       8.905   0.725  21.746  0.00  0.00    +0.158 A 
ATOM     17  C   UNL     1       9.668  -0.429  21.722  0.00  0.00    +0.050 A 
BRANCH  15  18
ATOM     18  O   UNL     1       6.840   1.810  22.207  0.00  0.00    -0.503 OA
ATOM     19  H   UNL     1       7.474   2.556  22.200  0.00  0.00    +0.292 HD
ENDBRANCH  15  18
BRANCH  16  20
ATOM     20  O   UNL     1       9.388   1.922  21.293  0.00  0.00    -0.503 OA
ATOM     21  H   UNL     1       9.247   1.944  20.328  0.00  0.00    +0.292 HD
ENDBRANCH  16  20
ENDBRANCH   1  13
BRANCH   5  22
ATOM     22  O   UNL     1       5.613  -6.584  26.745  0.00  0.00    -0.506 OA
ATOM     23  H   UNL     1       6.584  -6.727  26.844  0.00  0.00    +0.292 HD
ENDBRANCH   5  22
BRANCH   7  24
ATOM     24  O   UNL     1       3.174  -6.926  22.703  0.00  0.00    -0.507 OA
ATOM     25  H   UNL     1       3.142  -6.489  21.836  0.00  0.00    +0.292 HD
ENDBRANCH   7  24
BRANCH  11  26
ATOM     26  O   UNL     1       8.747  -2.406  25.826  0.00  0.00    -0.453 OA
BRANCH  26  27
ATOM     27  C   UNL     1       8.173  -1.424  26.698  0.00  0.00    +0.340 C 
ATOM     28  O   UNL     1       6.847  -1.006  26.316  0.00  0.00    -0.331 OA
ATOM     29  C   UNL     1       6.525   0.009  27.306  0.00  0.00    +0.179 C 
ATOM     30  C   UNL     1       7.875   0.690  27.636  0.00  0.00    +0.180 C 
ATOM     31  C   UNL     1       8.877  -0.060  26.741  0.00  0.00    +0.214 C 
BRANCH  30  32
ATOM     32  O   UNL     1       8.189   0.430  29.015  0.00  0.00    -0.386 OA
ATOM     33  H   UNL     1       8.626  -0.438  29.059  0.00  0.00    +0.210 HD
ENDBRANCH  30  32
BRANCH  31  34
ATOM     34  O   UNL     1       8.966   0.585  25.466  0.00  0.00    -0.383 OA
ATOM     35  H   UNL     1       9.274   1.496  25.619  0.00  0.00    +0.210 HD
ENDBRANCH  31  34
BRANCH  29  36
ATOM     36  C   UNL     1       5.430   0.934  26.785  0.00  0.00    +0.190 C 
BRANCH  36  37
ATOM     37  O   UNL     1       4.748   0.374  25.670  0.00  0.00    -0.392 OA
ATOM     38  H   UNL     1       4.293  -0.420  26.005  0.00  0.00    +0.210 HD
ENDBRANCH  36  37
ENDBRANCH  29  36
ENDBRANCH  26  27
ENDBRANCH  11  26
TORSDOF 11
ENDMDL
MODEL 6
REMARK VINA RESULT:      -7.0      2.630      4.400
REMARK  Name = 
REMARK  11 active torsions:
REMARK  status: ('A' for Active; 'I' for Inactive)
REMARK    1  A    between atoms: C_3  and  O_34
REMARK    2  A    between atoms: C_4  and  O_33
REMARK    3  A    between atoms: C_6  and  C_7
REMARK    4  A    between atoms: C_8  and  O_20
REMARK    5  A    between atoms: C_12  and  O_19
REMARK    6  A    between atoms: C_14  and  O_18
REMARK    7  A    between atoms: O_20  and  C_21
REMARK    8  A    between atoms: C_22  and  O_32
REMARK    9  A    between atoms: C_24  and  O_31
REMARK   10  A    between atoms: C_26  and  C_29
REMARK   11  A    between atoms: C_29  and  O_30
REMARK                            x       y       z     vdW  Elec       q    Type
REMARK                         _______ _______ _______ _____ _____    ______ ____
ROOT
ATOM      1  C   UNL     1       7.651  -0.627  26.223  0.00  0.00    +0.181 A 
ATOM      2  O   UNL     1       7.784   0.473  25.357  0.00  0.00    -0.451 OA
ATOM      3  C   UNL     1       8.455   0.362  24.172  0.00  0.00    +0.147 A 
ATOM      4  C   UNL     1       9.101  -0.795  23.795  0.00  0.00    +0.109 A 
ATOM      5  C   UNL     1       9.805  -0.867  22.582  0.00  0.00    +0.135 A 
ATOM      6  C   UNL     1       9.855   0.232  21.737  0.00  0.00    +0.091 A 
ATOM      7  C   UNL     1       9.191   1.392  22.114  0.00  0.00    +0.124 A 
ATOM      8  C   UNL     1       9.047  -1.928  24.699  0.00  0.00    +0.238 A 
ATOM      9  O   UNL     1       9.704  -2.908  24.348  0.00  0.00    -0.283 OA
ATOM     10  C   UNL     1       8.492   1.468  23.322  0.00  0.00    +0.092 A 
ATOM     11  C   UNL     1       8.240  -1.836  25.973  0.00  0.00    +0.214 A 
ENDROOT
BRANCH   1  13
ATOM     12  C   UNL     1       5.443  -0.776  27.541  0.00  0.00    +0.015 A 
ATOM     13  C   UNL     1       6.743  -0.264  27.379  0.00  0.00    +0.025 A 
ATOM     14  C   UNL     1       7.157   0.691  28.344  0.00  0.00    +0.060 A 
ATOM     15  C   UNL     1       6.288   1.180  29.313  0.00  0.00    +0.159 A 
ATOM     16  C   UNL     1       4.972   0.748  29.354  0.00  0.00    +0.158 A 
ATOM     17  C   UNL     1       4.553  -0.260  28.503  0.00  0.00    +0.050 A 
BRANCH  15  18
ATOM     18  O   UNL     1       6.720   2.114  30.211  0.00  0.00    -0.503 OA
ATOM     19  H   UNL     1       5.901   2.527  30.554  0.00  0.00    +0.292 HD
ENDBRANCH  15  18
BRANCH  16  20
ATOM     20  O   UNL     1       4.118   1.358  30.230  0.00  0.00    -0.503 OA
ATOM     21  H   UNL     1       4.618   1.526  31.050  0.00  0.00    +0.292 HD
ENDBRANCH  16  20
ENDBRANCH   1  13
BRANCH   5  22
ATOM     22  O   UNL     1      10.470  -1.984  22.164  0.00  0.00    -0.506 OA
ATOM     23  H   UNL     1      10.007  -2.335  21.367  0.00  0.00    +0.292 HD
ENDBRANCH   5  22
BRANCH   7  24
ATOM     24  O   UNL     1       9.207   2.497  21.312  0.00  0.00    -0.507 OA
ATOM     25  H   UNL     1       8.291   2.748  21.110  0.00  0.00    +0.292 HD
ENDBRANCH   7  24
BRANCH  11  26
ATOM     26  O   UNL     1       8.111  -2.961  26.811  0.00  0.00    -0.453 OA
BRANCH  26  27
ATOM     27  C   UNL     1       7.040  -3.845  26.454  0.00  0.00    +0.340 C 
ATOM     28  O   UNL     1       6.227  -4.261  27.569  0.00  0.00    -0.331 OA
ATOM     29  C   UNL     1       5.275  -5.174  26.957  0.00  0.00    +0.179 C 
ATOM     30  C   UNL     1       6.053  -5.856  25.807  0.00  0.00    +0.180 C 
ATOM     31  C   UNL     1       7.450  -5.217  25.898  0.00  0.00    +0.214 C 
BRANCH  30  32
ATOM     32  O   UNL     1       5.444  -5.479  24.560  0.00  0.00    -0.386 OA
ATOM     33  H   UNL     1       4.617  -5.985  24.472  0.00  0.00    +0.210 HD
ENDBRANCH  30  32
BRANCH  31  34
ATOM     34  O   UNL     1       8.274  -5.978  26.787  0.00  0.00    -0.383 OA
ATOM     35  H   UNL     1       9.194  -5.892  26.481  0.00  0.00    +0.210 HD
ENDBRANCH  31  34
BRANCH  29  36
ATOM     36  C   UNL     1       4.688  -6.113  28.005  0.00  0.00    +0.190 C 
BRANCH  36  37
ATOM     37  O   UNL     1       5.286  -7.402  27.957  0.00  0.00    -0.392 OA
ATOM     38  H   UNL     1       5.785  -7.497  28.790  0.00  0.00    +0.210 HD
ENDBRANCH  36  37
ENDBRANCH  29  36
ENDBRANCH  26  27
ENDBRANCH  11  26
TORSDOF 11
ENDMDL
MODEL 7
REMARK VINA RESULT:      -6.9      2.697      4.199
REMARK  Name = 
REMARK  11 active torsions:
REMARK  status: ('A' for Active; 'I' for Inactive)
REMARK    1  A    between atoms: C_3  and  O_34
REMARK    2  A    between atoms: C_4  and  O_33
REMARK    3  A    between atoms: C_6  and  C_7
REMARK    4  A    between atoms: C_8  and  O_20
REMARK    5  A    between atoms: C_12  and  O_19
REMARK    6  A    between atoms: C_14  and  O_18
REMARK    7  A    between atoms: O_20  and  C_21
REMARK    8  A    between atoms: C_22  and  O_32
REMARK    9  A    between atoms: C_24  and  O_31
REMARK   10  A    between atoms: C_26  and  C_29
REMARK   11  A    between atoms: C_29  and  O_30
REMARK                            x       y       z     vdW  Elec       q    Type
REMARK                         _______ _______ _______ _____ _____    ______ ____
ROOT
ATOM      1  C   UNL     1       6.759  -0.175  25.376  0.00  0.00    +0.181 A 
ATOM      2  O   UNL     1       7.630   0.924  25.276  0.00  0.00    -0.451 OA
ATOM      3  C   UNL     1       8.427   1.095  24.179  0.00  0.00    +0.147 A 
ATOM      4  C   UNL     1       8.484   0.173  23.157  0.00  0.00    +0.109 A 
ATOM      5  C   UNL     1       9.335   0.366  22.057  0.00  0.00    +0.135 A 
ATOM      6  C   UNL     1      10.132   1.499  21.981  0.00  0.00    +0.091 A 
ATOM      7  C   UNL     1      10.061   2.433  23.007  0.00  0.00    +0.124 A 
ATOM      8  C   UNL     1       7.652  -1.011  23.263  0.00  0.00    +0.238 A 
ATOM      9  O   UNL     1       7.800  -1.836  22.361  0.00  0.00    -0.283 OA
ATOM     10  C   UNL     1       9.218   2.242  24.104  0.00  0.00    +0.092 A 
ATOM     11  C   UNL     1       6.710  -1.166  24.434  0.00  0.00    +0.214 A 
ENDROOT
BRANCH   1  13
ATOM     12  C   UNL     1       4.510  -0.277  26.629  0.00  0.00    +0.015 A 
ATOM     13  C   UNL     1       5.895  -0.036  26.613  0.00  0.00    +0.025 A 
ATOM     14  C   UNL     1       6.459   0.424  27.833  0.00  0.00    +0.060 A 
ATOM     15  C   UNL     1       5.670   0.735  28.935  0.00  0.00    +0.159 A 
ATOM     16  C   UNL     1       4.292   0.610  28.865  0.00  0.00    +0.158 A 
ATOM     17  C   UNL     1       3.707   0.065  27.735  0.00  0.00    +0.050 A 
BRANCH  15  18
ATOM     18  O   UNL     1       6.249   1.194  30.083  0.00  0.00    -0.503 OA
ATOM     19  H   UNL     1       6.988   0.576  30.253  0.00  0.00    +0.292 HD
ENDBRANCH  15  18
BRANCH  16  20
ATOM     20  O   UNL     1       3.548   1.060  29.920  0.00  0.00    -0.503 OA
ATOM     21  H   UNL     1       4.078   1.737  30.379  0.00  0.00    +0.292 HD
ENDBRANCH  16  20
ENDBRANCH   1  13
BRANCH   5  22
ATOM     22  O   UNL     1       9.439  -0.519  21.022  0.00  0.00    -0.506 OA
ATOM     23  H   UNL     1       8.970  -0.135  20.244  0.00  0.00    +0.292 HD
ENDBRANCH   5  22
BRANCH   7  24
ATOM     24  O   UNL     1      10.822   3.566  22.971  0.00  0.00    -0.507 OA
ATOM     25  H   UNL     1      10.234   4.332  22.872  0.00  0.00    +0.292 HD
ENDBRANCH   7  24
BRANCH  11  26
ATOM     26  O   UNL     1       5.837  -2.269  24.498  0.00  0.00    -0.453 OA
BRANCH  26  27
ATOM     27  C   UNL     1       6.350  -3.387  25.235  0.00  0.00    +0.340 C 
ATOM     28  O   UNL     1       7.708  -3.215  25.688  0.00  0.00    -0.331 OA
ATOM     29  C   UNL     1       7.998  -4.481  26.342  0.00  0.00    +0.179 C 
ATOM     30  C   UNL     1       7.196  -5.537  25.545  0.00  0.00    +0.180 C 
ATOM     31  C   UNL     1       6.496  -4.703  24.458  0.00  0.00    +0.214 C 
BRANCH  30  32
ATOM     32  O   UNL     1       6.202  -6.105  26.415  0.00  0.00    -0.386 OA
ATOM     33  H   UNL     1       6.122  -5.523  27.191  0.00  0.00    +0.210 HD
ENDBRANCH  30  32
BRANCH  31  34
ATOM     34  O   UNL     1       7.338  -4.604  23.305  0.00  0.00    -0.383 OA
ATOM     35  H   UNL     1       8.090  -4.032  23.539  0.00  0.00    +0.210 HD
ENDBRANCH  31  34
BRANCH  29  36
ATOM     36  C   UNL     1       9.503  -4.712  26.414  0.00  0.00    +0.190 C 
BRANCH  36  37
ATOM     37  O   UNL     1       9.913  -5.803  25.600  0.00  0.00    -0.392 OA
ATOM     38  H   UNL     1      10.060  -5.434  24.710  0.00  0.00    +0.210 HD
ENDBRANCH  36  37
ENDBRANCH  29  36
ENDBRANCH  26  27
ENDBRANCH  11  26
TORSDOF 11
ENDMDL
MODEL 8
REMARK VINA RESULT:      -6.8      2.055      3.568
REMARK  Name = 
REMARK  11 active torsions:
REMARK  status: ('A' for Active; 'I' for Inactive)
REMARK    1  A    between atoms: C_3  and  O_34
REMARK    2  A    between atoms: C_4  and  O_33
REMARK    3  A    between atoms: C_6  and  C_7
REMARK    4  A    between atoms: C_8  and  O_20
REMARK    5  A    between atoms: C_12  and  O_19
REMARK    6  A    between atoms: C_14  and  O_18
REMARK    7  A    between atoms: O_20  and  C_21
REMARK    8  A    between atoms: C_22  and  O_32
REMARK    9  A    between atoms: C_24  and  O_31
REMARK   10  A    between atoms: C_26  and  C_29
REMARK   11  A    between atoms: C_29  and  O_30
REMARK                            x       y       z     vdW  Elec       q    Type
REMARK                         _______ _______ _______ _____ _____    ______ ____
ROOT
ATOM      1  C   UNL     1       6.451  -0.750  25.446  0.00  0.00    +0.181 A 
ATOM      2  O   UNL     1       5.979   0.290  24.626  0.00  0.00    -0.451 OA
ATOM      3  C   UNL     1       6.842   1.168  24.032  0.00  0.00    +0.147 A 
ATOM      4  C   UNL     1       8.200   1.136  24.260  0.00  0.00    +0.109 A 
ATOM      5  C   UNL     1       9.056   2.070  23.654  0.00  0.00    +0.135 A 
ATOM      6  C   UNL     1       8.543   3.041  22.806  0.00  0.00    +0.091 A 
ATOM      7  C   UNL     1       7.175   3.061  22.568  0.00  0.00    +0.124 A 
ATOM      8  C   UNL     1       8.714   0.121  25.159  0.00  0.00    +0.238 A 
ATOM      9  O   UNL     1       9.923   0.187  25.386  0.00  0.00    -0.283 OA
ATOM     10  C   UNL     1       6.320   2.135  23.172  0.00  0.00    +0.092 A 
ATOM     11  C   UNL     1       7.774  -0.901  25.756  0.00  0.00    +0.214 A 
ENDROOT
BRANCH   1  13
ATOM     12  C   UNL     1       4.718  -1.650  27.126  0.00  0.00    +0.015 A 
ATOM     13  C   UNL     1       5.301  -1.651  25.846  0.00  0.00    +0.025 A 
ATOM     14  C   UNL     1       4.791  -2.612  24.933  0.00  0.00    +0.060 A 
ATOM     15  C   UNL     1       3.863  -3.572  25.321  0.00  0.00    +0.159 A 
ATOM     16  C   UNL     1       3.413  -3.621  26.630  0.00  0.00    +0.158 A 
ATOM     17  C   UNL     1       3.799  -2.640  27.527  0.00  0.00    +0.050 A 
BRANCH  15  18
ATOM     18  O   UNL     1       3.413  -4.492  24.417  0.00  0.00    -0.503 OA
ATOM     19  H   UNL     1       2.438  -4.405  24.438  0.00  0.00    +0.292 HD
ENDBRANCH  15  18
BRANCH  16  20
ATOM     20  O   UNL     1       2.612  -4.665  27.000  0.00  0.00    -0.503 OA
ATOM     21  H   UNL     1       2.035  -4.346  27.718  0.00  0.00    +0.292 HD
ENDBRANCH  16  20
ENDBRANCH   1  13
BRANCH   5  22
ATOM     22  O   UNL     1      10.407   2.091  23.852  0.00  0.00    -0.506 OA
ATOM     23  H   UNL     1      10.689   1.189  24.135  0.00  0.00    +0.292 HD
ENDBRANCH   5  22
BRANCH   7  24
ATOM     24  O   UNL     1       6.626   3.994  21.736  0.00  0.00    -0.507 OA
ATOM     25  H   UNL     1       7.129   4.820  21.822  0.00  0.00    +0.292 HD
ENDBRANCH   7  24
BRANCH  11  26
ATOM     26  O   UNL     1       8.279  -1.942  26.560  0.00  0.00    -0.453 OA
BRANCH  26  27
ATOM     27  C   UNL     1       8.684  -3.108  25.830  0.00  0.00    +0.340 C 
ATOM     28  O   UNL     1       7.938  -3.328  24.617  0.00  0.00    -0.331 OA
ATOM     29  C   UNL     1       8.494  -4.572  24.111  0.00  0.00    +0.179 C 
ATOM     30  C   UNL     1       8.868  -5.387  25.373  0.00  0.00    +0.180 C 
ATOM     31  C   UNL     1       8.457  -4.457  26.528  0.00  0.00    +0.214 C 
BRANCH  30  32
ATOM     32  O   UNL     1      10.295  -5.562  25.393  0.00  0.00    -0.386 OA
ATOM     33  H   UNL     1      10.560  -5.927  24.531  0.00  0.00    +0.210 HD
ENDBRANCH  30  32
BRANCH  31  34
ATOM     34  O   UNL     1       7.093  -4.701  26.885  0.00  0.00    -0.383 OA
ATOM     35  H   UNL     1       7.079  -4.983  27.817  0.00  0.00    +0.210 HD
ENDBRANCH  31  34
BRANCH  29  36
ATOM     36  C   UNL     1       7.512  -5.246  23.158  0.00  0.00    +0.190 C 
BRANCH  36  37
ATOM     37  O   UNL     1       6.309  -5.624  23.814  0.00  0.00    -0.392 OA
ATOM     38  H   UNL     1       6.558  -6.315  24.455  0.00  0.00    +0.210 HD
ENDBRANCH  36  37
ENDBRANCH  29  36
ENDBRANCH  26  27
ENDBRANCH  11  26
TORSDOF 11
ENDMDL
MODEL 9
REMARK VINA RESULT:      -6.8      1.746      4.401
REMARK  Name = 
REMARK  11 active torsions:
REMARK  status: ('A' for Active; 'I' for Inactive)
REMARK    1  A    between atoms: C_3  and  O_34
REMARK    2  A    between atoms: C_4  and  O_33
REMARK    3  A    between atoms: C_6  and  C_7
REMARK    4  A    between atoms: C_8  and  O_20
REMARK    5  A    between atoms: C_12  and  O_19
REMARK    6  A    between atoms: C_14  and  O_18
REMARK    7  A    between atoms: O_20  and  C_21
REMARK    8  A    between atoms: C_22  and  O_32
REMARK    9  A    between atoms: C_24  and  O_31
REMARK   10  A    between atoms: C_26  and  C_29
REMARK   11  A    between atoms: C_29  and  O_30
REMARK                            x       y       z     vdW  Elec       q    Type
REMARK                         _______ _______ _______ _____ _____    ______ ____
ROOT
ATOM      1  C   UNL     1       6.992  -1.444  23.593  0.00  0.00    +0.181 A 
ATOM      2  O   UNL     1       7.936  -0.681  22.883  0.00  0.00    -0.451 OA
ATOM      3  C   UNL     1       8.378   0.520  23.364  0.00  0.00    +0.147 A 
ATOM      4  C   UNL     1       7.874   1.084  24.515  0.00  0.00    +0.109 A 
ATOM      5  C   UNL     1       8.332   2.333  24.967  0.00  0.00    +0.135 A 
ATOM      6  C   UNL     1       9.308   3.018  24.258  0.00  0.00    +0.091 A 
ATOM      7  C   UNL     1       9.823   2.438  23.105  0.00  0.00    +0.124 A 
ATOM      8  C   UNL     1       6.845   0.358  25.233  0.00  0.00    +0.238 A 
ATOM      9  O   UNL     1       6.377   0.944  26.211  0.00  0.00    -0.283 OA
ATOM     10  C   UNL     1       9.368   1.197  22.652  0.00  0.00    +0.092 A 
ATOM     11  C   UNL     1       6.410  -1.006  24.750  0.00  0.00    +0.214 A 
ENDROOT
BRANCH   1  13
ATOM     12  C   UNL     1       5.690  -3.093  22.102  0.00  0.00    +0.015 A 
ATOM     13  C   UNL     1       6.797  -2.783  22.912  0.00  0.00    +0.025 A 
ATOM     14  C   UNL     1       7.724  -3.838  23.126  0.00  0.00    +0.060 A 
ATOM     15  C   UNL     1       7.486  -5.128  22.665  0.00  0.00    +0.159 A 
ATOM     16  C   UNL     1       6.316  -5.423  21.985  0.00  0.00    +0.158 A 
ATOM     17  C   UNL     1       5.435  -4.407  21.660  0.00  0.00    +0.050 A 
BRANCH  15  18
ATOM     18  O   UNL     1       8.394  -6.119  22.909  0.00  0.00    -0.503 OA
ATOM     19  H   UNL     1       9.265  -5.706  22.743  0.00  0.00    +0.292 HD
ENDBRANCH  15  18
BRANCH  16  20
ATOM     20  O   UNL     1       6.060  -6.730  21.676  0.00  0.00    -0.503 OA
ATOM     21  H   UNL     1       6.775  -7.033  21.086  0.00  0.00    +0.292 HD
ENDBRANCH  16  20
ENDBRANCH   1  13
BRANCH   5  22
ATOM     22  O   UNL     1       7.861   2.943  26.094  0.00  0.00    -0.506 OA
ATOM     23  H   UNL     1       7.057   2.455  26.393  0.00  0.00    +0.292 HD
ENDBRANCH   5  22
BRANCH   7  24
ATOM     24  O   UNL     1      10.790   3.072  22.379  0.00  0.00    -0.507 OA
ATOM     25  H   UNL     1      11.457   2.418  22.113  0.00  0.00    +0.292 HD
ENDBRANCH   7  24
BRANCH  11  26
ATOM     26  O   UNL     1       5.475  -1.754  25.492  0.00  0.00    -0.453 OA
BRANCH  26  27
ATOM     27  C   UNL     1       5.951  -3.037  25.920  0.00  0.00    +0.340 C 
ATOM     28  O   UNL     1       5.105  -4.137  25.524  0.00  0.00    -0.331 OA
ATOM     29  C   UNL     1       5.767  -5.288  26.117  0.00  0.00    +0.179 C 
ATOM     30  C   UNL     1       6.397  -4.759  27.428  0.00  0.00    +0.180 C 
ATOM     31  C   UNL     1       5.998  -3.273  27.437  0.00  0.00    +0.214 C 
BRANCH  30  32
ATOM     32  O   UNL     1       7.827  -4.862  27.319  0.00  0.00    -0.386 OA
ATOM     33  H   UNL     1       8.023  -5.487  26.599  0.00  0.00    +0.210 HD
ENDBRANCH  30  32
BRANCH  31  34
ATOM     34  O   UNL     1       4.732  -3.114  28.086  0.00  0.00    -0.383 OA
ATOM     35  H   UNL     1       4.178  -2.552  27.516  0.00  0.00    +0.210 HD
ENDBRANCH  31  34
BRANCH  29  36
ATOM     36  C   UNL     1       4.785  -6.444  26.276  0.00  0.00    +0.190 C 
BRANCH  36  37
ATOM     37  O   UNL     1       5.167  -7.324  27.325  0.00  0.00    -0.392 OA
ATOM     38  H   UNL     1       4.340  -7.593  27.764  0.00  0.00    +0.210 HD
ENDBRANCH  36  37
ENDBRANCH  29  36
ENDBRANCH  26  27
ENDBRANCH  11  26
TORSDOF 11
ENDMDL
