MODEL 1
REMARK VINA RESULT:      -7.8      0.000      0.000
REMARK  Name = 
REMARK  16 active torsions:
REMARK  status: ('A' for Active; 'I' for Inactive)
REMARK    1  A    between atoms: C_3  and  O_42
REMARK    2  A    between atoms: C_4  and  O_41
REMARK    3  A    between atoms: C_6  and  C_7
REMARK    4  A    between atoms: C_8  and  O_20
REMARK    5  A    between atoms: C_12  and  O_19
REMARK    6  A    between atoms: C_14  and  O_18
REMARK    7  A    between atoms: O_20  and  C_21
REMARK    8  A    between atoms: C_23  and  O_40
REMARK    9  A    between atoms: C_24  and  O_39
REMARK   10  A    between atoms: C_25  and  O_38
REMARK   11  A    between atoms: C_27  and  C_30
REMARK   12  A    between atoms: C_30  and  O_31
REMARK   13  A    between atoms: O_31  and  C_32
REMARK   14  A    between atoms: C_32  and  C_34
REMARK   15  A    between atoms: C_34  and  C_35
REMARK   16  A    between atoms: C_35  and  O_37
REMARK                            x       y       z     vdW  Elec       q    Type
REMARK                         _______ _______ _______ _____ _____    ______ ____
ROOT
ATOM      1  C   UNL     1       6.769  -0.927  25.058  0.00  0.00    +0.181 A 
ATOM      2  O   UNL     1       7.533   0.242  25.031  0.00  0.00    -0.451 OA
ATOM      3  C   UNL     1       8.349   0.530  23.976  0.00  0.00    +0.147 A 
ATOM      4  C   UNL     1       8.511  -0.332  22.906  0.00  0.00    +0.109 A 
ATOM      5  C   UNL     1       9.352   0.058  21.846  0.00  0.00    +0.135 A 
ATOM      6  C   UNL     1      10.019   1.285  21.864  0.00  0.00    +0.091 A 
ATOM      7  C   UNL     1       9.850   2.126  22.960  0.00  0.00    +0.124 A 
ATOM      8  C   UNL     1       7.795  -1.620  22.949  0.00  0.00    +0.238 A 
ATOM      9  O   UNL     1       7.988  -2.437  22.053  0.00  0.00    -0.283 OA
ATOM     10  C   UNL     1       9.021   1.756  24.015  0.00  0.00    +0.092 A 
ATOM     11  C   UNL     1       6.832  -1.874  24.084  0.00  0.00    +0.214 A 
ENDROOT
BRANCH   1  13
ATOM     12  C   UNL     1       5.703  -1.936  27.161  0.00  0.00    +0.015 A 
ATOM     13  C   UNL     1       5.830  -0.898  26.231  0.00  0.00    +0.025 A 
ATOM     14  C   UNL     1       4.909   0.164  26.348  0.00  0.00    +0.060 A 
ATOM     15  C   UNL     1       3.810   0.060  27.193  0.00  0.00    +0.159 A 
ATOM     16  C   UNL     1       3.590  -1.096  27.924  0.00  0.00    +0.158 A 
ATOM     17  C   UNL     1       4.559  -2.082  27.955  0.00  0.00    +0.050 A 
BRANCH  16  18
ATOM     18  O   UNL     1       2.404  -1.225  28.586  0.00  0.00    -0.503 OA
ATOM     19  H   UNL     1       1.706  -0.869  28.006  0.00  0.00    +0.292 HD
ENDBRANCH  16  18
BRANCH  15  20
ATOM     20  O   UNL     1       2.912   1.086  27.250  0.00  0.00    -0.503 OA
ATOM     21  H   UNL     1       3.037   1.569  26.409  0.00  0.00    +0.292 HD
ENDBRANCH  15  20
ENDBRANCH   1  13
BRANCH   7  22
ATOM     22  O   UNL     1      10.483   3.330  23.041  0.00  0.00    -0.507 OA
ATOM     23  H   UNL     1      10.890   3.538  22.182  0.00  0.00    +0.292 HD
ENDBRANCH   7  22
BRANCH   5  24
ATOM     24  O   UNL     1       9.558  -0.717  20.735  0.00  0.00    -0.506 OA
ATOM     25  H   UNL     1       8.907  -0.452  20.049  0.00  0.00    +0.292 HD
ENDBRANCH   5  24
BRANCH  11  26
ATOM     26  O   UNL     1       6.253  -3.137  24.140  0.00  0.00    -0.453 OA
BRANCH  26  27
ATOM     27  C   UNL     1       4.950  -3.368  23.564  0.00  0.00    +0.340 C 
ATOM     28  O   UNL     1       4.075  -4.022  24.505  0.00  0.00    -0.330 OA
ATOM     29  C   UNL     1       4.431  -5.367  24.909  0.00  0.00    +0.191 C 
ATOM     30  C   UNL     1       4.945  -6.285  23.772  0.00  0.00    +0.178 C 
ATOM     31  C   UNL     1       5.689  -5.545  22.652  0.00  0.00    +0.180 C 
ATOM     32  C   UNL     1       4.971  -4.240  22.307  0.00  0.00    +0.214 C 
BRANCH  32  33
ATOM     33  O   UNL     1       5.602  -3.607  21.189  0.00  0.00    -0.383 OA
ATOM     34  H   UNL     1       6.245  -4.234  20.818  0.00  0.00    +0.210 HD
ENDBRANCH  32  33
BRANCH  31  35
ATOM     35  O   UNL     1       5.733  -6.392  21.486  0.00  0.00    -0.386 OA
ATOM     36  H   UNL     1       5.134  -7.138  21.697  0.00  0.00    +0.210 HD
ENDBRANCH  31  35
BRANCH  30  37
ATOM     37  O   UNL     1       3.807  -6.929  23.155  0.00  0.00    -0.386 OA
ATOM     38  H   UNL     1       4.209  -7.618  22.581  0.00  0.00    +0.210 HD
ENDBRANCH  30  37
BRANCH  29  39
ATOM     39  C   UNL     1       5.368  -5.295  26.124  0.00  0.00    +0.266 C 
BRANCH  39  40
ATOM     40  O   UNL     1       6.723  -5.685  25.841  0.00  0.00    -0.462 OA
BRANCH  40  41
ATOM     41  C   UNL     1       7.629  -5.488  26.843  0.00  0.00    +0.318 C 
ATOM     42  O   UNL     1       7.568  -6.017  27.948  0.00  0.00    -0.250 OA
BRANCH  41  43
ATOM     43  C   UNL     1       8.599  -4.403  26.496  0.00  0.00    +0.240 C 
BRANCH  43  44
ATOM     44  C   UNL     1       9.481  -4.703  25.327  0.00  0.00    +0.316 C 
ATOM     45  O   UNL     1       9.849  -3.902  24.485  0.00  0.00    -0.250 OA
BRANCH  44  46
ATOM     46  O   UNL     1       9.815  -6.017  25.258  0.00  0.00    -0.480 OA
ATOM     47  H   UNL     1      10.161  -6.313  24.399  0.00  0.00    +0.295 HD
ENDBRANCH  44  46
ENDBRANCH  43  44
ENDBRANCH  41  43
ENDBRANCH  40  41
ENDBRANCH  39  40
ENDBRANCH  29  39
ENDBRANCH  26  27
ENDBRANCH  11  26
TORSDOF 16
ENDMDL
MODEL 2
REMARK VINA RESULT:      -6.9      1.559      5.176
REMARK  Name = 
REMARK  16 active torsions:
REMARK  status: ('A' for Active; 'I' for Inactive)
REMARK    1  A    between atoms: C_3  and  O_42
REMARK    2  A    between atoms: C_4  and  O_41
REMARK    3  A    between atoms: C_6  and  C_7
REMARK    4  A    between atoms: C_8  and  O_20
REMARK    5  A    between atoms: C_12  and  O_19
REMARK    6  A    between atoms: C_14  and  O_18
REMARK    7  A    between atoms: O_20  and  C_21
REMARK    8  A    between atoms: C_23  and  O_40
REMARK    9  A    between atoms: C_24  and  O_39
REMARK   10  A    between atoms: C_25  and  O_38
REMARK   11  A    between atoms: C_27  and  C_30
REMARK   12  A    between atoms: C_30  and  O_31
REMARK   13  A    between atoms: O_31  and  C_32
REMARK   14  A    between atoms: C_32  and  C_34
REMARK   15  A    between atoms: C_34  and  C_35
REMARK   16  A    between atoms: C_35  and  O_37
REMARK                            x       y       z     vdW  Elec       q    Type
REMARK                         _______ _______ _______ _____ _____    ______ ____
ROOT
ATOM      1  C   UNL     1       6.472  -0.587  25.771  0.00  0.00    +0.181 A 
ATOM      2  O   UNL     1       6.273   0.556  26.548  0.00  0.00    -0.451 OA
ATOM      3  C   UNL     1       5.568   0.505  27.715  0.00  0.00    +0.147 A 
ATOM      4  C   UNL     1       4.967  -0.656  28.169  0.00  0.00    +0.109 A 
ATOM      5  C   UNL     1       4.282  -0.625  29.399  0.00  0.00    +0.135 A 
ATOM      6  C   UNL     1       4.199   0.547  30.153  0.00  0.00    +0.091 A 
ATOM      7  C   UNL     1       4.799   1.704  29.665  0.00  0.00    +0.124 A 
ATOM      8  C   UNL     1       5.074  -1.858  27.324  0.00  0.00    +0.238 A 
ATOM      9  O   UNL     1       4.479  -2.878  27.663  0.00  0.00    -0.283 OA
ATOM     10  C   UNL     1       5.482   1.690  28.453  0.00  0.00    +0.092 A 
ATOM     11  C   UNL     1       5.933  -1.796  26.083  0.00  0.00    +0.214 A 
ENDROOT
BRANCH   1  13
ATOM     12  C   UNL     1       7.226   0.701  23.685  0.00  0.00    +0.015 A 
ATOM     13  C   UNL     1       7.432  -0.288  24.655  0.00  0.00    +0.025 A 
ATOM     14  C   UNL     1       8.549  -1.128  24.464  0.00  0.00    +0.060 A 
ATOM     15  C   UNL     1       9.255  -1.110  23.267  0.00  0.00    +0.159 A 
ATOM     16  C   UNL     1       8.865  -0.276  22.231  0.00  0.00    +0.158 A 
ATOM     17  C   UNL     1       7.882   0.671  22.448  0.00  0.00    +0.050 A 
BRANCH  16  18
ATOM     18  O   UNL     1       9.465  -0.432  21.016  0.00  0.00    -0.503 OA
ATOM     19  H   UNL     1      10.411  -0.228  21.130  0.00  0.00    +0.292 HD
ENDBRANCH  16  18
BRANCH  15  20
ATOM     20  O   UNL     1      10.302  -1.967  23.096  0.00  0.00    -0.503 OA
ATOM     21  H   UNL     1      10.983  -1.651  23.723  0.00  0.00    +0.292 HD
ENDBRANCH  15  20
ENDBRANCH   1  13
BRANCH   7  22
ATOM     22  O   UNL     1       4.742   2.881  30.349  0.00  0.00    -0.507 OA
ATOM     23  H   UNL     1       5.540   2.974  30.899  0.00  0.00    +0.292 HD
ENDBRANCH   7  22
BRANCH   5  24
ATOM     24  O   UNL     1       3.675  -1.728  29.941  0.00  0.00    -0.506 OA
ATOM     25  H   UNL     1       2.955  -2.012  29.337  0.00  0.00    +0.292 HD
ENDBRANCH   5  24
BRANCH  11  26
ATOM     26  O   UNL     1       5.928  -2.921  25.264  0.00  0.00    -0.453 OA
BRANCH  26  27
ATOM     27  C   UNL     1       4.847  -3.140  24.334  0.00  0.00    +0.340 C 
ATOM     28  O   UNL     1       4.067  -4.294  24.709  0.00  0.00    -0.330 OA
ATOM     29  C   UNL     1       4.730  -5.580  24.657  0.00  0.00    +0.191 C 
ATOM     30  C   UNL     1       5.648  -5.803  23.429  0.00  0.00    +0.178 C 
ATOM     31  C   UNL     1       6.307  -4.525  22.895  0.00  0.00    +0.180 C 
ATOM     32  C   UNL     1       5.303  -3.370  22.893  0.00  0.00    +0.214 C 
BRANCH  32  33
ATOM     33  O   UNL     1       5.885  -2.209  22.291  0.00  0.00    -0.383 OA
ATOM     34  H   UNL     1       6.733  -2.473  21.895  0.00  0.00    +0.210 HD
ENDBRANCH  32  33
BRANCH  31  35
ATOM     35  O   UNL     1       6.764  -4.766  21.549  0.00  0.00    -0.386 OA
ATOM     36  H   UNL     1       6.200  -5.497  21.222  0.00  0.00    +0.210 HD
ENDBRANCH  31  35
BRANCH  30  37
ATOM     37  O   UNL     1       4.848  -6.337  22.351  0.00  0.00    -0.386 OA
ATOM     38  H   UNL     1       5.203  -5.891  21.550  0.00  0.00    +0.210 HD
ENDBRANCH  30  37
BRANCH  29  39
ATOM     39  C   UNL     1       5.416  -5.847  26.005  0.00  0.00    +0.266 C 
BRANCH  39  40
ATOM     40  O   UNL     1       6.846  -5.969  25.919  0.00  0.00    -0.462 OA
BRANCH  40  41
ATOM     41  C   UNL     1       7.553  -5.548  27.008  0.00  0.00    +0.318 C 
ATOM     42  O   UNL     1       7.253  -5.799  28.171  0.00  0.00    -0.250 OA
BRANCH  41  43
ATOM     43  C   UNL     1       8.631  -4.586  26.619  0.00  0.00    +0.240 C 
BRANCH  43  44
ATOM     44  C   UNL     1       9.462  -5.015  25.452  0.00  0.00    +0.316 C 
ATOM     45  O   UNL     1       9.768  -4.318  24.499  0.00  0.00    -0.250 OA
BRANCH  44  46
ATOM     46  O   UNL     1       9.822  -6.321  25.530  0.00  0.00    -0.480 OA
ATOM     47  H   UNL     1       9.135  -6.923  25.862  0.00  0.00    +0.295 HD
ENDBRANCH  44  46
ENDBRANCH  43  44
ENDBRANCH  41  43
ENDBRANCH  40  41
ENDBRANCH  39  40
ENDBRANCH  29  39
ENDBRANCH  26  27
ENDBRANCH  11  26
TORSDOF 16
ENDMDL
MODEL 3
REMARK VINA RESULT:      -6.7      1.530      2.518
REMARK  Name = 
REMARK  16 active torsions:
REMARK  status: ('A' for Active; 'I' for Inactive)
REMARK    1  A    between atoms: C_3  and  O_42
REMARK    2  A    between atoms: C_4  and  O_41
REMARK    3  A    between atoms: C_6  and  C_7
REMARK    4  A    between atoms: C_8  and  O_20
REMARK    5  A    between atoms: C_12  and  O_19
REMARK    6  A    between atoms: C_14  and  O_18
REMARK    7  A    between atoms: O_20  and  C_21
REMARK    8  A    between atoms: C_23  and  O_40
REMARK    9  A    between atoms: C_24  and  O_39
REMARK   10  A    between atoms: C_25  and  O_38
REMARK   11  A    between atoms: C_27  and  C_30
REMARK   12  A    between atoms: C_30  and  O_31
REMARK   13  A    between atoms: O_31  and  C_32
REMARK   14  A    between atoms: C_32  and  C_34
REMARK   15  A    between atoms: C_34  and  C_35
REMARK   16  A    between atoms: C_35  and  O_37
REMARK                            x       y       z     vdW  Elec       q    Type
REMARK                         _______ _______ _______ _____ _____    ______ ____
ROOT
ATOM      1  C   UNL     1       6.677  -0.943  25.184  0.00  0.00    +0.181 A 
ATOM      2  O   UNL     1       7.408   0.244  25.104  0.00  0.00    -0.451 OA
ATOM      3  C   UNL     1       8.248   0.488  24.057  0.00  0.00    +0.147 A 
ATOM      4  C   UNL     1       8.467  -0.435  23.050  0.00  0.00    +0.109 A 
ATOM      5  C   UNL     1       9.330  -0.088  21.992  0.00  0.00    +0.135 A 
ATOM      6  C   UNL     1       9.961   1.157  21.950  0.00  0.00    +0.091 A 
ATOM      7  C   UNL     1       9.735   2.060  22.985  0.00  0.00    +0.124 A 
ATOM      8  C   UNL     1       7.786  -1.738  23.155  0.00  0.00    +0.238 A 
ATOM      9  O   UNL     1       8.029  -2.604  22.319  0.00  0.00    -0.283 OA
ATOM     10  C   UNL     1       8.884   1.734  24.036  0.00  0.00    +0.092 A 
ATOM     11  C   UNL     1       6.796  -1.947  24.275  0.00  0.00    +0.214 A 
ENDROOT
BRANCH   1  13
ATOM     12  C   UNL     1       5.536  -1.873  27.285  0.00  0.00    +0.015 A 
ATOM     13  C   UNL     1       5.701  -0.868  26.324  0.00  0.00    +0.025 A 
ATOM     14  C   UNL     1       4.786   0.204  26.377  0.00  0.00    +0.060 A 
ATOM     15  C   UNL     1       3.660   0.137  27.189  0.00  0.00    +0.159 A 
ATOM     16  C   UNL     1       3.407  -0.992  27.952  0.00  0.00    +0.158 A 
ATOM     17  C   UNL     1       4.366  -1.983  28.046  0.00  0.00    +0.050 A 
BRANCH  16  18
ATOM     18  O   UNL     1       2.199  -1.090  28.579  0.00  0.00    -0.503 OA
ATOM     19  H   UNL     1       2.114  -0.319  29.170  0.00  0.00    +0.292 HD
ENDBRANCH  16  18
BRANCH  15  20
ATOM     20  O   UNL     1       2.770   1.171  27.184  0.00  0.00    -0.503 OA
ATOM     21  H   UNL     1       1.991   0.822  26.705  0.00  0.00    +0.292 HD
ENDBRANCH  15  20
ENDBRANCH   1  13
BRANCH   7  22
ATOM     22  O   UNL     1      10.331   3.285  23.006  0.00  0.00    -0.507 OA
ATOM     23  H   UNL     1      10.658   3.470  23.903  0.00  0.00    +0.292 HD
ENDBRANCH   7  22
BRANCH   5  24
ATOM     24  O   UNL     1       9.591  -0.926  20.940  0.00  0.00    -0.506 OA
ATOM     25  H   UNL     1      10.421  -1.413  21.132  0.00  0.00    +0.292 HD
ENDBRANCH   5  24
BRANCH  11  26
ATOM     26  O   UNL     1       6.250  -3.222  24.395  0.00  0.00    -0.453 OA
BRANCH  26  27
ATOM     27  C   UNL     1       4.914  -3.490  23.922  0.00  0.00    +0.340 C 
ATOM     28  O   UNL     1       4.149  -4.212  24.909  0.00  0.00    -0.330 OA
ATOM     29  C   UNL     1       4.593  -5.552  25.232  0.00  0.00    +0.191 C 
ATOM     30  C   UNL     1       5.045  -6.410  24.024  0.00  0.00    +0.178 C 
ATOM     31  C   UNL     1       5.661  -5.602  22.873  0.00  0.00    +0.180 C 
ATOM     32  C   UNL     1       4.864  -4.318  22.637  0.00  0.00    +0.214 C 
BRANCH  32  33
ATOM     33  O   UNL     1       5.371  -3.623  21.494  0.00  0.00    -0.383 OA
ATOM     34  H   UNL     1       4.966  -4.017  20.703  0.00  0.00    +0.210 HD
ENDBRANCH  32  33
BRANCH  31  35
ATOM     35  O   UNL     1       5.640  -6.407  21.678  0.00  0.00    -0.386 OA
ATOM     36  H   UNL     1       5.451  -5.774  20.954  0.00  0.00    +0.210 HD
ENDBRANCH  31  35
BRANCH  30  37
ATOM     37  O   UNL     1       3.887  -7.083  23.481  0.00  0.00    -0.386 OA
ATOM     38  H   UNL     1       3.249  -6.354  23.311  0.00  0.00    +0.210 HD
ENDBRANCH  30  37
BRANCH  29  39
ATOM     39  C   UNL     1       5.626  -5.480  26.366  0.00  0.00    +0.266 C 
BRANCH  39  40
ATOM     40  O   UNL     1       5.792  -6.714  27.085  0.00  0.00    -0.462 OA
BRANCH  40  41
ATOM     41  C   UNL     1       5.765  -6.627  28.447  0.00  0.00    +0.318 C 
ATOM     42  O   UNL     1       6.601  -7.129  29.192  0.00  0.00    -0.250 OA
BRANCH  41  43
ATOM     43  C   UNL     1       4.493  -6.005  28.929  0.00  0.00    +0.240 C 
BRANCH  43  44
ATOM     44  C   UNL     1       3.339  -6.950  29.044  0.00  0.00    +0.316 C 
ATOM     45  O   UNL     1       2.848  -7.355  30.084  0.00  0.00    -0.250 OA
BRANCH  44  46
ATOM     46  O   UNL     1       2.897  -7.372  27.832  0.00  0.00    -0.480 OA
ATOM     47  H   UNL     1       2.703  -8.323  27.769  0.00  0.00    +0.295 HD
ENDBRANCH  44  46
ENDBRANCH  43  44
ENDBRANCH  41  43
ENDBRANCH  40  41
ENDBRANCH  39  40
ENDBRANCH  29  39
ENDBRANCH  26  27
ENDBRANCH  11  26
TORSDOF 16
ENDMDL
MODEL 4
REMARK VINA RESULT:      -6.5      2.382      8.118
REMARK  Name = 
REMARK  16 active torsions:
REMARK  status: ('A' for Active; 'I' for Inactive)
REMARK    1  A    between atoms: C_3  and  O_42
REMARK    2  A    between atoms: C_4  and  O_41
REMARK    3  A    between atoms: C_6  and  C_7
REMARK    4  A    between atoms: C_8  and  O_20
REMARK    5  A    between atoms: C_12  and  O_19
REMARK    6  A    between atoms: C_14  and  O_18
REMARK    7  A    between atoms: O_20  and  C_21
REMARK    8  A    between atoms: C_23  and  O_40
REMARK    9  A    between atoms: C_24  and  O_39
REMARK   10  A    between atoms: C_25  and  O_38
REMARK   11  A    between atoms: C_27  and  C_30
REMARK   12  A    between atoms: C_30  and  O_31
REMARK   13  A    between atoms: O_31  and  C_32
REMARK   14  A    between atoms: C_32  and  C_34
REMARK   15  A    between atoms: C_34  and  C_35
REMARK   16  A    between atoms: C_35  and  O_37
REMARK                            x       y       z     vdW  Elec       q    Type
REMARK                         _______ _______ _______ _____ _____    ______ ____
ROOT
ATOM      1  C   UNL     1       7.788  -1.379  23.987  0.00  0.00    +0.181 A 
ATOM      2  O   UNL     1       7.958  -2.607  23.346  0.00  0.00    -0.451 OA
ATOM      3  C   UNL     1       6.941  -3.513  23.271  0.00  0.00    +0.147 A 
ATOM      4  C   UNL     1       5.711  -3.299  23.865  0.00  0.00    +0.109 A 
ATOM      5  C   UNL     1       4.708  -4.276  23.714  0.00  0.00    +0.135 A 
ATOM      6  C   UNL     1       4.939  -5.444  22.985  0.00  0.00    +0.091 A 
ATOM      7  C   UNL     1       6.192  -5.642  22.412  0.00  0.00    +0.124 A 
ATOM      8  C   UNL     1       5.529  -2.055  24.634  0.00  0.00    +0.238 A 
ATOM      9  O   UNL     1       4.475  -1.880  25.241  0.00  0.00    -0.283 OA
ATOM     10  C   UNL     1       7.193  -4.685  22.549  0.00  0.00    +0.092 A 
ATOM     11  C   UNL     1       6.639  -1.031  24.627  0.00  0.00    +0.214 A 
ENDROOT
BRANCH   1  13
ATOM     12  C   UNL     1      10.051  -0.375  24.663  0.00  0.00    +0.015 A 
ATOM     13  C   UNL     1       8.992  -0.508  23.757  0.00  0.00    +0.025 A 
ATOM     14  C   UNL     1       9.019   0.344  22.633  0.00  0.00    +0.060 A 
ATOM     15  C   UNL     1       9.922   1.398  22.564  0.00  0.00    +0.159 A 
ATOM     16  C   UNL     1      10.803   1.642  23.606  0.00  0.00    +0.158 A 
ATOM     17  C   UNL     1      10.910   0.729  24.639  0.00  0.00    +0.050 A 
BRANCH  16  18
ATOM     18  O   UNL     1      11.531   2.795  23.578  0.00  0.00    -0.503 OA
ATOM     19  H   UNL     1      10.908   3.530  23.435  0.00  0.00    +0.292 HD
ENDBRANCH  16  18
BRANCH  15  20
ATOM     20  O   UNL     1       9.893   2.233  21.485  0.00  0.00    -0.503 OA
ATOM     21  H   UNL     1       9.185   1.873  20.914  0.00  0.00    +0.292 HD
ENDBRANCH  15  20
ENDBRANCH   1  13
BRANCH   7  22
ATOM     22  O   UNL     1       6.481  -6.767  21.699  0.00  0.00    -0.507 OA
ATOM     23  H   UNL     1       6.217  -6.639  20.771  0.00  0.00    +0.292 HD
ENDBRANCH   7  22
BRANCH   5  24
ATOM     24  O   UNL     1       3.452  -4.143  24.246  0.00  0.00    -0.506 OA
ATOM     25  H   UNL     1       3.516  -4.261  25.219  0.00  0.00    +0.292 HD
ENDBRANCH   5  24
BRANCH  11  26
ATOM     26  O   UNL     1       6.467   0.082  25.443  0.00  0.00    -0.453 OA
BRANCH  26  27
ATOM     27  C   UNL     1       5.292   0.908  25.311  0.00  0.00    +0.340 C 
ATOM     28  O   UNL     1       5.621   2.193  24.746  0.00  0.00    -0.330 OA
ATOM     29  C   UNL     1       6.470   3.060  25.537  0.00  0.00    +0.191 C 
ATOM     30  C   UNL     1       6.154   3.093  27.053  0.00  0.00    +0.178 C 
ATOM     31  C   UNL     1       5.590   1.778  27.607  0.00  0.00    +0.180 C 
ATOM     32  C   UNL     1       4.572   1.182  26.633  0.00  0.00    +0.214 C 
BRANCH  32  33
ATOM     33  O   UNL     1       3.965   0.017  27.200  0.00  0.00    -0.383 OA
ATOM     34  H   UNL     1       3.343  -0.342  26.545  0.00  0.00    +0.210 HD
ENDBRANCH  32  33
BRANCH  31  35
ATOM     35  O   UNL     1       4.947   2.045  28.869  0.00  0.00    -0.386 OA
ATOM     36  H   UNL     1       4.904   3.022  28.926  0.00  0.00    +0.210 HD
ENDBRANCH  31  35
BRANCH  30  37
ATOM     37  O   UNL     1       5.150   4.105  27.289  0.00  0.00    -0.386 OA
ATOM     38  H   UNL     1       5.293   4.753  26.565  0.00  0.00    +0.210 HD
ENDBRANCH  30  37
BRANCH  29  39
ATOM     39  C   UNL     1       7.940   2.756  25.212  0.00  0.00    +0.266 C 
BRANCH  39  40
ATOM     40  O   UNL     1       8.689   3.901  24.767  0.00  0.00    -0.462 OA
BRANCH  40  41
ATOM     41  C   UNL     1       8.251   4.498  23.621  0.00  0.00    +0.318 C 
ATOM     42  O   UNL     1       7.666   3.916  22.714  0.00  0.00    -0.250 OA
BRANCH  41  43
ATOM     43  C   UNL     1       8.739   5.909  23.521  0.00  0.00    +0.240 C 
BRANCH  43  44
ATOM     44  C   UNL     1      10.178   6.101  23.882  0.00  0.00    +0.316 C 
ATOM     45  O   UNL     1      10.596   6.733  24.837  0.00  0.00    -0.250 OA
BRANCH  44  46
ATOM     46  O   UNL     1      11.015   5.521  22.985  0.00  0.00    -0.480 OA
ATOM     47  H   UNL     1      11.082   4.553  23.046  0.00  0.00    +0.295 HD
ENDBRANCH  44  46
ENDBRANCH  43  44
ENDBRANCH  41  43
ENDBRANCH  40  41
ENDBRANCH  39  40
ENDBRANCH  29  39
ENDBRANCH  26  27
ENDBRANCH  11  26
TORSDOF 16
ENDMDL
MODEL 5
REMARK VINA RESULT:      -6.5      2.003      3.879
REMARK  Name = 
REMARK  16 active torsions:
REMARK  status: ('A' for Active; 'I' for Inactive)
REMARK    1  A    between atoms: C_3  and  O_42
REMARK    2  A    between atoms: C_4  and  O_41
REMARK    3  A    between atoms: C_6  and  C_7
REMARK    4  A    between atoms: C_8  and  O_20
REMARK    5  A    between atoms: C_12  and  O_19
REMARK    6  A    between atoms: C_14  and  O_18
REMARK    7  A    between atoms: O_20  and  C_21
REMARK    8  A    between atoms: C_23  and  O_40
REMARK    9  A    between atoms: C_24  and  O_39
REMARK   10  A    between atoms: C_25  and  O_38
REMARK   11  A    between atoms: C_27  and  C_30
REMARK   12  A    between atoms: C_30  and  O_31
REMARK   13  A    between atoms: O_31  and  C_32
REMARK   14  A    between atoms: C_32  and  C_34
REMARK   15  A    between atoms: C_34  and  C_35
REMARK   16  A    between atoms: C_35  and  O_37
REMARK                            x       y       z     vdW  Elec       q    Type
REMARK                         _______ _______ _______ _____ _____    ______ ____
ROOT
ATOM      1  C   UNL     1       5.925  -0.375  24.764  0.00  0.00    +0.181 A 
ATOM      2  O   UNL     1       5.683   1.000  24.784  0.00  0.00    -0.451 OA
ATOM      3  C   UNL     1       6.301   1.839  23.904  0.00  0.00    +0.147 A 
ATOM      4  C   UNL     1       7.235   1.396  22.985  0.00  0.00    +0.109 A 
ATOM      5  C   UNL     1       7.803   2.328  22.095  0.00  0.00    +0.135 A 
ATOM      6  C   UNL     1       7.443   3.677  22.132  0.00  0.00    +0.091 A 
ATOM      7  C   UNL     1       6.513   4.099  23.078  0.00  0.00    +0.124 A 
ATOM      8  C   UNL     1       7.587  -0.035  23.003  0.00  0.00    +0.238 A 
ATOM      9  O   UNL     1       8.474  -0.438  22.254  0.00  0.00    -0.283 OA
ATOM     10  C   UNL     1       5.940   3.190  23.962  0.00  0.00    +0.092 A 
ATOM     11  C   UNL     1       6.825  -0.956  23.925  0.00  0.00    +0.214 A 
ENDROOT
BRANCH   1  13
ATOM     12  C   UNL     1       4.422  -2.336  25.455  0.00  0.00    +0.015 A 
ATOM     13  C   UNL     1       4.981  -1.076  25.700  0.00  0.00    +0.025 A 
ATOM     14  C   UNL     1       4.502  -0.390  26.835  0.00  0.00    +0.060 A 
ATOM     15  C   UNL     1       3.385  -0.848  27.523  0.00  0.00    +0.159 A 
ATOM     16  C   UNL     1       2.710  -1.981  27.097  0.00  0.00    +0.158 A 
ATOM     17  C   UNL     1       3.251  -2.762  26.093  0.00  0.00    +0.050 A 
BRANCH  16  18
ATOM     18  O   UNL     1       1.515  -2.279  27.684  0.00  0.00    -0.503 OA
ATOM     19  H   UNL     1       1.700  -2.874  28.434  0.00  0.00    +0.292 HD
ENDBRANCH  16  18
BRANCH  15  20
ATOM     20  O   UNL     1       2.919  -0.137  28.590  0.00  0.00    -0.503 OA
ATOM     21  H   UNL     1       2.769  -0.808  29.286  0.00  0.00    +0.292 HD
ENDBRANCH  15  20
ENDBRANCH   1  13
BRANCH   7  22
ATOM     22  O   UNL     1       6.131   5.403  23.170  0.00  0.00    -0.507 OA
ATOM     23  H   UNL     1       5.352   5.471  23.751  0.00  0.00    +0.292 HD
ENDBRANCH   7  22
BRANCH   5  24
ATOM     24  O   UNL     1       8.718   1.980  21.137  0.00  0.00    -0.506 OA
ATOM     25  H   UNL     1       9.193   2.792  20.854  0.00  0.00    +0.292 HD
ENDBRANCH   5  24
BRANCH  11  26
ATOM     26  O   UNL     1       7.254  -2.278  23.982  0.00  0.00    -0.453 OA
BRANCH  26  27
ATOM     27  C   UNL     1       8.494  -2.614  24.638  0.00  0.00    +0.340 C 
ATOM     28  O   UNL     1       9.127  -3.744  24.003  0.00  0.00    -0.330 OA
ATOM     29  C   UNL     1       8.432  -5.013  24.077  0.00  0.00    +0.191 C 
ATOM     30  C   UNL     1       7.781  -5.333  25.446  0.00  0.00    +0.178 C 
ATOM     31  C   UNL     1       7.307  -4.097  26.222  0.00  0.00    +0.180 C 
ATOM     32  C   UNL     1       8.339  -2.973  26.116  0.00  0.00    +0.214 C 
BRANCH  32  33
ATOM     33  O   UNL     1       7.949  -1.863  26.931  0.00  0.00    -0.383 OA
ATOM     34  H   UNL     1       8.061  -2.123  27.861  0.00  0.00    +0.210 HD
ENDBRANCH  32  33
BRANCH  31  35
ATOM     35  O   UNL     1       7.130  -4.457  27.606  0.00  0.00    -0.386 OA
ATOM     36  H   UNL     1       7.589  -5.318  27.700  0.00  0.00    +0.210 HD
ENDBRANCH  31  35
BRANCH  30  37
ATOM     37  O   UNL     1       8.764  -5.989  26.278  0.00  0.00    -0.386 OA
ATOM     38  H   UNL     1       9.613  -5.565  26.020  0.00  0.00    +0.210 HD
ENDBRANCH  30  37
BRANCH  29  39
ATOM     39  C   UNL     1       7.469  -5.129  22.887  0.00  0.00    +0.266 C 
BRANCH  39  40
ATOM     40  O   UNL     1       6.197  -5.712  23.218  0.00  0.00    -0.462 OA
BRANCH  40  41
ATOM     41  C   UNL     1       5.093  -5.027  22.800  0.00  0.00    +0.318 C 
ATOM     42  O   UNL     1       5.113  -4.106  21.990  0.00  0.00    -0.250 OA
BRANCH  41  43
ATOM     43  C   UNL     1       3.882  -5.410  23.589  0.00  0.00    +0.240 C 
BRANCH  43  44
ATOM     44  C   UNL     1       4.115  -6.471  24.618  0.00  0.00    +0.316 C 
ATOM     45  O   UNL     1       4.142  -6.301  25.825  0.00  0.00    -0.250 OA
BRANCH  44  46
ATOM     46  O   UNL     1       4.348  -7.686  24.061  0.00  0.00    -0.480 OA
ATOM     47  H   UNL     1       3.559  -8.153  23.738  0.00  0.00    +0.295 HD
ENDBRANCH  44  46
ENDBRANCH  43  44
ENDBRANCH  41  43
ENDBRANCH  40  41
ENDBRANCH  39  40
ENDBRANCH  29  39
ENDBRANCH  26  27
ENDBRANCH  11  26
TORSDOF 16
ENDMDL
MODEL 6
REMARK VINA RESULT:      -6.4      2.574      6.625
REMARK  Name = 
REMARK  16 active torsions:
REMARK  status: ('A' for Active; 'I' for Inactive)
REMARK    1  A    between atoms: C_3  and  O_42
REMARK    2  A    between atoms: C_4  and  O_41
REMARK    3  A    between atoms: C_6  and  C_7
REMARK    4  A    between atoms: C_8  and  O_20
REMARK    5  A    between atoms: C_12  and  O_19
REMARK    6  A    between atoms: C_14  and  O_18
REMARK    7  A    between atoms: O_20  and  C_21
REMARK    8  A    between atoms: C_23  and  O_40
REMARK    9  A    between atoms: C_24  and  O_39
REMARK   10  A    between atoms: C_25  and  O_38
REMARK   11  A    between atoms: C_27  and  C_30
REMARK   12  A    between atoms: C_30  and  O_31
REMARK   13  A    between atoms: O_31  and  C_32
REMARK   14  A    between atoms: C_32  and  C_34
REMARK   15  A    between atoms: C_34  and  C_35
REMARK   16  A    between atoms: C_35  and  O_37
REMARK                            x       y       z     vdW  Elec       q    Type
REMARK                         _______ _______ _______ _____ _____    ______ ____
ROOT
ATOM      1  C   UNL     1       9.270   2.062  24.249  0.00  0.00    +0.181 A 
ATOM      2  O   UNL     1      10.470   2.471  23.664  0.00  0.00    -0.451 OA
ATOM      3  C   UNL     1      10.886   3.768  23.735  0.00  0.00    +0.147 A 
ATOM      4  C   UNL     1      10.130   4.759  24.335  0.00  0.00    +0.109 A 
ATOM      5  C   UNL     1      10.650   6.067  24.389  0.00  0.00    +0.135 A 
ATOM      6  C   UNL     1      11.900   6.372  23.847  0.00  0.00    +0.091 A 
ATOM      7  C   UNL     1      12.632   5.359  23.234  0.00  0.00    +0.124 A 
ATOM      8  C   UNL     1       8.812   4.381  24.876  0.00  0.00    +0.238 A 
ATOM      9  O   UNL     1       8.086   5.257  25.338  0.00  0.00    -0.283 OA
ATOM     10  C   UNL     1      12.135   4.061  23.176  0.00  0.00    +0.092 A 
ATOM     11  C   UNL     1       8.415   2.924  24.863  0.00  0.00    +0.214 A 
ENDROOT
BRANCH   1  13
ATOM     12  C   UNL     1       9.038  -0.261  25.311  0.00  0.00    +0.015 A 
ATOM     13  C   UNL     1       9.152   0.565  24.187  0.00  0.00    +0.025 A 
ATOM     14  C   UNL     1       9.301  -0.085  22.944  0.00  0.00    +0.060 A 
ATOM     15  C   UNL     1       9.548  -1.451  22.884  0.00  0.00    +0.159 A 
ATOM     16  C   UNL     1       9.668  -2.199  24.045  0.00  0.00    +0.158 A 
ATOM     17  C   UNL     1       9.364  -1.622  25.264  0.00  0.00    +0.050 A 
BRANCH  16  18
ATOM     18  O   UNL     1      10.100  -3.489  23.940  0.00  0.00    -0.503 OA
ATOM     19  H   UNL     1       9.324  -4.066  24.064  0.00  0.00    +0.292 HD
ENDBRANCH  16  18
BRANCH  15  20
ATOM     20  O   UNL     1       9.733  -2.044  21.668  0.00  0.00    -0.503 OA
ATOM     21  H   UNL     1      10.054  -1.323  21.090  0.00  0.00    +0.292 HD
ENDBRANCH  15  20
ENDBRANCH   1  13
BRANCH   7  22
ATOM     22  O   UNL     1      13.853   5.598  22.677  0.00  0.00    -0.507 OA
ATOM     23  H   UNL     1      14.291   4.751  22.483  0.00  0.00    +0.292 HD
ENDBRANCH   7  22
BRANCH   5  24
ATOM     24  O   UNL     1       9.985   7.108  24.981  0.00  0.00    -0.506 OA
ATOM     25  H   UNL     1       9.741   7.755  24.284  0.00  0.00    +0.292 HD
ENDBRANCH   5  24
BRANCH  11  26
ATOM     26  O   UNL     1       7.126   2.624  25.292  0.00  0.00    -0.453 OA
BRANCH  26  27
ATOM     27  C   UNL     1       6.834   2.513  26.701  0.00  0.00    +0.340 C 
ATOM     28  O   UNL     1       6.521   1.151  27.059  0.00  0.00    -0.330 OA
ATOM     29  C   UNL     1       5.316   0.584  26.491  0.00  0.00    +0.191 C 
ATOM     30  C   UNL     1       4.091   1.532  26.453  0.00  0.00    +0.178 C 
ATOM     31  C   UNL     1       4.448   3.015  26.292  0.00  0.00    +0.180 C 
ATOM     32  C   UNL     1       5.655   3.370  27.162  0.00  0.00    +0.214 C 
BRANCH  32  33
ATOM     33  O   UNL     1       5.917   4.776  27.098  0.00  0.00    -0.383 OA
ATOM     34  H   UNL     1       6.695   4.958  27.652  0.00  0.00    +0.210 HD
ENDBRANCH  32  33
BRANCH  31  35
ATOM     35  O   UNL     1       3.316   3.811  26.696  0.00  0.00    -0.386 OA
ATOM     36  H   UNL     1       2.738   3.191  27.189  0.00  0.00    +0.210 HD
ENDBRANCH  31  35
BRANCH  30  37
ATOM     37  O   UNL     1       3.380   1.411  27.706  0.00  0.00    -0.386 OA
ATOM     38  H   UNL     1       2.851   0.590  27.599  0.00  0.00    +0.210 HD
ENDBRANCH  30  37
BRANCH  29  39
ATOM     39  C   UNL     1       5.652  -0.055  25.135  0.00  0.00    +0.266 C 
BRANCH  39  40
ATOM     40  O   UNL     1       4.964  -1.292  24.885  0.00  0.00    -0.462 OA
BRANCH  40  41
ATOM     41  C   UNL     1       5.737  -2.340  24.477  0.00  0.00    +0.318 C 
ATOM     42  O   UNL     1       6.220  -3.181  25.229  0.00  0.00    -0.250 OA
BRANCH  41  43
ATOM     43  C   UNL     1       6.080  -2.232  23.025  0.00  0.00    +0.240 C 
BRANCH  43  44
ATOM     44  C   UNL     1       6.361  -3.537  22.350  0.00  0.00    +0.316 C 
ATOM     45  O   UNL     1       7.458  -4.055  22.226  0.00  0.00    -0.250 OA
BRANCH  44  46
ATOM     46  O   UNL     1       5.241  -4.095  21.823  0.00  0.00    -0.480 OA
ATOM     47  H   UNL     1       4.751  -4.685  22.420  0.00  0.00    +0.295 HD
ENDBRANCH  44  46
ENDBRANCH  43  44
ENDBRANCH  41  43
ENDBRANCH  40  41
ENDBRANCH  39  40
ENDBRANCH  29  39
ENDBRANCH  26  27
ENDBRANCH  11  26
TORSDOF 16
ENDMDL
MODEL 7
REMARK VINA RESULT:      -6.4      2.313      7.399
REMARK  Name = 
REMARK  16 active torsions:
REMARK  status: ('A' for Active; 'I' for Inactive)
REMARK    1  A    between atoms: C_3  and  O_42
REMARK    2  A    between atoms: C_4  and  O_41
REMARK    3  A    between atoms: C_6  and  C_7
REMARK    4  A    between atoms: C_8  and  O_20
REMARK    5  A    between atoms: C_12  and  O_19
REMARK    6  A    between atoms: C_14  and  O_18
REMARK    7  A    between atoms: O_20  and  C_21
REMARK    8  A    between atoms: C_23  and  O_40
REMARK    9  A    between atoms: C_24  and  O_39
REMARK   10  A    between atoms: C_25  and  O_38
REMARK   11  A    between atoms: C_27  and  C_30
REMARK   12  A    between atoms: C_30  and  O_31
REMARK   13  A    between atoms: O_31  and  C_32
REMARK   14  A    between atoms: C_32  and  C_34
REMARK   15  A    between atoms: C_34  and  C_35
REMARK   16  A    between atoms: C_35  and  O_37
REMARK                            x       y       z     vdW  Elec       q    Type
REMARK                         _______ _______ _______ _____ _____    ______ ____
ROOT
ATOM      1  C   UNL     1       6.093  -1.796  25.144  0.00  0.00    +0.181 A 
ATOM      2  O   UNL     1       5.378  -2.989  25.273  0.00  0.00    -0.451 OA
ATOM      3  C   UNL     1       5.562  -4.022  24.402  0.00  0.00    +0.147 A 
ATOM      4  C   UNL     1       6.417  -3.936  23.318  0.00  0.00    +0.109 A 
ATOM      5  C   UNL     1       6.568  -5.062  22.485  0.00  0.00    +0.135 A 
ATOM      6  C   UNL     1       5.872  -6.246  22.735  0.00  0.00    +0.091 A 
ATOM      7  C   UNL     1       5.006  -6.300  23.824  0.00  0.00    +0.124 A 
ATOM      8  C   UNL     1       7.114  -2.657  23.095  0.00  0.00    +0.238 A 
ATOM      9  O   UNL     1       7.812  -2.527  22.093  0.00  0.00    -0.283 OA
ATOM     10  C   UNL     1       4.847  -5.198  24.657  0.00  0.00    +0.092 A 
ATOM     11  C   UNL     1       6.960  -1.561  24.123  0.00  0.00    +0.214 A 
ENDROOT
BRANCH   1  13
ATOM     12  C   UNL     1       4.619  -0.277  26.593  0.00  0.00    +0.015 A 
ATOM     13  C   UNL     1       5.839  -0.914  26.333  0.00  0.00    +0.025 A 
ATOM     14  C   UNL     1       6.914  -0.577  27.182  0.00  0.00    +0.060 A 
ATOM     15  C   UNL     1       6.812   0.490  28.067  0.00  0.00    +0.159 A 
ATOM     16  C   UNL     1       5.656   1.253  28.121  0.00  0.00    +0.158 A 
ATOM     17  C   UNL     1       4.534   0.846  27.424  0.00  0.00    +0.050 A 
BRANCH  16  18
ATOM     18  O   UNL     1       5.674   2.400  28.860  0.00  0.00    -0.503 OA
ATOM     19  H   UNL     1       4.768   2.550  29.187  0.00  0.00    +0.292 HD
ENDBRANCH  16  18
BRANCH  15  20
ATOM     20  O   UNL     1       7.885   0.821  28.842  0.00  0.00    -0.503 OA
ATOM     21  H   UNL     1       8.639   0.845  28.220  0.00  0.00    +0.292 HD
ENDBRANCH  15  20
ENDBRANCH   1  13
BRANCH   7  22
ATOM     22  O   UNL     1       4.290  -7.423  24.111  0.00  0.00    -0.507 OA
ATOM     23  H   UNL     1       4.439  -8.088  23.417  0.00  0.00    +0.292 HD
ENDBRANCH   7  22
BRANCH   5  24
ATOM     24  O   UNL     1       7.407  -5.080  21.402  0.00  0.00    -0.506 OA
ATOM     25  H   UNL     1       8.146  -4.457  21.575  0.00  0.00    +0.292 HD
ENDBRANCH   5  24
BRANCH  11  26
ATOM     26  O   UNL     1       7.554  -0.339  23.825  0.00  0.00    -0.453 OA
BRANCH  26  27
ATOM     27  C   UNL     1       8.903  -0.061  24.252  0.00  0.00    +0.340 C 
ATOM     28  O   UNL     1       8.930   0.997  25.233  0.00  0.00    -0.330 OA
ATOM     29  C   UNL     1       8.513   2.312  24.791  0.00  0.00    +0.191 C 
ATOM     30  C   UNL     1       9.018   2.730  23.388  0.00  0.00    +0.178 C 
ATOM     31  C   UNL     1       9.200   1.562  22.410  0.00  0.00    +0.180 C 
ATOM     32  C   UNL     1       9.839   0.367  23.120  0.00  0.00    +0.214 C 
BRANCH  32  33
ATOM     33  O   UNL     1      10.111  -0.679  22.183  0.00  0.00    -0.383 OA
ATOM     34  H   UNL     1       9.363  -1.300  22.207  0.00  0.00    +0.210 HD
ENDBRANCH  32  33
BRANCH  31  35
ATOM     35  O   UNL     1      10.054   1.990  21.330  0.00  0.00    -0.386 OA
ATOM     36  H   UNL     1       9.468   2.022  20.546  0.00  0.00    +0.210 HD
ENDBRANCH  31  35
BRANCH  30  37
ATOM     37  O   UNL     1      10.314   3.352  23.535  0.00  0.00    -0.386 OA
ATOM     38  H   UNL     1      10.363   3.978  22.778  0.00  0.00    +0.210 HD
ENDBRANCH  30  37
BRANCH  29  39
ATOM     39  C   UNL     1       6.994   2.444  24.973  0.00  0.00    +0.266 C 
BRANCH  39  40
ATOM     40  O   UNL     1       6.331   3.111  23.885  0.00  0.00    -0.462 OA
BRANCH  40  41
ATOM     41  C   UNL     1       6.089   4.444  24.052  0.00  0.00    +0.318 C 
ATOM     42  O   UNL     1       5.734   4.958  25.108  0.00  0.00    -0.250 OA
BRANCH  41  43
ATOM     43  C   UNL     1       6.126   5.174  22.747  0.00  0.00    +0.240 C 
BRANCH  43  44
ATOM     44  C   UNL     1       7.438   5.815  22.426  0.00  0.00    +0.316 C 
ATOM     45  O   UNL     1       8.400   5.886  23.172  0.00  0.00    -0.250 OA
BRANCH  44  46
ATOM     46  O   UNL     1       7.448   6.376  21.190  0.00  0.00    -0.480 OA
ATOM     47  H   UNL     1       7.006   7.239  21.122  0.00  0.00    +0.295 HD
ENDBRANCH  44  46
ENDBRANCH  43  44
ENDBRANCH  41  43
ENDBRANCH  40  41
ENDBRANCH  39  40
ENDBRANCH  29  39
ENDBRANCH  26  27
ENDBRANCH  11  26
TORSDOF 16
ENDMDL
MODEL 8
REMARK VINA RESULT:      -6.4      1.791      6.132
REMARK  Name = 
REMARK  16 active torsions:
REMARK  status: ('A' for Active; 'I' for Inactive)
REMARK    1  A    between atoms: C_3  and  O_42
REMARK    2  A    between atoms: C_4  and  O_41
REMARK    3  A    between atoms: C_6  and  C_7
REMARK    4  A    between atoms: C_8  and  O_20
REMARK    5  A    between atoms: C_12  and  O_19
REMARK    6  A    between atoms: C_14  and  O_18
REMARK    7  A    between atoms: O_20  and  C_21
REMARK    8  A    between atoms: C_23  and  O_40
REMARK    9  A    between atoms: C_24  and  O_39
REMARK   10  A    between atoms: C_25  and  O_38
REMARK   11  A    between atoms: C_27  and  C_30
REMARK   12  A    between atoms: C_30  and  O_31
REMARK   13  A    between atoms: O_31  and  C_32
REMARK   14  A    between atoms: C_32  and  C_34
REMARK   15  A    between atoms: C_34  and  C_35
REMARK   16  A    between atoms: C_35  and  O_37
REMARK                            x       y       z     vdW  Elec       q    Type
REMARK                         _______ _______ _______ _____ _____    ______ ____
ROOT
ATOM      1  C   UNL     1       6.292   0.364  24.997  0.00  0.00    +0.181 A 
ATOM      2  O   UNL     1       5.568   1.556  25.057  0.00  0.00    -0.451 OA
ATOM      3  C   UNL     1       4.487   1.687  25.878  0.00  0.00    +0.147 A 
ATOM      4  C   UNL     1       4.012   0.644  26.653  0.00  0.00    +0.109 A 
ATOM      5  C   UNL     1       2.907   0.876  27.495  0.00  0.00    +0.135 A 
ATOM      6  C   UNL     1       2.290   2.128  27.552  0.00  0.00    +0.091 A 
ATOM      7  C   UNL     1       2.777   3.155  26.749  0.00  0.00    +0.124 A 
ATOM      8  C   UNL     1       4.694  -0.658  26.540  0.00  0.00    +0.238 A 
ATOM      9  O   UNL     1       4.240  -1.621  27.154  0.00  0.00    -0.283 OA
ATOM     10  C   UNL     1       3.871   2.943  25.914  0.00  0.00    +0.092 A 
ATOM     11  C   UNL     1       5.939  -0.751  25.692  0.00  0.00    +0.214 A 
ENDROOT
BRANCH   1  13
ATOM     12  C   UNL     1       8.809   0.759  24.698  0.00  0.00    +0.015 A 
ATOM     13  C   UNL     1       7.530   0.556  24.167  0.00  0.00    +0.025 A 
ATOM     14  C   UNL     1       7.406   0.682  22.768  0.00  0.00    +0.060 A 
ATOM     15  C   UNL     1       8.448   1.201  22.007  0.00  0.00    +0.159 A 
ATOM     16  C   UNL     1       9.623   1.618  22.612  0.00  0.00    +0.158 A 
ATOM     17  C   UNL     1       9.833   1.354  23.953  0.00  0.00    +0.050 A 
BRANCH  16  18
ATOM     18  O   UNL     1      10.534   2.295  21.855  0.00  0.00    -0.503 OA
ATOM     19  H   UNL     1      11.410   2.153  22.257  0.00  0.00    +0.292 HD
ENDBRANCH  16  18
BRANCH  15  20
ATOM     20  O   UNL     1       8.281   1.354  20.661  0.00  0.00    -0.503 OA
ATOM     21  H   UNL     1       7.312   1.345  20.531  0.00  0.00    +0.292 HD
ENDBRANCH  15  20
ENDBRANCH   1  13
BRANCH   7  22
ATOM     22  O   UNL     1       2.210   4.394  26.752  0.00  0.00    -0.507 OA
ATOM     23  H   UNL     1       2.689   4.969  26.130  0.00  0.00    +0.292 HD
ENDBRANCH   7  22
BRANCH   5  24
ATOM     24  O   UNL     1       2.380  -0.087  28.314  0.00  0.00    -0.506 OA
ATOM     25  H   UNL     1       2.466  -0.956  27.864  0.00  0.00    +0.292 HD
ENDBRANCH   5  24
BRANCH  11  26
ATOM     26  O   UNL     1       6.494  -2.017  25.535  0.00  0.00    -0.453 OA
BRANCH  26  27
ATOM     27  C   UNL     1       7.357  -2.567  26.552  0.00  0.00    +0.340 C 
ATOM     28  O   UNL     1       8.702  -2.732  26.057  0.00  0.00    -0.330 OA
ATOM     29  C   UNL     1       8.896  -3.695  24.993  0.00  0.00    +0.191 C 
ATOM     30  C   UNL     1       8.105  -5.018  25.143  0.00  0.00    +0.178 C 
ATOM     31  C   UNL     1       6.764  -4.870  25.874  0.00  0.00    +0.180 C 
ATOM     32  C   UNL     1       6.911  -3.933  27.074  0.00  0.00    +0.214 C 
BRANCH  32  33
ATOM     33  O   UNL     1       5.690  -3.885  27.818  0.00  0.00    -0.383 OA
ATOM     34  H   UNL     1       4.956  -3.850  27.182  0.00  0.00    +0.210 HD
ENDBRANCH  32  33
BRANCH  31  35
ATOM     35  O   UNL     1       6.338  -6.170  26.330  0.00  0.00    -0.386 OA
ATOM     36  H   UNL     1       6.617  -6.786  25.620  0.00  0.00    +0.210 HD
ENDBRANCH  31  35
BRANCH  30  37
ATOM     37  O   UNL     1       8.900  -5.940  25.923  0.00  0.00    -0.386 OA
ATOM     38  H   UNL     1       9.826  -5.655  25.753  0.00  0.00    +0.210 HD
ENDBRANCH  30  37
BRANCH  29  39
ATOM     39  C   UNL     1       8.691  -2.996  23.640  0.00  0.00    +0.266 C 
BRANCH  39  40
ATOM     40  O   UNL     1       8.237  -3.871  22.593  0.00  0.00    -0.462 OA
BRANCH  40  41
ATOM     41  C   UNL     1       6.944  -3.706  22.188  0.00  0.00    +0.318 C 
ATOM     42  O   UNL     1       6.312  -2.660  22.292  0.00  0.00    -0.250 OA
BRANCH  41  43
ATOM     43  C   UNL     1       6.331  -5.007  21.776  0.00  0.00    +0.240 C 
BRANCH  43  44
ATOM     44  C   UNL     1       5.236  -5.495  22.671  0.00  0.00    +0.316 C 
ATOM     45  O   UNL     1       5.259  -6.516  23.336  0.00  0.00    -0.250 OA
BRANCH  44  46
ATOM     46  O   UNL     1       4.147  -4.685  22.639  0.00  0.00    -0.480 OA
ATOM     47  H   UNL     1       4.319  -3.750  22.840  0.00  0.00    +0.295 HD
ENDBRANCH  44  46
ENDBRANCH  43  44
ENDBRANCH  41  43
ENDBRANCH  40  41
ENDBRANCH  39  40
ENDBRANCH  29  39
ENDBRANCH  26  27
ENDBRANCH  11  26
TORSDOF 16
ENDMDL
MODEL 9
REMARK VINA RESULT:      -6.4      1.545      4.716
REMARK  Name = 
REMARK  16 active torsions:
REMARK  status: ('A' for Active; 'I' for Inactive)
REMARK    1  A    between atoms: C_3  and  O_42
REMARK    2  A    between atoms: C_4  and  O_41
REMARK    3  A    between atoms: C_6  and  C_7
REMARK    4  A    between atoms: C_8  and  O_20
REMARK    5  A    between atoms: C_12  and  O_19
REMARK    6  A    between atoms: C_14  and  O_18
REMARK    7  A    between atoms: O_20  and  C_21
REMARK    8  A    between atoms: C_23  and  O_40
REMARK    9  A    between atoms: C_24  and  O_39
REMARK   10  A    between atoms: C_25  and  O_38
REMARK   11  A    between atoms: C_27  and  C_30
REMARK   12  A    between atoms: C_30  and  O_31
REMARK   13  A    between atoms: O_31  and  C_32
REMARK   14  A    between atoms: C_32  and  C_34
REMARK   15  A    between atoms: C_34  and  C_35
REMARK   16  A    between atoms: C_35  and  O_37
REMARK                            x       y       z     vdW  Elec       q    Type
REMARK                         _______ _______ _______ _____ _____    ______ ____
ROOT
ATOM      1  C   UNL     1       6.574  -1.552  23.665  0.00  0.00    +0.181 A 
ATOM      2  O   UNL     1       7.527  -0.964  22.831  0.00  0.00    -0.451 OA
ATOM      3  C   UNL     1       8.002   0.291  23.075  0.00  0.00    +0.147 A 
ATOM      4  C   UNL     1       7.536   1.073  24.117  0.00  0.00    +0.109 A 
ATOM      5  C   UNL     1       8.103   2.347  24.313  0.00  0.00    +0.135 A 
ATOM      6  C   UNL     1       9.113   2.827  23.476  0.00  0.00    +0.091 A 
ATOM      7  C   UNL     1       9.552   2.027  22.425  0.00  0.00    +0.124 A 
ATOM      8  C   UNL     1       6.459   0.520  24.958  0.00  0.00    +0.238 A 
ATOM      9  O   UNL     1       5.970   1.226  25.837  0.00  0.00    -0.283 OA
ATOM     10  C   UNL     1       9.004   0.764  22.220  0.00  0.00    +0.092 A 
ATOM     11  C   UNL     1       6.015  -0.903  24.721  0.00  0.00    +0.214 A 
ENDROOT
BRANCH   1  13
ATOM     12  C   UNL     1       7.362  -3.794  22.698  0.00  0.00    +0.015 A 
ATOM     13  C   UNL     1       6.374  -2.991  23.281  0.00  0.00    +0.025 A 
ATOM     14  C   UNL     1       5.084  -3.554  23.373  0.00  0.00    +0.060 A 
ATOM     15  C   UNL     1       4.779  -4.740  22.715  0.00  0.00    +0.159 A 
ATOM     16  C   UNL     1       5.733  -5.383  21.943  0.00  0.00    +0.158 A 
ATOM     17  C   UNL     1       7.044  -4.945  21.969  0.00  0.00    +0.050 A 
BRANCH  16  18
ATOM     18  O   UNL     1       5.334  -6.432  21.166  0.00  0.00    -0.503 OA
ATOM     19  H   UNL     1       6.137  -6.905  20.881  0.00  0.00    +0.292 HD
ENDBRANCH  16  18
BRANCH  15  20
ATOM     20  O   UNL     1       3.510  -5.236  22.785  0.00  0.00    -0.503 OA
ATOM     21  H   UNL     1       2.941  -4.445  22.875  0.00  0.00    +0.292 HD
ENDBRANCH  15  20
ENDBRANCH   1  13
BRANCH   7  22
ATOM     22  O   UNL     1      10.525   2.444  21.568  0.00  0.00    -0.507 OA
ATOM     23  H   UNL     1      10.682   1.756  20.898  0.00  0.00    +0.292 HD
ENDBRANCH   7  22
BRANCH   5  24
ATOM     24  O   UNL     1       7.723   3.183  25.330  0.00  0.00    -0.506 OA
ATOM     25  H   UNL     1       6.746   3.141  25.414  0.00  0.00    +0.292 HD
ENDBRANCH   5  24
BRANCH  11  26
ATOM     26  O   UNL     1       4.931  -1.351  25.470  0.00  0.00    -0.453 OA
BRANCH  26  27
ATOM     27  C   UNL     1       4.809  -0.994  26.863  0.00  0.00    +0.340 C 
ATOM     28  O   UNL     1       5.149  -2.106  27.715  0.00  0.00    -0.330 OA
ATOM     29  C   UNL     1       4.282  -3.265  27.660  0.00  0.00    +0.191 C 
ATOM     30  C   UNL     1       2.766  -2.955  27.590  0.00  0.00    +0.178 C 
ATOM     31  C   UNL     1       2.423  -1.645  26.868  0.00  0.00    +0.180 C 
ATOM     32  C   UNL     1       3.406  -0.543  27.269  0.00  0.00    +0.214 C 
BRANCH  32  33
ATOM     33  O   UNL     1       3.019   0.704  26.683  0.00  0.00    -0.383 OA
ATOM     34  H   UNL     1       2.277   1.058  27.202  0.00  0.00    +0.210 HD
ENDBRANCH  32  33
BRANCH  31  35
ATOM     35  O   UNL     1       1.086  -1.251  27.232  0.00  0.00    -0.386 OA
ATOM     36  H   UNL     1       0.831  -1.865  27.952  0.00  0.00    +0.210 HD
ENDBRANCH  31  35
BRANCH  30  37
ATOM     37  O   UNL     1       2.263  -2.826  28.939  0.00  0.00    -0.386 OA
ATOM     38  H   UNL     1       2.775  -2.074  29.311  0.00  0.00    +0.210 HD
ENDBRANCH  30  37
BRANCH  29  39
ATOM     39  C   UNL     1       4.776  -4.210  26.555  0.00  0.00    +0.266 C 
BRANCH  39  40
ATOM     40  O   UNL     1       5.215  -5.492  27.036  0.00  0.00    -0.462 OA
BRANCH  40  41
ATOM     41  C   UNL     1       6.560  -5.638  27.222  0.00  0.00    +0.318 C 
ATOM     42  O   UNL     1       7.078  -6.037  28.260  0.00  0.00    -0.250 OA
BRANCH  41  43
ATOM     43  C   UNL     1       7.334  -5.073  26.074  0.00  0.00    +0.240 C 
BRANCH  43  44
ATOM     44  C   UNL     1       8.457  -4.165  26.462  0.00  0.00    +0.316 C 
ATOM     45  O   UNL     1       8.530  -2.973  26.214  0.00  0.00    -0.250 OA
BRANCH  44  46
ATOM     46  O   UNL     1       9.454  -4.826  27.103  0.00  0.00    -0.480 OA
ATOM     47  H   UNL     1      10.290  -4.337  27.184  0.00  0.00    +0.295 HD
ENDBRANCH  44  46
ENDBRANCH  43  44
ENDBRANCH  41  43
ENDBRANCH  40  41
ENDBRANCH  39  40
ENDBRANCH  29  39
ENDBRANCH  26  27
ENDBRANCH  11  26
TORSDOF 16
ENDMDL
