MODEL 1
REMARK VINA RESULT:      -7.4      0.000      0.000
REMARK  Name = 
REMARK  22 active torsions:
REMARK  status: ('A' for Active; 'I' for Inactive)
REMARK    1  A    between atoms: C_1  and  C_2
REMARK    2  A    between atoms: C_3  and  O_60
REMARK    3  A    between atoms: C_5  and  O_59
REMARK    4  A    between atoms: C_6  and  O_58
REMARK    5  A    between atoms: C_8  and  O_11
REMARK    6  A    between atoms: O_11  and  C_12
REMARK    7  A    between atoms: C_12  and  C_13
REMARK    8  A    between atoms: C_14  and  O_57
REMARK    9  A    between atoms: C_16  and  O_56
REMARK   10  A    between atoms: C_18  and  O_55
REMARK   11  A    between atoms: C_19  and  O_22
REMARK   12  A    between atoms: O_22  and  C_23
REMARK   13  A    between atoms: C_24  and  C_36
REMARK   14  A    between atoms: C_28  and  O_35
REMARK   15  A    between atoms: C_30  and  O_34
REMARK   16  A    between atoms: C_38  and  O_43
REMARK   17  A    between atoms: C_39  and  O_42
REMARK   18  A    between atoms: O_43  and  C_44
REMARK   19  A    between atoms: C_46  and  O_54
REMARK   20  A    between atoms: C_48  and  C_51
REMARK   21  A    between atoms: C_48  and  O_53
REMARK   22  A    between atoms: C_51  and  O_52
REMARK                            x       y       z     vdW  Elec       q    Type
REMARK                         _______ _______ _______ _____ _____    ______ ____
ROOT
ATOM      1  C   UNL     1       7.511   2.646  23.916  0.00  0.00    +0.214 A 
ATOM      2  C   UNL     1       8.015   3.880  24.671  0.00  0.00    +0.238 A 
ATOM      3  O   UNL     1       7.270   4.443  25.467  0.00  0.00    -0.283 OA
ATOM      4  C   UNL     1       9.437   4.416  24.418  0.00  0.00    +0.109 A 
ATOM      5  C   UNL     1      10.251   3.602  23.667  0.00  0.00    +0.147 A 
ATOM      6  C   UNL     1      11.531   4.043  23.265  0.00  0.00    +0.092 A 
ATOM      7  C   UNL     1      11.907   5.370  23.459  0.00  0.00    +0.124 A 
ATOM      8  C   UNL     1      11.087   6.213  24.165  0.00  0.00    +0.091 A 
ATOM      9  O   UNL     1       9.888   2.324  23.354  0.00  0.00    -0.451 OA
ATOM     10  C   UNL     1       9.948   5.675  24.768  0.00  0.00    +0.135 A 
ATOM     11  C   UNL     1       8.580   1.879  23.601  0.00  0.00    +0.181 A 
ENDROOT
BRANCH  11  12
ATOM     12  C   UNL     1       8.646   0.435  23.832  0.00  0.00    +0.025 A 
ATOM     13  C   UNL     1       9.612   0.041  24.804  0.00  0.00    +0.015 A 
ATOM     14  C   UNL     1      10.121  -1.257  24.817  0.00  0.00    +0.050 A 
ATOM     15  C   UNL     1       9.583  -2.210  23.961  0.00  0.00    +0.159 A 
ATOM     16  C   UNL     1       8.554  -1.874  23.074  0.00  0.00    +0.166 A 
ATOM     17  C   UNL     1       8.149  -0.531  22.949  0.00  0.00    +0.061 A 
BRANCH  15  18
ATOM     18  O   UNL     1      10.057  -3.491  24.050  0.00  0.00    -0.503 OA
ATOM     19  H   UNL     1      10.205  -3.693  24.991  0.00  0.00    +0.292 HD
ENDBRANCH  15  18
BRANCH  16  20
ATOM     20  O   UNL     1       7.830  -2.756  22.315  0.00  0.00    -0.457 OA
BRANCH  20  21
ATOM     21  C   UNL     1       7.313  -3.892  23.019  0.00  0.00    +0.339 C 
ATOM     22  O   UNL     1       7.732  -5.116  22.370  0.00  0.00    -0.337 OA
ATOM     23  C   UNL     1       6.611  -6.036  22.357  0.00  0.00    +0.204 C 
ATOM     24  C   UNL     1       5.541  -5.447  23.283  0.00  0.00    +0.144 C 
ATOM     25  C   UNL     1       5.770  -3.960  23.056  0.00  0.00    +0.219 C 
BRANCH  25  26
ATOM     26  O   UNL     1       5.163  -3.541  21.819  0.00  0.00    -0.383 OA
ATOM     27  H   UNL     1       5.155  -4.321  21.229  0.00  0.00    +0.210 HD
ENDBRANCH  25  26
BRANCH  24  28
ATOM     28  O   UNL     1       5.830  -5.769  24.660  0.00  0.00    -0.381 OA
ATOM     29  H   UNL     1       6.791  -5.892  24.763  0.00  0.00    +0.210 HD
ENDBRANCH  24  28
BRANCH  24  30
ATOM     30  C   UNL     1       4.131  -5.929  22.967  0.00  0.00    +0.195 C 
BRANCH  30  31
ATOM     31  O   UNL     1       3.147  -4.949  23.146  0.00  0.00    -0.392 OA
ATOM     32  H   UNL     1       2.269  -5.419  23.279  0.00  0.00    +0.210 HD
ENDBRANCH  30  31
ENDBRANCH  24  30
ENDBRANCH  20  21
ENDBRANCH  16  20
ENDBRANCH  11  12
BRANCH  10  33
ATOM     33  O   UNL     1       9.401   6.516  25.706  0.00  0.00    -0.506 OA
ATOM     34  H   UNL     1       9.032   5.894  26.376  0.00  0.00    +0.292 HD
ENDBRANCH  10  33
BRANCH   7  35
ATOM     35  O   UNL     1      13.091   5.880  23.022  0.00  0.00    -0.507 OA
ATOM     36  H   UNL     1      13.413   5.344  22.283  0.00  0.00    +0.292 HD
ENDBRANCH   7  35
BRANCH   1  37
ATOM     37  O   UNL     1       6.193   2.129  24.108  0.00  0.00    -0.453 OA
BRANCH  37  40
ATOM     38  C   UNL     1       4.751  -0.941  25.890  0.00  0.00    +0.179 C 
ATOM     39  O   UNL     1       5.274  -0.000  24.895  0.00  0.00    -0.331 OA
ATOM     40  C   UNL     1       5.826   1.289  25.298  0.00  0.00    +0.340 C 
ATOM     41  C   UNL     1       4.736   2.016  26.198  0.00  0.00    +0.214 C 
ATOM     42  C   UNL     1       4.289   1.058  27.332  0.00  0.00    +0.180 C 
ATOM     43  C   UNL     1       3.675  -0.217  26.735  0.00  0.00    +0.177 C 
BRANCH  43  44
ATOM     44  O   UNL     1       3.144  -1.020  27.805  0.00  0.00    -0.386 OA
ATOM     45  H   UNL     1       3.194  -0.493  28.626  0.00  0.00    +0.210 HD
ENDBRANCH  43  44
BRANCH  42  46
ATOM     46  O   UNL     1       3.326   1.626  28.236  0.00  0.00    -0.386 OA
ATOM     47  H   UNL     1       3.786   1.667  29.103  0.00  0.00    +0.210 HD
ENDBRANCH  42  46
BRANCH  41  48
ATOM     48  O   UNL     1       3.574   2.407  25.440  0.00  0.00    -0.383 OA
ATOM     49  H   UNL     1       2.844   1.809  25.674  0.00  0.00    +0.210 HD
ENDBRANCH  41  48
BRANCH  38  50
ATOM     50  C   UNL     1       5.684  -1.785  26.894  0.00  0.00    +0.197 C 
BRANCH  50  51
ATOM     51  O   UNL     1       6.051  -3.158  26.698  0.00  0.00    -0.346 OA
BRANCH  51  55
ATOM     52  C   UNL     1       5.995  -6.353  29.962  0.00  0.00    +0.041 C 
ATOM     53  C   UNL     1       5.779  -6.478  28.454  0.00  0.00    +0.149 C 
ATOM     54  O   UNL     1       6.345  -5.394  27.661  0.00  0.00    -0.343 OA
ATOM     55  C   UNL     1       5.670  -4.126  27.699  0.00  0.00    +0.282 C 
ATOM     56  C   UNL     1       4.188  -4.231  27.534  0.00  0.00    +0.201 C 
ATOM     57  C   UNL     1       3.641  -5.279  28.445  0.00  0.00    +0.179 C 
ATOM     58  C   UNL     1       4.280  -6.656  28.198  0.00  0.00    +0.174 C 
BRANCH  58  59
ATOM     59  O   UNL     1       4.100  -7.167  26.868  0.00  0.00    -0.387 OA
ATOM     60  H   UNL     1       3.136  -7.112  26.707  0.00  0.00    +0.210 HD
ENDBRANCH  58  59
BRANCH  57  61
ATOM     61  O   UNL     1       2.296  -5.278  28.081  0.00  0.00    -0.386 OA
ATOM     62  H   UNL     1       1.926  -6.031  28.600  0.00  0.00    +0.210 HD
ENDBRANCH  57  61
BRANCH  56  63
ATOM     63  O   UNL     1       3.895  -4.716  26.226  0.00  0.00    -0.384 OA
ATOM     64  H   UNL     1       3.721  -5.686  26.256  0.00  0.00    +0.210 HD
ENDBRANCH  56  63
ENDBRANCH  51  55
ENDBRANCH  50  51
ENDBRANCH  38  50
ENDBRANCH  37  40
ENDBRANCH   1  37
TORSDOF 21
ENDMDL
MODEL 2
REMARK VINA RESULT:      -7.0      2.343      3.362
REMARK  Name = 
REMARK  22 active torsions:
REMARK  status: ('A' for Active; 'I' for Inactive)
REMARK    1  A    between atoms: C_1  and  C_2
REMARK    2  A    between atoms: C_3  and  O_60
REMARK    3  A    between atoms: C_5  and  O_59
REMARK    4  A    between atoms: C_6  and  O_58
REMARK    5  A    between atoms: C_8  and  O_11
REMARK    6  A    between atoms: O_11  and  C_12
REMARK    7  A    between atoms: C_12  and  C_13
REMARK    8  A    between atoms: C_14  and  O_57
REMARK    9  A    between atoms: C_16  and  O_56
REMARK   10  A    between atoms: C_18  and  O_55
REMARK   11  A    between atoms: C_19  and  O_22
REMARK   12  A    between atoms: O_22  and  C_23
REMARK   13  A    between atoms: C_24  and  C_36
REMARK   14  A    between atoms: C_28  and  O_35
REMARK   15  A    between atoms: C_30  and  O_34
REMARK   16  A    between atoms: C_38  and  O_43
REMARK   17  A    between atoms: C_39  and  O_42
REMARK   18  A    between atoms: O_43  and  C_44
REMARK   19  A    between atoms: C_46  and  O_54
REMARK   20  A    between atoms: C_48  and  C_51
REMARK   21  A    between atoms: C_48  and  O_53
REMARK   22  A    between atoms: C_51  and  O_52
REMARK                            x       y       z     vdW  Elec       q    Type
REMARK                         _______ _______ _______ _____ _____    ______ ____
ROOT
ATOM      1  C   UNL     1       7.104   2.314  25.877  0.00  0.00    +0.214 A 
ATOM      2  C   UNL     1       7.270   3.829  26.032  0.00  0.00    +0.238 A 
ATOM      3  O   UNL     1       7.568   4.292  27.129  0.00  0.00    -0.283 OA
ATOM      4  C   UNL     1       7.048   4.760  24.826  0.00  0.00    +0.109 A 
ATOM      5  C   UNL     1       6.918   4.133  23.610  0.00  0.00    +0.147 A 
ATOM      6  C   UNL     1       6.586   4.872  22.453  0.00  0.00    +0.092 A 
ATOM      7  C   UNL     1       6.200   6.206  22.562  0.00  0.00    +0.124 A 
ATOM      8  C   UNL     1       6.277   6.839  23.776  0.00  0.00    +0.091 A 
ATOM      9  O   UNL     1       7.181   2.801  23.463  0.00  0.00    -0.451 OA
ATOM     10  C   UNL     1       6.853   6.150  24.846  0.00  0.00    +0.135 A 
ATOM     11  C   UNL     1       7.375   1.990  24.592  0.00  0.00    +0.181 A 
ENDROOT
BRANCH  11  12
ATOM     12  C   UNL     1       8.260   0.894  24.196  0.00  0.00    +0.025 A 
ATOM     13  C   UNL     1       9.484   1.317  23.598  0.00  0.00    +0.015 A 
ATOM     14  C   UNL     1      10.208   0.457  22.773  0.00  0.00    +0.050 A 
ATOM     15  C   UNL     1       9.803  -0.866  22.641  0.00  0.00    +0.159 A 
ATOM     16  C   UNL     1       8.666  -1.334  23.309  0.00  0.00    +0.166 A 
ATOM     17  C   UNL     1       7.847  -0.431  24.014  0.00  0.00    +0.061 A 
BRANCH  15  18
ATOM     18  O   UNL     1      10.578  -1.699  21.881  0.00  0.00    -0.503 OA
ATOM     19  H   UNL     1      10.667  -2.545  22.354  0.00  0.00    +0.292 HD
ENDBRANCH  15  18
BRANCH  16  20
ATOM     20  O   UNL     1       8.273  -2.644  23.398  0.00  0.00    -0.457 OA
BRANCH  20  21
ATOM     21  C   UNL     1       8.795  -3.367  24.519  0.00  0.00    +0.339 C 
ATOM     22  O   UNL     1       9.253  -4.675  24.102  0.00  0.00    -0.337 OA
ATOM     23  C   UNL     1       8.853  -5.644  25.102  0.00  0.00    +0.204 C 
ATOM     24  C   UNL     1       8.365  -4.851  26.320  0.00  0.00    +0.144 C 
ATOM     25  C   UNL     1       7.757  -3.638  25.632  0.00  0.00    +0.219 C 
BRANCH  25  26
ATOM     26  O   UNL     1       6.452  -3.957  25.113  0.00  0.00    -0.383 OA
ATOM     27  H   UNL     1       6.130  -4.733  25.612  0.00  0.00    +0.210 HD
ENDBRANCH  25  26
BRANCH  24  28
ATOM     28  O   UNL     1       9.483  -4.428  27.130  0.00  0.00    -0.381 OA
ATOM     29  H   UNL     1      10.026  -5.206  27.354  0.00  0.00    +0.210 HD
ENDBRANCH  24  28
BRANCH  24  30
ATOM     30  C   UNL     1       7.401  -5.628  27.207  0.00  0.00    +0.195 C 
BRANCH  30  31
ATOM     31  O   UNL     1       6.578  -4.814  27.995  0.00  0.00    -0.392 OA
ATOM     32  H   UNL     1       6.614  -5.163  28.936  0.00  0.00    +0.210 HD
ENDBRANCH  30  31
ENDBRANCH  24  30
ENDBRANCH  20  21
ENDBRANCH  16  20
ENDBRANCH  11  12
BRANCH  10  33
ATOM     33  O   UNL     1       7.178   6.978  25.892  0.00  0.00    -0.506 OA
ATOM     34  H   UNL     1       7.451   7.811  25.440  0.00  0.00    +0.292 HD
ENDBRANCH  10  33
BRANCH   7  35
ATOM     35  O   UNL     1       5.790   6.952  21.500  0.00  0.00    -0.507 OA
ATOM     36  H   UNL     1       5.684   7.872  21.782  0.00  0.00    +0.292 HD
ENDBRANCH   7  35
BRANCH   1  37
ATOM     37  O   UNL     1       7.282   1.418  26.976  0.00  0.00    -0.453 OA
BRANCH  37  40
ATOM     38  C   UNL     1       3.916  -0.392  26.706  0.00  0.00    +0.179 C 
ATOM     39  O   UNL     1       5.097   0.440  26.458  0.00  0.00    -0.331 OA
ATOM     40  C   UNL     1       6.243   0.404  27.362  0.00  0.00    +0.340 C 
ATOM     41  C   UNL     1       5.701   0.671  28.832  0.00  0.00    +0.214 C 
ATOM     42  C   UNL     1       4.539  -0.310  29.134  0.00  0.00    +0.180 C 
ATOM     43  C   UNL     1       3.394  -0.095  28.132  0.00  0.00    +0.177 C 
BRANCH  43  44
ATOM     44  O   UNL     1       2.279  -0.918  28.521  0.00  0.00    -0.386 OA
ATOM     45  H   UNL     1       2.635  -1.727  28.936  0.00  0.00    +0.210 HD
ENDBRANCH  43  44
BRANCH  42  46
ATOM     46  O   UNL     1       3.992  -0.186  30.457  0.00  0.00    -0.386 OA
ATOM     47  H   UNL     1       4.364  -0.944  30.957  0.00  0.00    +0.210 HD
ENDBRANCH  42  46
BRANCH  41  48
ATOM     48  O   UNL     1       5.222   2.019  29.003  0.00  0.00    -0.383 OA
ATOM     49  H   UNL     1       4.287   2.044  28.738  0.00  0.00    +0.210 HD
ENDBRANCH  41  48
BRANCH  38  50
ATOM     50  C   UNL     1       3.890  -1.987  26.490  0.00  0.00    +0.197 C 
BRANCH  50  51
ATOM     51  O   UNL     1       3.235  -2.647  25.397  0.00  0.00    -0.346 OA
BRANCH  51  55
ATOM     52  C   UNL     1       2.702  -6.964  26.789  0.00  0.00    +0.041 C 
ATOM     53  C   UNL     1       3.914  -6.270  26.167  0.00  0.00    +0.149 C 
ATOM     54  O   UNL     1       3.925  -4.818  26.302  0.00  0.00    -0.343 OA
ATOM     55  C   UNL     1       3.016  -4.071  25.479  0.00  0.00    +0.282 C 
ATOM     56  C   UNL     1       3.009  -4.503  24.048  0.00  0.00    +0.201 C 
ATOM     57  C   UNL     1       2.887  -5.988  23.959  0.00  0.00    +0.179 C 
ATOM     58  C   UNL     1       4.021  -6.711  24.705  0.00  0.00    +0.174 C 
BRANCH  58  59
ATOM     59  O   UNL     1       5.340  -6.403  24.228  0.00  0.00    -0.387 OA
ATOM     60  H   UNL     1       5.287  -6.510  23.256  0.00  0.00    +0.210 HD
ENDBRANCH  58  59
BRANCH  57  61
ATOM     61  O   UNL     1       2.986  -6.186  22.583  0.00  0.00    -0.386 OA
ATOM     62  H   UNL     1       3.938  -6.409  22.459  0.00  0.00    +0.210 HD
ENDBRANCH  57  61
BRANCH  56  63
ATOM     63  O   UNL     1       4.280  -4.222  23.467  0.00  0.00    -0.384 OA
ATOM     64  H   UNL     1       4.427  -4.795  22.678  0.00  0.00    +0.210 HD
ENDBRANCH  56  63
ENDBRANCH  51  55
ENDBRANCH  50  51
ENDBRANCH  38  50
ENDBRANCH  37  40
ENDBRANCH   1  37
TORSDOF 21
ENDMDL
MODEL 3
REMARK VINA RESULT:      -7.0      2.236      4.902
REMARK  Name = 
REMARK  22 active torsions:
REMARK  status: ('A' for Active; 'I' for Inactive)
REMARK    1  A    between atoms: C_1  and  C_2
REMARK    2  A    between atoms: C_3  and  O_60
REMARK    3  A    between atoms: C_5  and  O_59
REMARK    4  A    between atoms: C_6  and  O_58
REMARK    5  A    between atoms: C_8  and  O_11
REMARK    6  A    between atoms: O_11  and  C_12
REMARK    7  A    between atoms: C_12  and  C_13
REMARK    8  A    between atoms: C_14  and  O_57
REMARK    9  A    between atoms: C_16  and  O_56
REMARK   10  A    between atoms: C_18  and  O_55
REMARK   11  A    between atoms: C_19  and  O_22
REMARK   12  A    between atoms: O_22  and  C_23
REMARK   13  A    between atoms: C_24  and  C_36
REMARK   14  A    between atoms: C_28  and  O_35
REMARK   15  A    between atoms: C_30  and  O_34
REMARK   16  A    between atoms: C_38  and  O_43
REMARK   17  A    between atoms: C_39  and  O_42
REMARK   18  A    between atoms: O_43  and  C_44
REMARK   19  A    between atoms: C_46  and  O_54
REMARK   20  A    between atoms: C_48  and  C_51
REMARK   21  A    between atoms: C_48  and  O_53
REMARK   22  A    between atoms: C_51  and  O_52
REMARK                            x       y       z     vdW  Elec       q    Type
REMARK                         _______ _______ _______ _____ _____    ______ ____
ROOT
ATOM      1  C   UNL     1       6.487  -0.612  26.753  0.00  0.00    +0.214 A 
ATOM      2  C   UNL     1       6.840   0.846  27.063  0.00  0.00    +0.238 A 
ATOM      3  O   UNL     1       6.609   1.297  28.181  0.00  0.00    -0.283 OA
ATOM      4  C   UNL     1       7.463   1.741  25.974  0.00  0.00    +0.109 A 
ATOM      5  C   UNL     1       7.864   1.091  24.832  0.00  0.00    +0.147 A 
ATOM      6  C   UNL     1       8.332   1.821  23.717  0.00  0.00    +0.092 A 
ATOM      7  C   UNL     1       8.214   3.209  23.691  0.00  0.00    +0.124 A 
ATOM      8  C   UNL     1       7.772   3.875  24.804  0.00  0.00    +0.091 A 
ATOM      9  O   UNL     1       7.898  -0.273  24.762  0.00  0.00    -0.451 OA
ATOM     10  C   UNL     1       7.561   3.141  25.975  0.00  0.00    +0.135 A 
ATOM     11  C   UNL     1       7.316  -1.047  25.777  0.00  0.00    +0.181 A 
ENDROOT
BRANCH  11  12
ATOM     12  C   UNL     1       8.045  -2.315  25.831  0.00  0.00    +0.025 A 
ATOM     13  C   UNL     1       9.223  -2.348  25.028  0.00  0.00    +0.015 A 
ATOM     14  C   UNL     1       9.763  -3.563  24.606  0.00  0.00    +0.050 A 
ATOM     15  C   UNL     1       9.227  -4.752  25.083  0.00  0.00    +0.159 A 
ATOM     16  C   UNL     1       8.138  -4.742  25.963  0.00  0.00    +0.166 A 
ATOM     17  C   UNL     1       7.493  -3.527  26.265  0.00  0.00    +0.061 A 
BRANCH  15  18
ATOM     18  O   UNL     1       9.827  -5.922  24.704  0.00  0.00    -0.503 OA
ATOM     19  H   UNL     1       9.563  -6.114  23.787  0.00  0.00    +0.292 HD
ENDBRANCH  15  18
BRANCH  16  20
ATOM     20  O   UNL     1       7.640  -5.829  26.633  0.00  0.00    -0.457 OA
BRANCH  20  21
ATOM     21  C   UNL     1       6.852  -5.529  27.791  0.00  0.00    +0.339 C 
ATOM     22  O   UNL     1       7.201  -6.418  28.879  0.00  0.00    -0.337 OA
ATOM     23  C   UNL     1       5.982  -6.826  29.548  0.00  0.00    +0.204 C 
ATOM     24  C   UNL     1       4.859  -5.929  29.015  0.00  0.00    +0.144 C 
ATOM     25  C   UNL     1       5.332  -5.719  27.585  0.00  0.00    +0.219 C 
BRANCH  25  26
ATOM     26  O   UNL     1       5.018  -6.869  26.777  0.00  0.00    -0.383 OA
ATOM     27  H   UNL     1       5.178  -7.658  27.333  0.00  0.00    +0.210 HD
ENDBRANCH  25  26
BRANCH  24  28
ATOM     28  O   UNL     1       4.853  -4.661  29.705  0.00  0.00    -0.381 OA
ATOM     29  H   UNL     1       5.324  -4.001  29.165  0.00  0.00    +0.210 HD
ENDBRANCH  24  28
BRANCH  24  30
ATOM     30  C   UNL     1       3.473  -6.548  29.142  0.00  0.00    +0.195 C 
BRANCH  30  31
ATOM     31  O   UNL     1       3.482  -7.947  29.180  0.00  0.00    -0.392 OA
ATOM     32  H   UNL     1       4.414  -8.252  28.962  0.00  0.00    +0.210 HD
ENDBRANCH  30  31
ENDBRANCH  24  30
ENDBRANCH  20  21
ENDBRANCH  16  20
ENDBRANCH  11  12
BRANCH  10  33
ATOM     33  O   UNL     1       7.451   3.940  27.085  0.00  0.00    -0.506 OA
ATOM     34  H   UNL     1       8.386   4.191  27.274  0.00  0.00    +0.292 HD
ENDBRANCH  10  33
BRANCH   7  35
ATOM     35  O   UNL     1       8.569   3.966  22.617  0.00  0.00    -0.507 OA
ATOM     36  H   UNL     1       8.166   3.592  21.819  0.00  0.00    +0.292 HD
ENDBRANCH   7  35
BRANCH   1  37
ATOM     37  O   UNL     1       5.890  -1.467  27.729  0.00  0.00    -0.453 OA
BRANCH  37  40
ATOM     38  C   UNL     1       3.068  -2.847  25.535  0.00  0.00    +0.179 C 
ATOM     39  O   UNL     1       4.287  -2.199  26.028  0.00  0.00    -0.331 OA
ATOM     40  C   UNL     1       4.677  -2.302  27.431  0.00  0.00    +0.340 C 
ATOM     41  C   UNL     1       3.435  -1.839  28.308  0.00  0.00    +0.214 C 
ATOM     42  C   UNL     1       2.176  -2.632  27.869  0.00  0.00    +0.180 C 
ATOM     43  C   UNL     1       1.872  -2.361  26.388  0.00  0.00    +0.177 C 
BRANCH  43  44
ATOM     44  O   UNL     1       0.625  -2.996  26.049  0.00  0.00    -0.386 OA
ATOM     45  H   UNL     1       0.007  -2.301  25.750  0.00  0.00    +0.210 HD
ENDBRANCH  43  44
BRANCH  42  46
ATOM     46  O   UNL     1       0.993  -2.322  28.624  0.00  0.00    -0.386 OA
ATOM     47  H   UNL     1       0.517  -3.176  28.710  0.00  0.00    +0.210 HD
ENDBRANCH  42  46
BRANCH  41  48
ATOM     48  O   UNL     1       3.162  -0.431  28.171  0.00  0.00    -0.383 OA
ATOM     49  H   UNL     1       3.639   0.040  28.875  0.00  0.00    +0.210 HD
ENDBRANCH  41  48
BRANCH  38  50
ATOM     50  C   UNL     1       2.923  -4.438  25.338  0.00  0.00    +0.197 C 
BRANCH  50  51
ATOM     51  O   UNL     1       3.746  -5.225  24.466  0.00  0.00    -0.346 OA
BRANCH  51  55
ATOM     52  C   UNL     1       6.561  -2.288  22.391  0.00  0.00    +0.041 C 
ATOM     53  C   UNL     1       5.653  -3.367  21.803  0.00  0.00    +0.149 C 
ATOM     54  O   UNL     1       4.546  -3.772  22.661  0.00  0.00    -0.343 OA
ATOM     55  C   UNL     1       4.857  -4.589  23.801  0.00  0.00    +0.282 C 
ATOM     56  C   UNL     1       5.774  -5.728  23.489  0.00  0.00    +0.201 C 
ATOM     57  C   UNL     1       6.946  -5.246  22.702  0.00  0.00    +0.179 C 
ATOM     58  C   UNL     1       6.525  -4.557  21.393  0.00  0.00    +0.174 C 
BRANCH  58  59
ATOM     59  O   UNL     1       5.774  -5.389  20.495  0.00  0.00    -0.387 OA
ATOM     60  H   UNL     1       6.047  -5.101  19.600  0.00  0.00    +0.210 HD
ENDBRANCH  58  59
BRANCH  57  61
ATOM     61  O   UNL     1       7.612  -6.443  22.446  0.00  0.00    -0.386 OA
ATOM     62  H   UNL     1       7.821  -6.379  21.485  0.00  0.00    +0.210 HD
ENDBRANCH  57  61
BRANCH  56  63
ATOM     63  O   UNL     1       5.112  -6.635  22.610  0.00  0.00    -0.384 OA
ATOM     64  H   UNL     1       5.754  -7.294  22.256  0.00  0.00    +0.210 HD
ENDBRANCH  56  63
ENDBRANCH  51  55
ENDBRANCH  50  51
ENDBRANCH  38  50
ENDBRANCH  37  40
ENDBRANCH   1  37
TORSDOF 21
ENDMDL
MODEL 4
REMARK VINA RESULT:      -6.8      2.521      7.393
REMARK  Name = 
REMARK  22 active torsions:
REMARK  status: ('A' for Active; 'I' for Inactive)
REMARK    1  A    between atoms: C_1  and  C_2
REMARK    2  A    between atoms: C_3  and  O_60
REMARK    3  A    between atoms: C_5  and  O_59
REMARK    4  A    between atoms: C_6  and  O_58
REMARK    5  A    between atoms: C_8  and  O_11
REMARK    6  A    between atoms: O_11  and  C_12
REMARK    7  A    between atoms: C_12  and  C_13
REMARK    8  A    between atoms: C_14  and  O_57
REMARK    9  A    between atoms: C_16  and  O_56
REMARK   10  A    between atoms: C_18  and  O_55
REMARK   11  A    between atoms: C_19  and  O_22
REMARK   12  A    between atoms: O_22  and  C_23
REMARK   13  A    between atoms: C_24  and  C_36
REMARK   14  A    between atoms: C_28  and  O_35
REMARK   15  A    between atoms: C_30  and  O_34
REMARK   16  A    between atoms: C_38  and  O_43
REMARK   17  A    between atoms: C_39  and  O_42
REMARK   18  A    between atoms: O_43  and  C_44
REMARK   19  A    between atoms: C_46  and  O_54
REMARK   20  A    between atoms: C_48  and  C_51
REMARK   21  A    between atoms: C_48  and  O_53
REMARK   22  A    between atoms: C_51  and  O_52
REMARK                            x       y       z     vdW  Elec       q    Type
REMARK                         _______ _______ _______ _____ _____    ______ ____
ROOT
ATOM      1  C   UNL     1       5.061  -0.858  26.431  0.00  0.00    +0.214 A 
ATOM      2  C   UNL     1       4.819   0.603  26.038  0.00  0.00    +0.238 A 
ATOM      3  O   UNL     1       4.965   0.945  24.869  0.00  0.00    -0.283 OA
ATOM      4  C   UNL     1       4.412   1.635  27.108  0.00  0.00    +0.109 A 
ATOM      5  C   UNL     1       4.081   1.115  28.336  0.00  0.00    +0.147 A 
ATOM      6  C   UNL     1       3.815   1.970  29.428  0.00  0.00    +0.092 A 
ATOM      7  C   UNL     1       4.069   3.335  29.327  0.00  0.00    +0.124 A 
ATOM      8  C   UNL     1       4.446   3.869  28.121  0.00  0.00    +0.091 A 
ATOM      9  O   UNL     1       3.922  -0.228  28.522  0.00  0.00    -0.451 OA
ATOM     10  C   UNL     1       4.452   3.034  27.001  0.00  0.00    +0.135 A 
ATOM     11  C   UNL     1       4.308  -1.131  27.520  0.00  0.00    +0.181 A 
ENDROOT
BRANCH  11  12
ATOM     12  C   UNL     1       3.458  -2.316  27.648  0.00  0.00    +0.025 A 
ATOM     13  C   UNL     1       3.778  -3.149  28.761  0.00  0.00    +0.015 A 
ATOM     14  C   UNL     1       3.405  -4.492  28.776  0.00  0.00    +0.050 A 
ATOM     15  C   UNL     1       2.598  -4.988  27.759  0.00  0.00    +0.159 A 
ATOM     16  C   UNL     1       2.177  -4.160  26.713  0.00  0.00    +0.166 A 
ATOM     17  C   UNL     1       2.681  -2.848  26.612  0.00  0.00    +0.061 A 
BRANCH  15  18
ATOM     18  O   UNL     1       2.192  -6.293  27.843  0.00  0.00    -0.503 OA
ATOM     19  H   UNL     1       2.868  -6.848  27.416  0.00  0.00    +0.292 HD
ENDBRANCH  15  18
BRANCH  16  20
ATOM     20  O   UNL     1       1.247  -4.483  25.760  0.00  0.00    -0.457 OA
BRANCH  20  21
ATOM     21  C   UNL     1       1.767  -5.108  24.580  0.00  0.00    +0.339 C 
ATOM     22  O   UNL     1       0.977  -4.737  23.426  0.00  0.00    -0.337 OA
ATOM     23  C   UNL     1       0.790  -5.912  22.599  0.00  0.00    +0.204 C 
ATOM     24  C   UNL     1       1.741  -6.989  23.135  0.00  0.00    +0.144 C 
ATOM     25  C   UNL     1       1.728  -6.653  24.618  0.00  0.00    +0.219 C 
BRANCH  25  26
ATOM     26  O   UNL     1       0.535  -7.166  25.239  0.00  0.00    -0.383 OA
ATOM     27  H   UNL     1       0.041  -6.396  25.585  0.00  0.00    +0.210 HD
ENDBRANCH  25  26
BRANCH  24  28
ATOM     28  O   UNL     1       3.073  -6.793  22.613  0.00  0.00    -0.381 OA
ATOM     29  H   UNL     1       3.678  -6.594  23.351  0.00  0.00    +0.210 HD
ENDBRANCH  24  28
BRANCH  24  30
ATOM     30  C   UNL     1       1.303  -8.409  22.800  0.00  0.00    +0.195 C 
BRANCH  30  31
ATOM     31  O   UNL     1       1.306  -8.692  21.429  0.00  0.00    -0.392 OA
ATOM     32  H   UNL     1       0.441  -9.154  21.211  0.00  0.00    +0.210 HD
ENDBRANCH  30  31
ENDBRANCH  24  30
ENDBRANCH  20  21
ENDBRANCH  16  20
ENDBRANCH  11  12
BRANCH  10  33
ATOM     33  O   UNL     1       4.514   3.735  25.822  0.00  0.00    -0.506 OA
ATOM     34  H   UNL     1       3.582   3.710  25.498  0.00  0.00    +0.292 HD
ENDBRANCH  10  33
BRANCH   7  35
ATOM     35  O   UNL     1       3.912   4.202  30.365  0.00  0.00    -0.507 OA
ATOM     36  H   UNL     1       4.785   4.440  30.713  0.00  0.00    +0.292 HD
ENDBRANCH   7  35
BRANCH   1  37
ATOM     37  O   UNL     1       5.458  -1.840  25.472  0.00  0.00    -0.453 OA
BRANCH  37  40
ATOM     38  C   UNL     1       8.478  -3.673  23.988  0.00  0.00    +0.179 C 
ATOM     39  O   UNL     1       7.236  -2.918  24.177  0.00  0.00    -0.331 OA
ATOM     40  C   UNL     1       6.810  -2.495  25.507  0.00  0.00    +0.340 C 
ATOM     41  C   UNL     1       6.797  -3.783  26.438  0.00  0.00    +0.214 C 
ATOM     42  C   UNL     1       8.168  -4.501  26.335  0.00  0.00    +0.180 C 
ATOM     43  C   UNL     1       8.429  -4.934  24.884  0.00  0.00    +0.177 C 
BRANCH  43  44
ATOM     44  O   UNL     1       9.637  -5.717  24.846  0.00  0.00    -0.386 OA
ATOM     45  H   UNL     1      10.273  -5.256  24.266  0.00  0.00    +0.210 HD
ENDBRANCH  43  44
BRANCH  42  46
ATOM     46  O   UNL     1       8.286  -5.666  27.168  0.00  0.00    -0.386 OA
ATOM     47  H   UNL     1       8.288  -5.321  28.088  0.00  0.00    +0.210 HD
ENDBRANCH  42  46
BRANCH  41  48
ATOM     48  O   UNL     1       5.761  -4.714  26.069  0.00  0.00    -0.383 OA
ATOM     49  H   UNL     1       6.173  -5.581  25.914  0.00  0.00    +0.210 HD
ENDBRANCH  41  48
BRANCH  38  50
ATOM     50  C   UNL     1       9.944  -3.024  24.124  0.00  0.00    +0.197 C 
BRANCH  50  51
ATOM     51  O   UNL     1      10.507  -2.090  23.192  0.00  0.00    -0.346 OA
BRANCH  51  55
ATOM     52  C   UNL     1       9.467   2.133  24.587  0.00  0.00    +0.041 C 
ATOM     53  C   UNL     1       8.557   0.952  24.249  0.00  0.00    +0.149 C 
ATOM     54  O   UNL     1       9.195  -0.356  24.324  0.00  0.00    -0.343 OA
ATOM     55  C   UNL     1      10.113  -0.704  23.276  0.00  0.00    +0.282 C 
ATOM     56  C   UNL     1       9.598  -0.406  21.904  0.00  0.00    +0.201 C 
ATOM     57  C   UNL     1       9.053   0.982  21.849  0.00  0.00    +0.179 C 
ATOM     58  C   UNL     1       7.931   1.208  22.875  0.00  0.00    +0.174 C 
BRANCH  58  59
ATOM     59  O   UNL     1       6.796   0.341  22.720  0.00  0.00    -0.387 OA
ATOM     60  H   UNL     1       6.033   0.946  22.609  0.00  0.00    +0.210 HD
ENDBRANCH  58  59
BRANCH  57  61
ATOM     61  O   UNL     1       8.558   1.027  20.547  0.00  0.00    -0.386 OA
ATOM     62  H   UNL     1       8.698   1.968  20.290  0.00  0.00    +0.210 HD
ENDBRANCH  57  61
BRANCH  56  63
ATOM     63  O   UNL     1       8.470  -1.236  21.637  0.00  0.00    -0.384 OA
ATOM     64  H   UNL     1       8.691  -1.895  20.937  0.00  0.00    +0.210 HD
ENDBRANCH  56  63
ENDBRANCH  51  55
ENDBRANCH  50  51
ENDBRANCH  38  50
ENDBRANCH  37  40
ENDBRANCH   1  37
TORSDOF 21
ENDMDL
MODEL 5
REMARK VINA RESULT:      -6.7      2.519      8.867
REMARK  Name = 
REMARK  22 active torsions:
REMARK  status: ('A' for Active; 'I' for Inactive)
REMARK    1  A    between atoms: C_1  and  C_2
REMARK    2  A    between atoms: C_3  and  O_60
REMARK    3  A    between atoms: C_5  and  O_59
REMARK    4  A    between atoms: C_6  and  O_58
REMARK    5  A    between atoms: C_8  and  O_11
REMARK    6  A    between atoms: O_11  and  C_12
REMARK    7  A    between atoms: C_12  and  C_13
REMARK    8  A    between atoms: C_14  and  O_57
REMARK    9  A    between atoms: C_16  and  O_56
REMARK   10  A    between atoms: C_18  and  O_55
REMARK   11  A    between atoms: C_19  and  O_22
REMARK   12  A    between atoms: O_22  and  C_23
REMARK   13  A    between atoms: C_24  and  C_36
REMARK   14  A    between atoms: C_28  and  O_35
REMARK   15  A    between atoms: C_30  and  O_34
REMARK   16  A    between atoms: C_38  and  O_43
REMARK   17  A    between atoms: C_39  and  O_42
REMARK   18  A    between atoms: O_43  and  C_44
REMARK   19  A    between atoms: C_46  and  O_54
REMARK   20  A    between atoms: C_48  and  C_51
REMARK   21  A    between atoms: C_48  and  O_53
REMARK   22  A    between atoms: C_51  and  O_52
REMARK                            x       y       z     vdW  Elec       q    Type
REMARK                         _______ _______ _______ _____ _____    ______ ____
ROOT
ATOM      1  C   UNL     1       5.836  -2.833  25.780  0.00  0.00    +0.214 A 
ATOM      2  C   UNL     1       4.308  -2.893  25.673  0.00  0.00    +0.238 A 
ATOM      3  O   UNL     1       3.627  -2.153  26.376  0.00  0.00    -0.283 OA
ATOM      4  C   UNL     1       3.638  -3.888  24.706  0.00  0.00    +0.109 A 
ATOM      5  C   UNL     1       4.485  -4.521  23.828  0.00  0.00    +0.147 A 
ATOM      6  C   UNL     1       4.005  -5.544  22.981  0.00  0.00    +0.092 A 
ATOM      7  C   UNL     1       2.721  -6.053  23.156  0.00  0.00    +0.124 A 
ATOM      8  C   UNL     1       1.874  -5.466  24.061  0.00  0.00    +0.091 A 
ATOM      9  O   UNL     1       5.787  -4.134  23.689  0.00  0.00    -0.451 OA
ATOM     10  C   UNL     1       2.295  -4.296  24.698  0.00  0.00    +0.135 A 
ATOM     11  C   UNL     1       6.356  -3.227  24.596  0.00  0.00    +0.181 A 
ENDROOT
BRANCH  11  12
ATOM     12  C   UNL     1       7.408  -2.500  23.884  0.00  0.00    +0.025 A 
ATOM     13  C   UNL     1       8.709  -3.069  24.022  0.00  0.00    +0.015 A 
ATOM     14  C   UNL     1       9.850  -2.295  23.816  0.00  0.00    +0.050 A 
ATOM     15  C   UNL     1       9.718  -0.995  23.341  0.00  0.00    +0.159 A 
ATOM     16  C   UNL     1       8.453  -0.452  23.091  0.00  0.00    +0.166 A 
ATOM     17  C   UNL     1       7.298  -1.174  23.447  0.00  0.00    +0.061 A 
BRANCH  15  18
ATOM     18  O   UNL     1      10.862  -0.290  23.083  0.00  0.00    -0.503 OA
ATOM     19  H   UNL     1      11.103   0.201  23.888  0.00  0.00    +0.292 HD
ENDBRANCH  15  18
BRANCH  16  20
ATOM     20  O   UNL     1       8.204   0.740  22.462  0.00  0.00    -0.457 OA
BRANCH  20  21
ATOM     21  C   UNL     1       8.161   1.889  23.317  0.00  0.00    +0.339 C 
ATOM     22  O   UNL     1       7.279   2.893  22.763  0.00  0.00    -0.337 OA
ATOM     23  C   UNL     1       7.897   4.193  22.935  0.00  0.00    +0.204 C 
ATOM     24  C   UNL     1       9.086   3.999  23.883  0.00  0.00    +0.144 C 
ATOM     25  C   UNL     1       9.524   2.597  23.489  0.00  0.00    +0.219 C 
BRANCH  25  26
ATOM     26  O   UNL     1      10.291   2.633  22.272  0.00  0.00    -0.383 OA
ATOM     27  H   UNL     1      11.220   2.801  22.527  0.00  0.00    +0.210 HD
ENDBRANCH  25  26
BRANCH  24  28
ATOM     28  O   UNL     1       8.642   3.991  25.257  0.00  0.00    -0.381 OA
ATOM     29  H   UNL     1       8.041   4.745  25.401  0.00  0.00    +0.210 HD
ENDBRANCH  24  28
BRANCH  24  30
ATOM     30  C   UNL     1      10.163   5.066  23.735  0.00  0.00    +0.195 C 
BRANCH  30  31
ATOM     31  O   UNL     1       9.772   6.155  22.947  0.00  0.00    -0.392 OA
ATOM     32  H   UNL     1      10.420   6.904  23.118  0.00  0.00    +0.210 HD
ENDBRANCH  30  31
ENDBRANCH  24  30
ENDBRANCH  20  21
ENDBRANCH  16  20
ENDBRANCH  11  12
BRANCH  10  33
ATOM     33  O   UNL     1       1.263  -3.627  25.308  0.00  0.00    -0.506 OA
ATOM     34  H   UNL     1       0.519  -4.273  25.260  0.00  0.00    +0.292 HD
ENDBRANCH  10  33
BRANCH   7  35
ATOM     35  O   UNL     1       2.226  -7.092  22.430  0.00  0.00    -0.507 OA
ATOM     36  H   UNL     1       1.548  -7.548  22.951  0.00  0.00    +0.292 HD
ENDBRANCH   7  35
BRANCH   1  37
ATOM     37  O   UNL     1       6.494  -1.939  26.679  0.00  0.00    -0.453 OA
BRANCH  37  40
ATOM     38  C   UNL     1       5.235   1.550  25.721  0.00  0.00    +0.179 C 
ATOM     39  O   UNL     1       5.651   0.145  25.707  0.00  0.00    -0.331 OA
ATOM     40  C   UNL     1       5.985  -0.550  26.946  0.00  0.00    +0.340 C 
ATOM     41  C   UNL     1       7.076   0.322  27.705  0.00  0.00    +0.214 C 
ATOM     42  C   UNL     1       6.563   1.779  27.836  0.00  0.00    +0.180 C 
ATOM     43  C   UNL     1       6.323   2.381  26.442  0.00  0.00    +0.177 C 
BRANCH  43  44
ATOM     44  O   UNL     1       5.985   3.772  26.592  0.00  0.00    -0.386 OA
ATOM     45  H   UNL     1       6.816   4.270  26.712  0.00  0.00    +0.210 HD
ENDBRANCH  43  44
BRANCH  42  46
ATOM     46  O   UNL     1       7.456   2.656  28.544  0.00  0.00    -0.386 OA
ATOM     47  H   UNL     1       6.869   3.263  29.046  0.00  0.00    +0.210 HD
ENDBRANCH  42  46
BRANCH  41  48
ATOM     48  O   UNL     1       8.341   0.338  27.016  0.00  0.00    -0.383 OA
ATOM     49  H   UNL     1       8.629  -0.581  26.889  0.00  0.00    +0.210 HD
ENDBRANCH  41  48
BRANCH  38  50
ATOM     50  C   UNL     1       3.799   2.048  26.252  0.00  0.00    +0.197 C 
BRANCH  50  51
ATOM     51  O   UNL     1       3.290   3.379  26.088  0.00  0.00    -0.346 OA
BRANCH  51  55
ATOM     52  C   UNL     1       0.861   3.436  22.220  0.00  0.00    +0.041 C 
ATOM     53  C   UNL     1       2.350   3.175  22.447  0.00  0.00    +0.149 C 
ATOM     54  O   UNL     1       2.699   2.743  23.795  0.00  0.00    -0.343 OA
ATOM     55  C   UNL     1       2.666   3.733  24.835  0.00  0.00    +0.282 C 
ATOM     56  C   UNL     1       3.338   5.016  24.464  0.00  0.00    +0.201 C 
ATOM     57  C   UNL     1       2.868   5.473  23.123  0.00  0.00    +0.179 C 
ATOM     58  C   UNL     1       3.126   4.426  22.027  0.00  0.00    +0.174 C 
BRANCH  58  59
ATOM     59  O   UNL     1       4.507   4.073  21.852  0.00  0.00    -0.387 OA
ATOM     60  H   UNL     1       4.895   4.820  21.350  0.00  0.00    +0.210 HD
ENDBRANCH  58  59
BRANCH  57  61
ATOM     61  O   UNL     1       3.658   6.605  22.931  0.00  0.00    -0.386 OA
ATOM     62  H   UNL     1       4.414   6.454  23.546  0.00  0.00    +0.210 HD
ENDBRANCH  57  61
BRANCH  56  63
ATOM     63  O   UNL     1       4.732   4.779  24.283  0.00  0.00    -0.384 OA
ATOM     64  H   UNL     1       4.952   3.848  24.523  0.00  0.00    +0.210 HD
ENDBRANCH  56  63
ENDBRANCH  51  55
ENDBRANCH  50  51
ENDBRANCH  38  50
ENDBRANCH  37  40
ENDBRANCH   1  37
TORSDOF 21
ENDMDL
MODEL 6
REMARK VINA RESULT:      -6.7      2.633      9.438
REMARK  Name = 
REMARK  22 active torsions:
REMARK  status: ('A' for Active; 'I' for Inactive)
REMARK    1  A    between atoms: C_1  and  C_2
REMARK    2  A    between atoms: C_3  and  O_60
REMARK    3  A    between atoms: C_5  and  O_59
REMARK    4  A    between atoms: C_6  and  O_58
REMARK    5  A    between atoms: C_8  and  O_11
REMARK    6  A    between atoms: O_11  and  C_12
REMARK    7  A    between atoms: C_12  and  C_13
REMARK    8  A    between atoms: C_14  and  O_57
REMARK    9  A    between atoms: C_16  and  O_56
REMARK   10  A    between atoms: C_18  and  O_55
REMARK   11  A    between atoms: C_19  and  O_22
REMARK   12  A    between atoms: O_22  and  C_23
REMARK   13  A    between atoms: C_24  and  C_36
REMARK   14  A    between atoms: C_28  and  O_35
REMARK   15  A    between atoms: C_30  and  O_34
REMARK   16  A    between atoms: C_38  and  O_43
REMARK   17  A    between atoms: C_39  and  O_42
REMARK   18  A    between atoms: O_43  and  C_44
REMARK   19  A    between atoms: C_46  and  O_54
REMARK   20  A    between atoms: C_48  and  C_51
REMARK   21  A    between atoms: C_48  and  O_53
REMARK   22  A    between atoms: C_51  and  O_52
REMARK                            x       y       z     vdW  Elec       q    Type
REMARK                         _______ _______ _______ _____ _____    ______ ____
ROOT
ATOM      1  C   UNL     1       6.626  -1.575  25.213  0.00  0.00    +0.214 A 
ATOM      2  C   UNL     1       7.215  -2.925  24.790  0.00  0.00    +0.238 A 
ATOM      3  O   UNL     1       8.424  -3.111  24.887  0.00  0.00    -0.283 OA
ATOM      4  C   UNL     1       6.297  -4.029  24.232  0.00  0.00    +0.109 A 
ATOM      5  C   UNL     1       4.948  -3.795  24.353  0.00  0.00    +0.147 A 
ATOM      6  C   UNL     1       4.012  -4.675  23.767  0.00  0.00    +0.092 A 
ATOM      7  C   UNL     1       4.441  -5.679  22.903  0.00  0.00    +0.124 A 
ATOM      8  C   UNL     1       5.784  -5.900  22.730  0.00  0.00    +0.091 A 
ATOM      9  O   UNL     1       4.469  -2.760  25.103  0.00  0.00    -0.451 OA
ATOM     10  C   UNL     1       6.680  -5.178  23.523  0.00  0.00    +0.135 A 
ATOM     11  C   UNL     1       5.342  -1.775  25.589  0.00  0.00    +0.181 A 
ENDROOT
BRANCH  11  12
ATOM     12  C   UNL     1       4.763  -1.248  26.825  0.00  0.00    +0.025 A 
ATOM     13  C   UNL     1       4.142  -2.234  27.647  0.00  0.00    +0.015 A 
ATOM     14  C   UNL     1       3.175  -1.874  28.586  0.00  0.00    +0.050 A 
ATOM     15  C   UNL     1       2.915  -0.528  28.816  0.00  0.00    +0.159 A 
ATOM     16  C   UNL     1       3.595   0.463  28.100  0.00  0.00    +0.166 A 
ATOM     17  C   UNL     1       4.453   0.100  27.043  0.00  0.00    +0.061 A 
BRANCH  15  18
ATOM     18  O   UNL     1       2.013  -0.209  29.794  0.00  0.00    -0.503 OA
ATOM     19  H   UNL     1       2.510   0.037  30.595  0.00  0.00    +0.292 HD
ENDBRANCH  15  18
BRANCH  16  20
ATOM     20  O   UNL     1       3.554   1.809  28.358  0.00  0.00    -0.457 OA
BRANCH  20  21
ATOM     21  C   UNL     1       4.811   2.408  28.697  0.00  0.00    +0.339 C 
ATOM     22  O   UNL     1       4.606   3.540  29.575  0.00  0.00    -0.337 OA
ATOM     23  C   UNL     1       5.492   4.610  29.161  0.00  0.00    +0.204 C 
ATOM     24  C   UNL     1       6.478   4.006  28.153  0.00  0.00    +0.144 C 
ATOM     25  C   UNL     1       5.587   2.971  27.485  0.00  0.00    +0.219 C 
BRANCH  25  26
ATOM     26  O   UNL     1       4.728   3.598  26.514  0.00  0.00    -0.383 OA
ATOM     27  H   UNL     1       5.305   4.113  25.916  0.00  0.00    +0.210 HD
ENDBRANCH  25  26
BRANCH  24  28
ATOM     28  O   UNL     1       7.556   3.335  28.840  0.00  0.00    -0.381 OA
ATOM     29  H   UNL     1       8.304   3.223  28.226  0.00  0.00    +0.210 HD
ENDBRANCH  24  28
BRANCH  24  30
ATOM     30  C   UNL     1       7.083   5.033  27.204  0.00  0.00    +0.195 C 
BRANCH  30  31
ATOM     31  O   UNL     1       7.446   4.504  25.960  0.00  0.00    -0.392 OA
ATOM     32  H   UNL     1       7.107   3.560  25.919  0.00  0.00    +0.210 HD
ENDBRANCH  30  31
ENDBRANCH  24  30
ENDBRANCH  20  21
ENDBRANCH  16  20
ENDBRANCH  11  12
BRANCH  10  33
ATOM     33  O   UNL     1       7.945  -5.711  23.507  0.00  0.00    -0.506 OA
ATOM     34  H   UNL     1       8.053  -6.001  22.570  0.00  0.00    +0.292 HD
ENDBRANCH  10  33
BRANCH   7  35
ATOM     35  O   UNL     1       3.588  -6.508  22.242  0.00  0.00    -0.507 OA
ATOM     36  H   UNL     1       4.088  -7.259  21.888  0.00  0.00    +0.292 HD
ENDBRANCH   7  35
BRANCH   1  37
ATOM     37  O   UNL     1       7.446  -0.519  25.716  0.00  0.00    -0.453 OA
BRANCH  37  40
ATOM     38  C   UNL     1       7.995   1.334  22.407  0.00  0.00    +0.179 C 
ATOM     39  O   UNL     1       7.540   0.411  23.452  0.00  0.00    -0.331 OA
ATOM     40  C   UNL     1       7.930   0.606  24.845  0.00  0.00    +0.340 C 
ATOM     41  C   UNL     1       9.514   0.722  24.887  0.00  0.00    +0.214 C 
ATOM     42  C   UNL     1       9.975   1.800  23.873  0.00  0.00    +0.180 C 
ATOM     43  C   UNL     1       9.539   1.409  22.452  0.00  0.00    +0.177 C 
BRANCH  43  44
ATOM     44  O   UNL     1      10.100   2.352  21.521  0.00  0.00    -0.386 OA
ATOM     45  H   UNL     1      10.613   1.850  20.859  0.00  0.00    +0.210 HD
ENDBRANCH  43  44
BRANCH  42  46
ATOM     46  O   UNL     1      11.395   2.019  23.851  0.00  0.00    -0.386 OA
ATOM     47  H   UNL     1      11.749   1.458  24.575  0.00  0.00    +0.210 HD
ENDBRANCH  42  46
BRANCH  41  48
ATOM     48  O   UNL     1      10.163  -0.523  24.562  0.00  0.00    -0.383 OA
ATOM     49  H   UNL     1      10.745  -0.764  25.302  0.00  0.00    +0.210 HD
ENDBRANCH  41  48
BRANCH  38  50
ATOM     50  C   UNL     1       7.430   2.831  22.234  0.00  0.00    +0.197 C 
BRANCH  50  51
ATOM     51  O   UNL     1       6.795   3.584  23.277  0.00  0.00    -0.346 OA
BRANCH  51  55
ATOM     52  C   UNL     1       3.514   6.719  22.762  0.00  0.00    +0.041 C 
ATOM     53  C   UNL     1       3.701   5.654  23.842  0.00  0.00    +0.149 C 
ATOM     54  O   UNL     1       5.067   5.168  23.995  0.00  0.00    -0.343 OA
ATOM     55  C   UNL     1       5.573   4.290  22.977  0.00  0.00    +0.282 C 
ATOM     56  C   UNL     1       4.624   3.197  22.602  0.00  0.00    +0.201 C 
ATOM     57  C   UNL     1       3.265   3.758  22.351  0.00  0.00    +0.179 C 
ATOM     58  C   UNL     1       2.713   4.516  23.571  0.00  0.00    +0.174 C 
BRANCH  58  59
ATOM     59  O   UNL     1       2.590   3.722  24.761  0.00  0.00    -0.387 OA
ATOM     60  H   UNL     1       1.789   3.176  24.616  0.00  0.00    +0.210 HD
ENDBRANCH  58  59
BRANCH  57  61
ATOM     61  O   UNL     1       2.533   2.597  22.110  0.00  0.00    -0.386 OA
ATOM     62  H   UNL     1       3.218   1.890  22.153  0.00  0.00    +0.210 HD
ENDBRANCH  57  61
BRANCH  56  63
ATOM     63  O   UNL     1       4.444   2.330  23.719  0.00  0.00    -0.384 OA
ATOM     64  H   UNL     1       4.485   2.845  24.559  0.00  0.00    +0.210 HD
ENDBRANCH  56  63
ENDBRANCH  51  55
ENDBRANCH  50  51
ENDBRANCH  38  50
ENDBRANCH  37  40
ENDBRANCH   1  37
TORSDOF 21
ENDMDL
MODEL 7
REMARK VINA RESULT:      -6.7      2.120      8.696
REMARK  Name = 
REMARK  22 active torsions:
REMARK  status: ('A' for Active; 'I' for Inactive)
REMARK    1  A    between atoms: C_1  and  C_2
REMARK    2  A    between atoms: C_3  and  O_60
REMARK    3  A    between atoms: C_5  and  O_59
REMARK    4  A    between atoms: C_6  and  O_58
REMARK    5  A    between atoms: C_8  and  O_11
REMARK    6  A    between atoms: O_11  and  C_12
REMARK    7  A    between atoms: C_12  and  C_13
REMARK    8  A    between atoms: C_14  and  O_57
REMARK    9  A    between atoms: C_16  and  O_56
REMARK   10  A    between atoms: C_18  and  O_55
REMARK   11  A    between atoms: C_19  and  O_22
REMARK   12  A    between atoms: O_22  and  C_23
REMARK   13  A    between atoms: C_24  and  C_36
REMARK   14  A    between atoms: C_28  and  O_35
REMARK   15  A    between atoms: C_30  and  O_34
REMARK   16  A    between atoms: C_38  and  O_43
REMARK   17  A    between atoms: C_39  and  O_42
REMARK   18  A    between atoms: O_43  and  C_44
REMARK   19  A    between atoms: C_46  and  O_54
REMARK   20  A    between atoms: C_48  and  C_51
REMARK   21  A    between atoms: C_48  and  O_53
REMARK   22  A    between atoms: C_51  and  O_52
REMARK                            x       y       z     vdW  Elec       q    Type
REMARK                         _______ _______ _______ _____ _____    ______ ____
ROOT
ATOM      1  C   UNL     1       6.271  -3.289  26.761  0.00  0.00    +0.214 A 
ATOM      2  C   UNL     1       6.111  -4.632  27.481  0.00  0.00    +0.238 A 
ATOM      3  O   UNL     1       7.078  -5.129  28.049  0.00  0.00    -0.283 OA
ATOM      4  C   UNL     1       4.752  -5.357  27.474  0.00  0.00    +0.109 A 
ATOM      5  C   UNL     1       3.694  -4.628  26.988  0.00  0.00    +0.147 A 
ATOM      6  C   UNL     1       2.427  -5.228  26.815  0.00  0.00    +0.092 A 
ATOM      7  C   UNL     1       2.281  -6.606  26.952  0.00  0.00    +0.124 A 
ATOM      8  C   UNL     1       3.339  -7.361  27.391  0.00  0.00    +0.091 A 
ATOM      9  O   UNL     1       3.807  -3.291  26.732  0.00  0.00    -0.451 OA
ATOM     10  C   UNL     1       4.500  -6.700  27.798  0.00  0.00    +0.135 A 
ATOM     11  C   UNL     1       5.067  -2.673  26.748  0.00  0.00    +0.181 A 
ENDROOT
BRANCH  11  12
ATOM     12  C   UNL     1       4.862  -1.274  27.126  0.00  0.00    +0.025 A 
ATOM     13  C   UNL     1       4.673  -1.066  28.524  0.00  0.00    +0.015 A 
ATOM     14  C   UNL     1       4.030   0.078  28.994  0.00  0.00    +0.050 A 
ATOM     15  C   UNL     1       3.692   1.087  28.100  0.00  0.00    +0.159 A 
ATOM     16  C   UNL     1       3.970   0.955  26.735  0.00  0.00    +0.166 A 
ATOM     17  C   UNL     1       4.474  -0.263  26.238  0.00  0.00    +0.061 A 
BRANCH  15  18
ATOM     18  O   UNL     1       3.127   2.227  28.606  0.00  0.00    -0.503 OA
ATOM     19  H   UNL     1       3.695   2.551  29.327  0.00  0.00    +0.292 HD
ENDBRANCH  15  18
BRANCH  16  20
ATOM     20  O   UNL     1       3.847   1.943  25.793  0.00  0.00    -0.457 OA
BRANCH  20  21
ATOM     21  C   UNL     1       4.983   2.805  25.655  0.00  0.00    +0.339 C 
ATOM     22  O   UNL     1       4.553   4.176  25.482  0.00  0.00    -0.337 OA
ATOM     23  C   UNL     1       5.382   4.793  24.465  0.00  0.00    +0.204 C 
ATOM     24  C   UNL     1       6.549   3.834  24.201  0.00  0.00    +0.144 C 
ATOM     25  C   UNL     1       5.860   2.496  24.421  0.00  0.00    +0.219 C 
BRANCH  25  26
ATOM     26  O   UNL     1       5.087   2.132  23.263  0.00  0.00    -0.383 OA
ATOM     27  H   UNL     1       4.938   1.167  23.314  0.00  0.00    +0.210 HD
ENDBRANCH  25  26
BRANCH  24  28
ATOM     28  O   UNL     1       7.582   4.008  25.195  0.00  0.00    -0.381 OA
ATOM     29  H   UNL     1       7.269   3.650  26.046  0.00  0.00    +0.210 HD
ENDBRANCH  24  28
BRANCH  24  30
ATOM     30  C   UNL     1       7.179   4.006  22.824  0.00  0.00    +0.195 C 
BRANCH  30  31
ATOM     31  O   UNL     1       6.261   4.347  21.823  0.00  0.00    -0.392 OA
ATOM     32  H   UNL     1       5.739   5.142  22.146  0.00  0.00    +0.210 HD
ENDBRANCH  30  31
ENDBRANCH  24  30
ENDBRANCH  20  21
ENDBRANCH  16  20
ENDBRANCH  11  12
BRANCH  10  33
ATOM     33  O   UNL     1       5.343  -7.510  28.518  0.00  0.00    -0.506 OA
ATOM     34  H   UNL     1       5.010  -8.416  28.314  0.00  0.00    +0.292 HD
ENDBRANCH  10  33
BRANCH   7  35
ATOM     35  O   UNL     1       1.109  -7.258  26.721  0.00  0.00    -0.507 OA
ATOM     36  H   UNL     1       0.514  -6.673  26.229  0.00  0.00    +0.292 HD
ENDBRANCH   7  35
BRANCH   1  37
ATOM     37  O   UNL     1       7.519  -2.595  26.729  0.00  0.00    -0.453 OA
BRANCH  37  40
ATOM     38  C   UNL     1       9.725  -1.649  23.741  0.00  0.00    +0.179 C 
ATOM     39  O   UNL     1       9.079  -2.349  24.856  0.00  0.00    -0.331 OA
ATOM     40  C   UNL     1       7.942  -1.758  25.554  0.00  0.00    +0.340 C 
ATOM     41  C   UNL     1       8.369  -0.299  26.016  0.00  0.00    +0.214 C 
ATOM     42  C   UNL     1       8.925   0.481  24.797  0.00  0.00    +0.180 C 
ATOM     43  C   UNL     1      10.154  -0.243  24.224  0.00  0.00    +0.177 C 
BRANCH  43  44
ATOM     44  O   UNL     1      10.728   0.573  23.187  0.00  0.00    -0.386 OA
ATOM     45  H   UNL     1      11.216  -0.015  22.579  0.00  0.00    +0.210 HD
ENDBRANCH  43  44
BRANCH  42  46
ATOM     46  O   UNL     1       9.311   1.834  25.089  0.00  0.00    -0.386 OA
ATOM     47  H   UNL     1       9.733   2.160  24.265  0.00  0.00    +0.210 HD
ENDBRANCH  42  46
BRANCH  41  48
ATOM     48  O   UNL     1       9.377  -0.324  27.045  0.00  0.00    -0.383 OA
ATOM     49  H   UNL     1      10.242  -0.177  26.627  0.00  0.00    +0.210 HD
ENDBRANCH  41  48
BRANCH  38  50
ATOM     50  C   UNL     1       9.060  -1.493  22.284  0.00  0.00    +0.197 C 
BRANCH  50  51
ATOM     51  O   UNL     1       7.884  -2.190  21.850  0.00  0.00    -0.346 OA
BRANCH  51  55
ATOM     52  C   UNL     1       7.500  -5.932  24.440  0.00  0.00    +0.041 C 
ATOM     53  C   UNL     1       7.324  -5.753  22.933  0.00  0.00    +0.149 C 
ATOM     54  O   UNL     1       7.989  -4.583  22.371  0.00  0.00    -0.343 OA
ATOM     55  C   UNL     1       7.405  -3.299  22.640  0.00  0.00    +0.282 C 
ATOM     56  C   UNL     1       5.925  -3.258  22.433  0.00  0.00    +0.201 C 
ATOM     57  C   UNL     1       5.277  -4.416  23.115  0.00  0.00    +0.179 C 
ATOM     58  C   UNL     1       5.825  -5.765  22.620  0.00  0.00    +0.174 C 
BRANCH  58  59
ATOM     59  O   UNL     1       5.651  -6.000  21.214  0.00  0.00    -0.387 OA
ATOM     60  H   UNL     1       6.559  -6.127  20.868  0.00  0.00    +0.210 HD
ENDBRANCH  58  59
BRANCH  57  61
ATOM     61  O   UNL     1       3.947  -4.246  22.736  0.00  0.00    -0.386 OA
ATOM     62  H   UNL     1       3.471  -4.905  23.294  0.00  0.00    +0.210 HD
ENDBRANCH  57  61
BRANCH  56  63
ATOM     63  O   UNL     1       5.639  -3.464  21.051  0.00  0.00    -0.384 OA
ATOM     64  H   UNL     1       5.155  -4.314  20.927  0.00  0.00    +0.210 HD
ENDBRANCH  56  63
ENDBRANCH  51  55
ENDBRANCH  50  51
ENDBRANCH  38  50
ENDBRANCH  37  40
ENDBRANCH   1  37
TORSDOF 21
ENDMDL
MODEL 8
REMARK VINA RESULT:      -6.7      3.112      7.680
REMARK  Name = 
REMARK  22 active torsions:
REMARK  status: ('A' for Active; 'I' for Inactive)
REMARK    1  A    between atoms: C_1  and  C_2
REMARK    2  A    between atoms: C_3  and  O_60
REMARK    3  A    between atoms: C_5  and  O_59
REMARK    4  A    between atoms: C_6  and  O_58
REMARK    5  A    between atoms: C_8  and  O_11
REMARK    6  A    between atoms: O_11  and  C_12
REMARK    7  A    between atoms: C_12  and  C_13
REMARK    8  A    between atoms: C_14  and  O_57
REMARK    9  A    between atoms: C_16  and  O_56
REMARK   10  A    between atoms: C_18  and  O_55
REMARK   11  A    between atoms: C_19  and  O_22
REMARK   12  A    between atoms: O_22  and  C_23
REMARK   13  A    between atoms: C_24  and  C_36
REMARK   14  A    between atoms: C_28  and  O_35
REMARK   15  A    between atoms: C_30  and  O_34
REMARK   16  A    between atoms: C_38  and  O_43
REMARK   17  A    between atoms: C_39  and  O_42
REMARK   18  A    between atoms: O_43  and  C_44
REMARK   19  A    between atoms: C_46  and  O_54
REMARK   20  A    between atoms: C_48  and  C_51
REMARK   21  A    between atoms: C_48  and  O_53
REMARK   22  A    between atoms: C_51  and  O_52
REMARK                            x       y       z     vdW  Elec       q    Type
REMARK                         _______ _______ _______ _____ _____    ______ ____
ROOT
ATOM      1  C   UNL     1       6.593   4.423  22.502  0.00  0.00    +0.214 A 
ATOM      2  C   UNL     1       5.279   3.641  22.409  0.00  0.00    +0.238 A 
ATOM      3  O   UNL     1       5.312   2.418  22.320  0.00  0.00    -0.283 OA
ATOM      4  C   UNL     1       3.932   4.388  22.409  0.00  0.00    +0.109 A 
ATOM      5  C   UNL     1       3.997   5.726  22.713  0.00  0.00    +0.147 A 
ATOM      6  C   UNL     1       2.846   6.540  22.621  0.00  0.00    +0.092 A 
ATOM      7  C   UNL     1       1.682   6.042  22.041  0.00  0.00    +0.124 A 
ATOM      8  C   UNL     1       1.611   4.719  21.686  0.00  0.00    +0.091 A 
ATOM      9  O   UNL     1       5.144   6.295  23.187  0.00  0.00    -0.451 OA
ATOM     10  C   UNL     1       2.678   3.884  22.027  0.00  0.00    +0.135 A 
ATOM     11  C   UNL     1       6.350   5.577  23.165  0.00  0.00    +0.181 A 
ENDROOT
BRANCH  11  12
ATOM     12  C   UNL     1       7.174   6.074  24.268  0.00  0.00    +0.025 A 
ATOM     13  C   UNL     1       8.301   6.845  23.855  0.00  0.00    +0.015 A 
ATOM     14  C   UNL     1       9.405   6.999  24.693  0.00  0.00    +0.050 A 
ATOM     15  C   UNL     1       9.349   6.509  25.993  0.00  0.00    +0.159 A 
ATOM     16  C   UNL     1       8.208   5.846  26.458  0.00  0.00    +0.166 A 
ATOM     17  C   UNL     1       7.158   5.551  25.567  0.00  0.00    +0.061 A 
BRANCH  15  18
ATOM     18  O   UNL     1      10.422   6.741  26.810  0.00  0.00    -0.503 OA
ATOM     19  H   UNL     1      10.772   7.626  26.605  0.00  0.00    +0.292 HD
ENDBRANCH  15  18
BRANCH  16  20
ATOM     20  O   UNL     1       7.968   5.480  27.756  0.00  0.00    -0.457 OA
BRANCH  20  21
ATOM     21  C   UNL     1       6.643   5.007  28.027  0.00  0.00    +0.339 C 
ATOM     22  O   UNL     1       6.115   5.647  29.213  0.00  0.00    -0.337 OA
ATOM     23  C   UNL     1       5.412   4.651  29.998  0.00  0.00    +0.204 C 
ATOM     24  C   UNL     1       5.272   3.406  29.115  0.00  0.00    +0.144 C 
ATOM     25  C   UNL     1       6.562   3.491  28.314  0.00  0.00    +0.219 C 
BRANCH  25  26
ATOM     26  O   UNL     1       7.672   3.011  29.095  0.00  0.00    -0.383 OA
ATOM     27  H   UNL     1       7.735   3.588  29.882  0.00  0.00    +0.210 HD
ENDBRANCH  25  26
BRANCH  24  28
ATOM     28  O   UNL     1       4.146   3.543  28.222  0.00  0.00    -0.381 OA
ATOM     29  H   UNL     1       4.006   2.700  27.753  0.00  0.00    +0.210 HD
ENDBRANCH  24  28
BRANCH  24  30
ATOM     30  C   UNL     1       5.098   2.115  29.906  0.00  0.00    +0.195 C 
BRANCH  30  31
ATOM     31  O   UNL     1       5.701   1.002  29.309  0.00  0.00    -0.392 OA
ATOM     32  H   UNL     1       6.662   0.982  29.603  0.00  0.00    +0.210 HD
ENDBRANCH  30  31
ENDBRANCH  24  30
ENDBRANCH  20  21
ENDBRANCH  16  20
ENDBRANCH  11  12
BRANCH  10  33
ATOM     33  O   UNL     1       2.358   2.553  21.929  0.00  0.00    -0.506 OA
ATOM     34  H   UNL     1       2.616   2.196  22.812  0.00  0.00    +0.292 HD
ENDBRANCH  10  33
BRANCH   7  35
ATOM     35  O   UNL     1       0.565   6.795  21.848  0.00  0.00    -0.507 OA
ATOM     36  H   UNL     1       0.351   6.806  20.903  0.00  0.00    +0.292 HD
ENDBRANCH   7  35
BRANCH   1  37
ATOM     37  O   UNL     1       7.863   3.769  22.486  0.00  0.00    -0.453 OA
BRANCH  37  40
ATOM     38  C   UNL     1       9.004   0.913  24.772  0.00  0.00    +0.179 C 
ATOM     39  O   UNL     1       8.649   2.222  24.215  0.00  0.00    -0.331 OA
ATOM     40  C   UNL     1       8.032   2.333  22.897  0.00  0.00    +0.340 C 
ATOM     41  C   UNL     1       8.955   1.548  21.868  0.00  0.00    +0.214 C 
ATOM     42  C   UNL     1       9.212   0.116  22.404  0.00  0.00    +0.180 C 
ATOM     43  C   UNL     1       9.922   0.181  23.765  0.00  0.00    +0.177 C 
BRANCH  43  44
ATOM     44  O   UNL     1      10.272  -1.156  24.168  0.00  0.00    -0.386 OA
ATOM     45  H   UNL     1       9.481  -1.718  24.054  0.00  0.00    +0.210 HD
ENDBRANCH  43  44
BRANCH  42  46
ATOM     46  O   UNL     1      10.009  -0.703  21.532  0.00  0.00    -0.386 OA
ATOM     47  H   UNL     1       9.754  -1.626  21.749  0.00  0.00    +0.210 HD
ENDBRANCH  42  46
BRANCH  41  48
ATOM     48  O   UNL     1      10.224   2.199  21.665  0.00  0.00    -0.383 OA
ATOM     49  H   UNL     1      10.401   2.766  22.435  0.00  0.00    +0.210 HD
ENDBRANCH  41  48
BRANCH  38  50
ATOM     50  C   UNL     1       7.921  -0.145  25.317  0.00  0.00    +0.197 C 
BRANCH  50  51
ATOM     51  O   UNL     1       7.326  -1.180  24.522  0.00  0.00    -0.346 OA
BRANCH  51  55
ATOM     52  C   UNL     1       7.301  -4.882  27.197  0.00  0.00    +0.041 C 
ATOM     53  C   UNL     1       8.439  -4.251  26.395  0.00  0.00    +0.149 C 
ATOM     54  O   UNL     1       8.252  -2.843  26.067  0.00  0.00    -0.343 OA
ATOM     55  C   UNL     1       7.293  -2.525  25.046  0.00  0.00    +0.282 C 
ATOM     56  C   UNL     1       7.414  -3.377  23.823  0.00  0.00    +0.201 C 
ATOM     57  C   UNL     1       7.494  -4.817  24.205  0.00  0.00    +0.179 C 
ATOM     58  C   UNL     1       8.675  -5.105  25.147  0.00  0.00    +0.174 C 
BRANCH  58  59
ATOM     59  O   UNL     1       9.965  -4.778  24.605  0.00  0.00    -0.387 OA
ATOM     60  H   UNL     1      10.413  -5.641  24.486  0.00  0.00    +0.210 HD
ENDBRANCH  58  59
BRANCH  57  61
ATOM     61  O   UNL     1       7.686  -5.417  22.962  0.00  0.00    -0.386 OA
ATOM     62  H   UNL     1       6.771  -5.665  22.692  0.00  0.00    +0.210 HD
ENDBRANCH  57  61
BRANCH  56  63
ATOM     63  O   UNL     1       8.664  -3.113  23.190  0.00  0.00    -0.384 OA
ATOM     64  H   UNL     1       9.365  -3.695  23.568  0.00  0.00    +0.210 HD
ENDBRANCH  56  63
ENDBRANCH  51  55
ENDBRANCH  50  51
ENDBRANCH  38  50
ENDBRANCH  37  40
ENDBRANCH   1  37
TORSDOF 21
ENDMDL
MODEL 9
REMARK VINA RESULT:      -6.6      2.102      8.746
REMARK  Name = 
REMARK  22 active torsions:
REMARK  status: ('A' for Active; 'I' for Inactive)
REMARK    1  A    between atoms: C_1  and  C_2
REMARK    2  A    between atoms: C_3  and  O_60
REMARK    3  A    between atoms: C_5  and  O_59
REMARK    4  A    between atoms: C_6  and  O_58
REMARK    5  A    between atoms: C_8  and  O_11
REMARK    6  A    between atoms: O_11  and  C_12
REMARK    7  A    between atoms: C_12  and  C_13
REMARK    8  A    between atoms: C_14  and  O_57
REMARK    9  A    between atoms: C_16  and  O_56
REMARK   10  A    between atoms: C_18  and  O_55
REMARK   11  A    between atoms: C_19  and  O_22
REMARK   12  A    between atoms: O_22  and  C_23
REMARK   13  A    between atoms: C_24  and  C_36
REMARK   14  A    between atoms: C_28  and  O_35
REMARK   15  A    between atoms: C_30  and  O_34
REMARK   16  A    between atoms: C_38  and  O_43
REMARK   17  A    between atoms: C_39  and  O_42
REMARK   18  A    between atoms: O_43  and  C_44
REMARK   19  A    between atoms: C_46  and  O_54
REMARK   20  A    between atoms: C_48  and  C_51
REMARK   21  A    between atoms: C_48  and  O_53
REMARK   22  A    between atoms: C_51  and  O_52
REMARK                            x       y       z     vdW  Elec       q    Type
REMARK                         _______ _______ _______ _____ _____    ______ ____
ROOT
ATOM      1  C   UNL     1       3.775  -2.511  26.649  0.00  0.00    +0.214 A 
ATOM      2  C   UNL     1       2.640  -2.928  27.590  0.00  0.00    +0.238 A 
ATOM      3  O   UNL     1       1.701  -2.161  27.777  0.00  0.00    -0.283 OA
ATOM      4  C   UNL     1       2.690  -4.291  28.307  0.00  0.00    +0.109 A 
ATOM      5  C   UNL     1       3.672  -5.150  27.877  0.00  0.00    +0.147 A 
ATOM      6  C   UNL     1       3.896  -6.376  28.543  0.00  0.00    +0.092 A 
ATOM      7  C   UNL     1       3.256  -6.642  29.751  0.00  0.00    +0.124 A 
ATOM      8  C   UNL     1       2.306  -5.774  30.223  0.00  0.00    +0.091 A 
ATOM      9  O   UNL     1       4.407  -4.890  26.755  0.00  0.00    -0.451 OA
ATOM     10  C   UNL     1       1.927  -4.702  29.411  0.00  0.00    +0.135 A 
ATOM     11  C   UNL     1       4.331  -3.633  26.137  0.00  0.00    +0.181 A 
ENDROOT
BRANCH  11  12
ATOM     12  C   UNL     1       4.610  -3.828  24.714  0.00  0.00    +0.025 A 
ATOM     13  C   UNL     1       4.257  -5.119  24.220  0.00  0.00    +0.015 A 
ATOM     14  C   UNL     1       4.849  -5.626  23.063  0.00  0.00    +0.050 A 
ATOM     15  C   UNL     1       5.689  -4.812  22.313  0.00  0.00    +0.159 A 
ATOM     16  C   UNL     1       5.962  -3.500  22.719  0.00  0.00    +0.166 A 
ATOM     17  C   UNL     1       5.494  -3.041  23.965  0.00  0.00    +0.061 A 
BRANCH  15  18
ATOM     18  O   UNL     1       6.195  -5.318  21.146  0.00  0.00    -0.503 OA
ATOM     19  H   UNL     1       5.886  -6.236  21.056  0.00  0.00    +0.292 HD
ENDBRANCH  15  18
BRANCH  16  20
ATOM     20  O   UNL     1       6.625  -2.555  21.980  0.00  0.00    -0.457 OA
BRANCH  20  21
ATOM     21  C   UNL     1       8.041  -2.497  22.185  0.00  0.00    +0.339 C 
ATOM     22  O   UNL     1       8.388  -3.094  23.457  0.00  0.00    -0.337 OA
ATOM     23  C   UNL     1       9.402  -2.274  24.090  0.00  0.00    +0.204 C 
ATOM     24  C   UNL     1       9.892  -1.278  23.032  0.00  0.00    +0.144 C 
ATOM     25  C   UNL     1       8.610  -1.060  22.244  0.00  0.00    +0.219 C 
BRANCH  25  26
ATOM     26  O   UNL     1       7.742  -0.145  22.939  0.00  0.00    -0.383 OA
ATOM     27  H   UNL     1       6.993   0.046  22.339  0.00  0.00    +0.210 HD
ENDBRANCH  25  26
BRANCH  24  28
ATOM     28  O   UNL     1      10.879  -1.893  22.176  0.00  0.00    -0.381 OA
ATOM     29  H   UNL     1      11.769  -1.662  22.499  0.00  0.00    +0.210 HD
ENDBRANCH  24  28
BRANCH  24  30
ATOM     30  C   UNL     1      10.498  -0.011  23.623  0.00  0.00    +0.195 C 
BRANCH  30  31
ATOM     31  O   UNL     1      10.363   1.115  22.802  0.00  0.00    -0.392 OA
ATOM     32  H   UNL     1      10.833   1.879  23.253  0.00  0.00    +0.210 HD
ENDBRANCH  30  31
ENDBRANCH  24  30
ENDBRANCH  20  21
ENDBRANCH  16  20
ENDBRANCH  11  12
BRANCH  10  33
ATOM     33  O   UNL     1       0.759  -4.113  29.827  0.00  0.00    -0.506 OA
ATOM     34  H   UNL     1       0.920  -3.154  29.658  0.00  0.00    +0.292 HD
ENDBRANCH  10  33
BRANCH   7  35
ATOM     35  O   UNL     1       3.488  -7.765  30.485  0.00  0.00    -0.507 OA
ATOM     36  H   UNL     1       2.657  -8.253  30.586  0.00  0.00    +0.292 HD
ENDBRANCH   7  35
BRANCH   1  37
ATOM     37  O   UNL     1       3.775  -1.248  25.981  0.00  0.00    -0.453 OA
BRANCH  37  40
ATOM     38  C   UNL     1       7.158   0.163  27.099  0.00  0.00    +0.179 C 
ATOM     39  O   UNL     1       6.072  -0.707  26.638  0.00  0.00    -0.331 OA
ATOM     40  C   UNL     1       4.756  -0.161  26.320  0.00  0.00    +0.340 C 
ATOM     41  C   UNL     1       4.269   0.677  27.579  0.00  0.00    +0.214 C 
ATOM     42  C   UNL     1       5.373   1.692  27.975  0.00  0.00    +0.180 C 
ATOM     43  C   UNL     1       6.668   0.948  28.339  0.00  0.00    +0.177 C 
BRANCH  43  44
ATOM     44  O   UNL     1       7.624   1.902  28.834  0.00  0.00    -0.386 OA
ATOM     45  H   UNL     1       7.522   2.724  28.316  0.00  0.00    +0.210 HD
ENDBRANCH  43  44
BRANCH  42  46
ATOM     46  O   UNL     1       5.026   2.536  29.086  0.00  0.00    -0.386 OA
ATOM     47  H   UNL     1       5.849   3.027  29.297  0.00  0.00    +0.210 HD
ENDBRANCH  42  46
BRANCH  41  48
ATOM     48  O   UNL     1       3.984  -0.160  28.717  0.00  0.00    -0.383 OA
ATOM     49  H   UNL     1       4.285  -1.062  28.513  0.00  0.00    +0.210 HD
ENDBRANCH  41  48
BRANCH  38  50
ATOM     50  C   UNL     1       7.943   1.190  26.140  0.00  0.00    +0.197 C 
BRANCH  50  51
ATOM     51  O   UNL     1       7.666   2.595  26.056  0.00  0.00    -0.346 OA
BRANCH  51  55
ATOM     52  C   UNL     1       4.766   3.358  22.610  0.00  0.00    +0.041 C 
ATOM     53  C   UNL     1       6.094   2.601  22.634  0.00  0.00    +0.149 C 
ATOM     54  O   UNL     1       6.505   2.123  23.949  0.00  0.00    -0.343 OA
ATOM     55  C   UNL     1       6.991   3.099  24.884  0.00  0.00    +0.282 C 
ATOM     56  C   UNL     1       7.982   4.051  24.295  0.00  0.00    +0.201 C 
ATOM     57  C   UNL     1       7.470   4.596  23.004  0.00  0.00    +0.179 C 
ATOM     58  C   UNL     1       7.162   3.485  21.985  0.00  0.00    +0.174 C 
BRANCH  58  59
ATOM     59  O   UNL     1       8.289   2.665  21.638  0.00  0.00    -0.387 OA
ATOM     60  H   UNL     1       8.918   3.275  21.201  0.00  0.00    +0.210 HD
ENDBRANCH  58  59
BRANCH  57  61
ATOM     61  O   UNL     1       8.551   5.371  22.589  0.00  0.00    -0.386 OA
ATOM     62  H   UNL     1       9.234   5.184  23.274  0.00  0.00    +0.210 HD
ENDBRANCH  57  61
BRANCH  56  63
ATOM     63  O   UNL     1       9.160   3.335  23.930  0.00  0.00    -0.384 OA
ATOM     64  H   UNL     1       8.918   2.496  23.472  0.00  0.00    +0.210 HD
ENDBRANCH  56  63
ENDBRANCH  51  55
ENDBRANCH  50  51
ENDBRANCH  38  50
ENDBRANCH  37  40
ENDBRANCH   1  37
TORSDOF 21
ENDMDL
