MODEL 1
REMARK VINA RESULT:      -7.2      0.000      0.000
REMARK  Name = 
REMARK  18 active torsions:
REMARK  status: ('A' for Active; 'I' for Inactive)
REMARK    1  A    between atoms: C_3  and  O_54
REMARK    2  A    between atoms: C_4  and  O_53
REMARK    3  A    between atoms: C_6  and  C_7
REMARK    4  A    between atoms: C_8  and  O_20
REMARK    5  A    between atoms: C_12  and  O_19
REMARK    6  A    between atoms: C_14  and  O_18
REMARK    7  A    between atoms: O_20  and  C_21
REMARK    8  A    between atoms: C_23  and  O_52
REMARK    9  A    between atoms: C_25  and  O_51
REMARK   10  A    between atoms: C_27  and  O_34
REMARK   11  A    between atoms: C_29  and  C_32
REMARK   12  A    between atoms: C_32  and  O_33
REMARK   13  A    between atoms: O_34  and  C_35
REMARK   14  A    between atoms: C_37  and  O_50
REMARK   15  A    between atoms: C_39  and  O_49
REMARK   16  A    between atoms: C_41  and  O_48
REMARK   17  A    between atoms: C_43  and  C_46
REMARK   18  A    between atoms: C_46  and  O_47
REMARK                            x       y       z     vdW  Elec       q    Type
REMARK                         _______ _______ _______ _____ _____    ______ ____
ROOT
ATOM      1  C   UNL     1       7.780   1.387  23.875  0.00  0.00    +0.340 C 
ATOM      2  O   UNL     1       8.839   1.107  24.788  0.00  0.00    -0.331 OA
ATOM      3  C   UNL     1       9.841   0.112  24.598  0.00  0.00    +0.179 C 
ATOM      4  C   UNL     1       9.494  -0.953  23.543  0.00  0.00    +0.184 C 
ATOM      5  C   UNL     1       8.865  -0.282  22.326  0.00  0.00    +0.180 C 
ATOM      6  C   UNL     1       7.560   0.418  22.709  0.00  0.00    +0.214 C 
ENDROOT
BRANCH   5   7
ATOM      7  O   UNL     1       9.801   0.632  21.738  0.00  0.00    -0.386 OA
ATOM      8  H   UNL     1      10.524   0.809  22.374  0.00  0.00    +0.210 HD
ENDBRANCH   5   7
BRANCH   6   9
ATOM      9  O   UNL     1       6.478  -0.475  22.987  0.00  0.00    -0.383 OA
ATOM     10  H   UNL     1       6.013  -0.176  23.797  0.00  0.00    +0.210 HD
ENDBRANCH   6   9
BRANCH   1  11
ATOM     11  O   UNL     1       7.962   2.665  23.236  0.00  0.00    -0.453 OA
BRANCH  11  22
ATOM     12  C   UNL     1       7.438   4.764  24.277  0.00  0.00    +0.181 A 
ATOM     13  O   UNL     1       6.492   5.617  24.865  0.00  0.00    -0.451 OA
ATOM     14  C   UNL     1       5.207   5.159  25.018  0.00  0.00    +0.147 A 
ATOM     15  C   UNL     1       4.712   4.117  24.256  0.00  0.00    +0.109 A 
ATOM     16  C   UNL     1       3.383   3.695  24.369  0.00  0.00    +0.135 A 
ATOM     17  C   UNL     1       2.535   4.334  25.261  0.00  0.00    +0.091 A 
ATOM     18  C   UNL     1       3.034   5.385  26.024  0.00  0.00    +0.124 A 
ATOM     19  C   UNL     1       5.617   3.506  23.310  0.00  0.00    +0.238 A 
ATOM     20  O   UNL     1       5.125   2.932  22.342  0.00  0.00    -0.283 OA
ATOM     21  C   UNL     1       4.364   5.800  25.922  0.00  0.00    +0.092 A 
ATOM     22  C   UNL     1       7.078   3.657  23.585  0.00  0.00    +0.214 A 
BRANCH  12  24
ATOM     23  C   UNL     1       9.132   6.060  25.626  0.00  0.00    +0.015 A 
ATOM     24  C   UNL     1       8.847   5.279  24.479  0.00  0.00    +0.025 A 
ATOM     25  C   UNL     1       9.887   5.140  23.538  0.00  0.00    +0.060 A 
ATOM     26  C   UNL     1      11.135   5.749  23.754  0.00  0.00    +0.159 A 
ATOM     27  C   UNL     1      11.371   6.518  24.885  0.00  0.00    +0.158 A 
ATOM     28  C   UNL     1      10.378   6.683  25.823  0.00  0.00    +0.050 A 
BRANCH  26  29
ATOM     29  O   UNL     1      12.129   5.608  22.822  0.00  0.00    -0.503 OA
ATOM     30  H   UNL     1      12.150   4.652  22.622  0.00  0.00    +0.292 HD
ENDBRANCH  26  29
BRANCH  27  31
ATOM     31  O   UNL     1      12.605   7.106  25.012  0.00  0.00    -0.503 OA
ATOM     32  H   UNL     1      13.067   6.678  25.752  0.00  0.00    +0.292 HD
ENDBRANCH  27  31
ENDBRANCH  12  24
BRANCH  18  33
ATOM     33  O   UNL     1       2.226   6.064  26.887  0.00  0.00    -0.507 OA
ATOM     34  H   UNL     1       1.725   6.728  26.379  0.00  0.00    +0.292 HD
ENDBRANCH  18  33
BRANCH  16  35
ATOM     35  O   UNL     1       2.861   2.667  23.630  0.00  0.00    -0.506 OA
ATOM     36  H   UNL     1       2.380   3.060  22.867  0.00  0.00    +0.292 HD
ENDBRANCH  16  35
ENDBRANCH  11  22
ENDBRANCH   1  11
BRANCH   3  37
ATOM     37  C   UNL     1      11.222   0.774  24.464  0.00  0.00    +0.190 C 
BRANCH  37  38
ATOM     38  O   UNL     1      11.129   2.083  23.878  0.00  0.00    -0.392 OA
ATOM     39  H   UNL     1      11.841   2.178  23.222  0.00  0.00    +0.210 HD
ENDBRANCH  37  38
ENDBRANCH   3  37
BRANCH   4  40
ATOM     40  O   UNL     1       8.616  -1.846  24.244  0.00  0.00    -0.340 OA
BRANCH  40  41
ATOM     41  C   UNL     1       9.131  -2.938  24.981  0.00  0.00    +0.282 C 
ATOM     42  O   UNL     1       9.069  -4.094  24.134  0.00  0.00    -0.341 OA
ATOM     43  C   UNL     1       7.750  -4.572  23.796  0.00  0.00    +0.178 C 
ATOM     44  C   UNL     1       6.882  -4.764  25.058  0.00  0.00    +0.177 C 
ATOM     45  C   UNL     1       6.956  -3.568  26.026  0.00  0.00    +0.179 C 
ATOM     46  C   UNL     1       8.410  -3.186  26.309  0.00  0.00    +0.201 C 
BRANCH  44  47
ATOM     47  O   UNL     1       7.369  -5.942  25.728  0.00  0.00    -0.386 OA
ATOM     48  H   UNL     1       7.871  -5.658  26.514  0.00  0.00    +0.210 HD
ENDBRANCH  44  47
BRANCH  45  49
ATOM     49  O   UNL     1       6.197  -2.461  25.534  0.00  0.00    -0.386 OA
ATOM     50  H   UNL     1       6.295  -2.431  24.563  0.00  0.00    +0.210 HD
ENDBRANCH  45  49
BRANCH  46  51
ATOM     51  O   UNL     1       9.078  -4.227  27.034  0.00  0.00    -0.384 OA
ATOM     52  H   UNL     1       8.883  -4.076  27.985  0.00  0.00    +0.210 HD
ENDBRANCH  46  51
BRANCH  43  53
ATOM     53  C   UNL     1       7.046  -3.759  22.688  0.00  0.00    +0.190 C 
BRANCH  53  54
ATOM     54  O   UNL     1       5.676  -3.511  22.998  0.00  0.00    -0.392 OA
ATOM     55  H   UNL     1       5.142  -3.782  22.231  0.00  0.00    +0.210 HD
ENDBRANCH  53  54
ENDBRANCH  43  53
ENDBRANCH  40  41
ENDBRANCH   4  40
TORSDOF 18
ENDMDL
MODEL 2
REMARK VINA RESULT:      -6.9      2.638      5.629
REMARK  Name = 
REMARK  18 active torsions:
REMARK  status: ('A' for Active; 'I' for Inactive)
REMARK    1  A    between atoms: C_3  and  O_54
REMARK    2  A    between atoms: C_4  and  O_53
REMARK    3  A    between atoms: C_6  and  C_7
REMARK    4  A    between atoms: C_8  and  O_20
REMARK    5  A    between atoms: C_12  and  O_19
REMARK    6  A    between atoms: C_14  and  O_18
REMARK    7  A    between atoms: O_20  and  C_21
REMARK    8  A    between atoms: C_23  and  O_52
REMARK    9  A    between atoms: C_25  and  O_51
REMARK   10  A    between atoms: C_27  and  O_34
REMARK   11  A    between atoms: C_29  and  C_32
REMARK   12  A    between atoms: C_32  and  O_33
REMARK   13  A    between atoms: O_34  and  C_35
REMARK   14  A    between atoms: C_37  and  O_50
REMARK   15  A    between atoms: C_39  and  O_49
REMARK   16  A    between atoms: C_41  and  O_48
REMARK   17  A    between atoms: C_43  and  C_46
REMARK   18  A    between atoms: C_46  and  O_47
REMARK                            x       y       z     vdW  Elec       q    Type
REMARK                         _______ _______ _______ _____ _____    ______ ____
ROOT
ATOM      1  C   UNL     1       6.715  -1.035  24.956  0.00  0.00    +0.340 C 
ATOM      2  O   UNL     1       7.898  -1.758  25.289  0.00  0.00    -0.331 OA
ATOM      3  C   UNL     1       8.226  -3.057  24.804  0.00  0.00    +0.179 C 
ATOM      4  C   UNL     1       7.037  -3.841  24.221  0.00  0.00    +0.184 C 
ATOM      5  C   UNL     1       6.186  -2.913  23.359  0.00  0.00    +0.180 C 
ATOM      6  C   UNL     1       5.608  -1.774  24.201  0.00  0.00    +0.214 C 
ENDROOT
BRANCH   5   7
ATOM      7  O   UNL     1       6.967  -2.417  22.264  0.00  0.00    -0.386 OA
ATOM      8  H   UNL     1       7.279  -1.513  22.473  0.00  0.00    +0.210 HD
ENDBRANCH   5   7
BRANCH   6   9
ATOM      9  O   UNL     1       4.566  -2.179  25.094  0.00  0.00    -0.383 OA
ATOM     10  H   UNL     1       4.229  -1.392  25.573  0.00  0.00    +0.210 HD
ENDBRANCH   6   9
BRANCH   1  11
ATOM     11  O   UNL     1       7.012   0.098  24.117  0.00  0.00    -0.453 OA
BRANCH  11  22
ATOM     12  C   UNL     1       7.028   1.900  25.705  0.00  0.00    +0.181 A 
ATOM     13  O   UNL     1       7.531   3.144  26.113  0.00  0.00    -0.451 OA
ATOM     14  C   UNL     1       8.437   3.780  25.301  0.00  0.00    +0.147 A 
ATOM     15  C   UNL     1       9.181   3.089  24.363  0.00  0.00    +0.109 A 
ATOM     16  C   UNL     1      10.149   3.729  23.582  0.00  0.00    +0.135 A 
ATOM     17  C   UNL     1      10.375   5.087  23.748  0.00  0.00    +0.091 A 
ATOM     18  C   UNL     1       9.628   5.780  24.696  0.00  0.00    +0.124 A 
ATOM     19  C   UNL     1       8.943   1.669  24.251  0.00  0.00    +0.238 A 
ATOM     20  O   UNL     1       9.849   0.975  23.798  0.00  0.00    -0.283 OA
ATOM     21  C   UNL     1       8.652   5.145  25.469  0.00  0.00    +0.092 A 
ATOM     22  C   UNL     1       7.617   1.171  24.726  0.00  0.00    +0.214 A 
BRANCH  12  24
ATOM     23  C   UNL     1       6.023   0.866  27.775  0.00  0.00    +0.015 A 
ATOM     24  C   UNL     1       5.820   1.496  26.524  0.00  0.00    +0.025 A 
ATOM     25  C   UNL     1       4.487   1.593  26.076  0.00  0.00    +0.060 A 
ATOM     26  C   UNL     1       3.431   1.088  26.854  0.00  0.00    +0.159 A 
ATOM     27  C   UNL     1       3.672   0.465  28.070  0.00  0.00    +0.158 A 
ATOM     28  C   UNL     1       4.961   0.345  28.538  0.00  0.00    +0.050 A 
BRANCH  26  29
ATOM     29  O   UNL     1       2.145   1.185  26.395  0.00  0.00    -0.503 OA
ATOM     30  H   UNL     1       2.219   1.104  25.424  0.00  0.00    +0.292 HD
ENDBRANCH  26  29
BRANCH  27  31
ATOM     31  O   UNL     1       2.593  -0.030  28.760  0.00  0.00    -0.503 OA
ATOM     32  H   UNL     1       2.350  -0.885  28.365  0.00  0.00    +0.292 HD
ENDBRANCH  27  31
ENDBRANCH  12  24
BRANCH  18  33
ATOM     33  O   UNL     1       9.843   7.108  24.917  0.00  0.00    -0.507 OA
ATOM     34  H   UNL     1      10.786   7.234  25.125  0.00  0.00    +0.292 HD
ENDBRANCH  18  33
BRANCH  16  35
ATOM     35  O   UNL     1      10.903   3.075  22.645  0.00  0.00    -0.506 OA
ATOM     36  H   UNL     1      10.296   2.517  22.107  0.00  0.00    +0.292 HD
ENDBRANCH  16  35
ENDBRANCH  11  22
ENDBRANCH   1  11
BRANCH   3  37
ATOM     37  C   UNL     1       9.489  -2.990  23.931  0.00  0.00    +0.190 C 
BRANCH  37  38
ATOM     38  O   UNL     1       9.574  -1.749  23.214  0.00  0.00    -0.392 OA
ATOM     39  H   UNL     1      10.317  -1.235  23.574  0.00  0.00    +0.210 HD
ENDBRANCH  37  38
ENDBRANCH   3  37
BRANCH   4  40
ATOM     40  O   UNL     1       6.366  -4.349  25.384  0.00  0.00    -0.340 OA
BRANCH  40  41
ATOM     41  C   UNL     1       6.877  -5.465  26.085  0.00  0.00    +0.282 C 
ATOM     42  O   UNL     1       6.073  -6.598  25.731  0.00  0.00    -0.341 OA
ATOM     43  C   UNL     1       4.702  -6.579  26.183  0.00  0.00    +0.178 C 
ATOM     44  C   UNL     1       4.613  -6.288  27.696  0.00  0.00    +0.177 C 
ATOM     45  C   UNL     1       5.501  -5.109  28.135  0.00  0.00    +0.179 C 
ATOM     46  C   UNL     1       6.927  -5.275  27.604  0.00  0.00    +0.201 C 
BRANCH  44  47
ATOM     47  O   UNL     1       5.043  -7.481  28.379  0.00  0.00    -0.386 OA
ATOM     48  H   UNL     1       5.047  -7.297  29.337  0.00  0.00    +0.210 HD
ENDBRANCH  44  47
BRANCH  45  49
ATOM     49  O   UNL     1       4.927  -3.860  27.746  0.00  0.00    -0.386 OA
ATOM     50  H   UNL     1       5.493  -3.464  27.056  0.00  0.00    +0.210 HD
ENDBRANCH  45  49
BRANCH  46  51
ATOM     51  O   UNL     1       7.568  -6.404  28.212  0.00  0.00    -0.384 OA
ATOM     52  H   UNL     1       8.258  -6.708  27.580  0.00  0.00    +0.210 HD
ENDBRANCH  46  51
BRANCH  43  53
ATOM     53  C   UNL     1       3.769  -5.688  25.334  0.00  0.00    +0.190 C 
BRANCH  53  54
ATOM     54  O   UNL     1       4.081  -5.763  23.943  0.00  0.00    -0.392 OA
ATOM     55  H   UNL     1       3.459  -6.387  23.530  0.00  0.00    +0.210 HD
ENDBRANCH  53  54
ENDBRANCH  43  53
ENDBRANCH  40  41
ENDBRANCH   4  40
TORSDOF 18
ENDMDL
MODEL 3
REMARK VINA RESULT:      -6.9      1.540      2.435
REMARK  Name = 
REMARK  18 active torsions:
REMARK  status: ('A' for Active; 'I' for Inactive)
REMARK    1  A    between atoms: C_3  and  O_54
REMARK    2  A    between atoms: C_4  and  O_53
REMARK    3  A    between atoms: C_6  and  C_7
REMARK    4  A    between atoms: C_8  and  O_20
REMARK    5  A    between atoms: C_12  and  O_19
REMARK    6  A    between atoms: C_14  and  O_18
REMARK    7  A    between atoms: O_20  and  C_21
REMARK    8  A    between atoms: C_23  and  O_52
REMARK    9  A    between atoms: C_25  and  O_51
REMARK   10  A    between atoms: C_27  and  O_34
REMARK   11  A    between atoms: C_29  and  C_32
REMARK   12  A    between atoms: C_32  and  O_33
REMARK   13  A    between atoms: O_34  and  C_35
REMARK   14  A    between atoms: C_37  and  O_50
REMARK   15  A    between atoms: C_39  and  O_49
REMARK   16  A    between atoms: C_41  and  O_48
REMARK   17  A    between atoms: C_43  and  C_46
REMARK   18  A    between atoms: C_46  and  O_47
REMARK                            x       y       z     vdW  Elec       q    Type
REMARK                         _______ _______ _______ _____ _____    ______ ____
ROOT
ATOM      1  C   UNL     1       8.220   1.297  23.207  0.00  0.00    +0.340 C 
ATOM      2  O   UNL     1       7.284   1.115  24.268  0.00  0.00    -0.331 OA
ATOM      3  C   UNL     1       7.461   0.234  25.373  0.00  0.00    +0.179 C 
ATOM      4  C   UNL     1       8.539  -0.845  25.165  0.00  0.00    +0.184 C 
ATOM      5  C   UNL     1       9.763  -0.223  24.499  0.00  0.00    +0.180 C 
ATOM      6  C   UNL     1       9.404   0.330  23.119  0.00  0.00    +0.214 C 
ENDROOT
BRANCH   5   7
ATOM      7  O   UNL     1      10.313   0.792  25.348  0.00  0.00    -0.386 OA
ATOM      8  H   UNL     1       9.814   1.625  25.224  0.00  0.00    +0.210 HD
ENDBRANCH   5   7
BRANCH   6   9
ATOM      9  O   UNL     1       9.166  -0.675  22.130  0.00  0.00    -0.383 OA
ATOM     10  H   UNL     1       8.912  -0.244  21.287  0.00  0.00    +0.210 HD
ENDBRANCH   6   9
BRANCH   1  11
ATOM     11  O   UNL     1       8.837   2.598  23.270  0.00  0.00    -0.453 OA
BRANCH  11  22
ATOM     12  C   UNL     1       8.247   4.890  23.676  0.00  0.00    +0.181 A 
ATOM     13  O   UNL     1       7.264   5.888  23.750  0.00  0.00    -0.451 OA
ATOM     14  C   UNL     1       5.954   5.531  23.547  0.00  0.00    +0.147 A 
ATOM     15  C   UNL     1       5.613   4.376  22.868  0.00  0.00    +0.109 A 
ATOM     16  C   UNL     1       4.279   4.047  22.607  0.00  0.00    +0.135 A 
ATOM     17  C   UNL     1       3.269   4.896  23.034  0.00  0.00    +0.091 A 
ATOM     18  C   UNL     1       3.614   6.060  23.713  0.00  0.00    +0.124 A 
ATOM     19  C   UNL     1       6.698   3.541  22.405  0.00  0.00    +0.238 A 
ATOM     20  O   UNL     1       6.477   2.801  21.450  0.00  0.00    -0.283 OA
ATOM     21  C   UNL     1       4.945   6.384  23.986  0.00  0.00    +0.092 A 
ATOM     22  C   UNL     1       8.003   3.680  23.118  0.00  0.00    +0.214 A 
BRANCH  12  24
ATOM     23  C   UNL     1       9.558   6.232  25.362  0.00  0.00    +0.015 A 
ATOM     24  C   UNL     1       9.567   5.372  24.238  0.00  0.00    +0.025 A 
ATOM     25  C   UNL     1      10.822   5.123  23.646  0.00  0.00    +0.060 A 
ATOM     26  C   UNL     1      11.989   5.704  24.169  0.00  0.00    +0.159 A 
ATOM     27  C   UNL     1      11.937   6.553  25.265  0.00  0.00    +0.158 A 
ATOM     28  C   UNL     1      10.730   6.827  25.866  0.00  0.00    +0.050 A 
BRANCH  26  29
ATOM     29  O   UNL     1      13.196   5.455  23.572  0.00  0.00    -0.503 OA
ATOM     30  H   UNL     1      13.280   4.481  23.573  0.00  0.00    +0.292 HD
ENDBRANCH  26  29
BRANCH  27  31
ATOM     31  O   UNL     1      13.115   7.108  25.700  0.00  0.00    -0.503 OA
ATOM     32  H   UNL     1      13.579   7.473  24.928  0.00  0.00    +0.292 HD
ENDBRANCH  27  31
ENDBRANCH  12  24
BRANCH  18  33
ATOM     33  O   UNL     1       2.654   6.940  24.119  0.00  0.00    -0.507 OA
ATOM     34  H   UNL     1       2.701   7.727  23.547  0.00  0.00    +0.292 HD
ENDBRANCH  18  33
BRANCH  16  35
ATOM     35  O   UNL     1       3.907   2.912  21.937  0.00  0.00    -0.506 OA
ATOM     36  H   UNL     1       4.688   2.314  21.904  0.00  0.00    +0.292 HD
ENDBRANCH  16  35
ENDBRANCH  11  22
ENDBRANCH   1  11
BRANCH   3  37
ATOM     37  C   UNL     1       7.551   1.039  26.680  0.00  0.00    +0.190 C 
BRANCH  37  38
ATOM     38  O   UNL     1       7.669   2.448  26.429  0.00  0.00    -0.392 OA
ATOM     39  H   UNL     1       7.144   2.925  27.094  0.00  0.00    +0.210 HD
ENDBRANCH  37  38
ENDBRANCH   3  37
BRANCH   4  40
ATOM     40  O   UNL     1       7.872  -1.836  24.369  0.00  0.00    -0.340 OA
BRANCH  40  41
ATOM     41  C   UNL     1       6.660  -2.419  24.804  0.00  0.00    +0.282 C 
ATOM     42  O   UNL     1       6.996  -3.517  25.662  0.00  0.00    -0.341 OA
ATOM     43  C   UNL     1       7.647  -4.643  25.038  0.00  0.00    +0.178 C 
ATOM     44  C   UNL     1       6.865  -5.129  23.798  0.00  0.00    +0.177 C 
ATOM     45  C   UNL     1       6.437  -3.977  22.870  0.00  0.00    +0.179 C 
ATOM     46  C   UNL     1       5.742  -2.868  23.663  0.00  0.00    +0.201 C 
BRANCH  44  47
ATOM     47  O   UNL     1       5.690  -5.806  24.282  0.00  0.00    -0.386 OA
ATOM     48  H   UNL     1       4.939  -5.186  24.226  0.00  0.00    +0.210 HD
ENDBRANCH  44  47
BRANCH  45  49
ATOM     49  O   UNL     1       7.546  -3.484  22.117  0.00  0.00    -0.386 OA
ATOM     50  H   UNL     1       7.199  -2.996  21.346  0.00  0.00    +0.210 HD
ENDBRANCH  45  49
BRANCH  46  51
ATOM     51  O   UNL     1       4.495  -3.330  24.199  0.00  0.00    -0.384 OA
ATOM     52  H   UNL     1       3.810  -3.139  23.520  0.00  0.00    +0.210 HD
ENDBRANCH  46  51
BRANCH  43  53
ATOM     53  C   UNL     1       9.152  -4.433  24.767  0.00  0.00    +0.190 C 
BRANCH  53  54
ATOM     54  O   UNL     1       9.892  -5.648  24.894  0.00  0.00    -0.392 OA
ATOM     55  H   UNL     1      10.829  -5.446  24.728  0.00  0.00    +0.210 HD
ENDBRANCH  53  54
ENDBRANCH  43  53
ENDBRANCH  40  41
ENDBRANCH   4  40
TORSDOF 18
ENDMDL
MODEL 4
REMARK VINA RESULT:      -6.9      2.245      7.844
REMARK  Name = 
REMARK  18 active torsions:
REMARK  status: ('A' for Active; 'I' for Inactive)
REMARK    1  A    between atoms: C_3  and  O_54
REMARK    2  A    between atoms: C_4  and  O_53
REMARK    3  A    between atoms: C_6  and  C_7
REMARK    4  A    between atoms: C_8  and  O_20
REMARK    5  A    between atoms: C_12  and  O_19
REMARK    6  A    between atoms: C_14  and  O_18
REMARK    7  A    between atoms: O_20  and  C_21
REMARK    8  A    between atoms: C_23  and  O_52
REMARK    9  A    between atoms: C_25  and  O_51
REMARK   10  A    between atoms: C_27  and  O_34
REMARK   11  A    between atoms: C_29  and  C_32
REMARK   12  A    between atoms: C_32  and  O_33
REMARK   13  A    between atoms: O_34  and  C_35
REMARK   14  A    between atoms: C_37  and  O_50
REMARK   15  A    between atoms: C_39  and  O_49
REMARK   16  A    between atoms: C_41  and  O_48
REMARK   17  A    between atoms: C_43  and  C_46
REMARK   18  A    between atoms: C_46  and  O_47
REMARK                            x       y       z     vdW  Elec       q    Type
REMARK                         _______ _______ _______ _____ _____    ______ ____
ROOT
ATOM      1  C   UNL     1       7.139   0.327  25.819  0.00  0.00    +0.340 C 
ATOM      2  O   UNL     1       7.566   1.451  26.586  0.00  0.00    -0.331 OA
ATOM      3  C   UNL     1       6.729   2.223  27.442  0.00  0.00    +0.179 C 
ATOM      4  C   UNL     1       5.222   2.050  27.189  0.00  0.00    +0.184 C 
ATOM      5  C   UNL     1       4.906   0.574  26.966  0.00  0.00    +0.180 C 
ATOM      6  C   UNL     1       5.636   0.046  25.729  0.00  0.00    +0.214 C 
ENDROOT
BRANCH   5   7
ATOM      7  O   UNL     1       5.245  -0.177  28.139  0.00  0.00    -0.386 OA
ATOM      8  H   UNL     1       5.057   0.361  28.934  0.00  0.00    +0.210 HD
ENDBRANCH   5   7
BRANCH   6   9
ATOM      9  O   UNL     1       5.105   0.522  24.489  0.00  0.00    -0.383 OA
ATOM     10  H   UNL     1       4.493   1.267  24.666  0.00  0.00    +0.210 HD
ENDBRANCH   6   9
BRANCH   1  11
ATOM     11  O   UNL     1       7.691  -0.900  26.335  0.00  0.00    -0.453 OA
BRANCH  11  22
ATOM     12  C   UNL     1       8.416  -1.678  24.182  0.00  0.00    +0.181 A 
ATOM     13  O   UNL     1       8.377  -2.656  23.176  0.00  0.00    -0.451 OA
ATOM     14  C   UNL     1       7.545  -3.734  23.346  0.00  0.00    +0.147 A 
ATOM     15  C   UNL     1       7.096  -4.115  24.596  0.00  0.00    +0.109 A 
ATOM     16  C   UNL     1       6.300  -5.251  24.773  0.00  0.00    +0.135 A 
ATOM     17  C   UNL     1       5.951  -6.021  23.673  0.00  0.00    +0.091 A 
ATOM     18  C   UNL     1       6.409  -5.639  22.415  0.00  0.00    +0.124 A 
ATOM     19  C   UNL     1       7.515  -3.309  25.719  0.00  0.00    +0.238 A 
ATOM     20  O   UNL     1       7.533  -3.842  26.826  0.00  0.00    -0.283 OA
ATOM     21  C   UNL     1       7.193  -4.496  22.235  0.00  0.00    +0.092 A 
ATOM     22  C   UNL     1       7.919  -1.902  25.422  0.00  0.00    +0.214 A 
BRANCH  12  24
ATOM     23  C   UNL     1      10.305  -0.014  24.349  0.00  0.00    +0.015 A 
ATOM     24  C   UNL     1       9.113  -0.421  23.705  0.00  0.00    +0.025 A 
ATOM     25  C   UNL     1       8.593   0.455  22.731  0.00  0.00    +0.060 A 
ATOM     26  C   UNL     1       9.248   1.660  22.428  0.00  0.00    +0.159 A 
ATOM     27  C   UNL     1      10.408   2.030  23.092  0.00  0.00    +0.158 A 
ATOM     28  C   UNL     1      10.943   1.205  24.055  0.00  0.00    +0.050 A 
BRANCH  26  29
ATOM     29  O   UNL     1       8.720   2.501  21.485  0.00  0.00    -0.503 OA
ATOM     30  H   UNL     1       8.072   1.954  20.998  0.00  0.00    +0.292 HD
ENDBRANCH  26  29
BRANCH  27  31
ATOM     31  O   UNL     1      10.976   3.237  22.764  0.00  0.00    -0.503 OA
ATOM     32  H   UNL     1      11.941   3.144  22.835  0.00  0.00    +0.292 HD
ENDBRANCH  27  31
ENDBRANCH  12  24
BRANCH  18  33
ATOM     33  O   UNL     1       6.119  -6.386  21.312  0.00  0.00    -0.507 OA
ATOM     34  H   UNL     1       6.080  -7.322  21.580  0.00  0.00    +0.292 HD
ENDBRANCH  18  33
BRANCH  16  35
ATOM     35  O   UNL     1       5.839  -5.657  25.996  0.00  0.00    -0.506 OA
ATOM     36  H   UNL     1       6.262  -6.521  26.206  0.00  0.00    +0.292 HD
ENDBRANCH  16  35
ENDBRANCH  11  22
ENDBRANCH   1  11
BRANCH   3  37
ATOM     37  C   UNL     1       7.193   2.080  28.901  0.00  0.00    +0.190 C 
BRANCH  37  38
ATOM     38  O   UNL     1       7.943   0.872  29.104  0.00  0.00    -0.392 OA
ATOM     39  H   UNL     1       7.327   0.119  29.085  0.00  0.00    +0.210 HD
ENDBRANCH  37  38
ENDBRANCH   3  37
BRANCH   4  40
ATOM     40  O   UNL     1       4.975   2.886  26.048  0.00  0.00    -0.340 OA
BRANCH  40  41
ATOM     41  C   UNL     1       5.193   4.281  26.112  0.00  0.00    +0.282 C 
ATOM     42  O   UNL     1       4.027   4.922  25.578  0.00  0.00    -0.341 OA
ATOM     43  C   UNL     1       3.781   4.735  24.169  0.00  0.00    +0.178 C 
ATOM     44  C   UNL     1       5.032   5.074  23.330  0.00  0.00    +0.177 C 
ATOM     45  C   UNL     1       6.321   4.449  23.895  0.00  0.00    +0.179 C 
ATOM     46  C   UNL     1       6.460   4.746  25.389  0.00  0.00    +0.201 C 
BRANCH  44  47
ATOM     47  O   UNL     1       5.164   6.508  23.333  0.00  0.00    -0.386 OA
ATOM     48  H   UNL     1       6.077   6.729  23.074  0.00  0.00    +0.210 HD
ENDBRANCH  44  47
BRANCH  45  49
ATOM     49  O   UNL     1       6.376   3.048  23.619  0.00  0.00    -0.386 OA
ATOM     50  H   UNL     1       5.527   2.649  23.890  0.00  0.00    +0.210 HD
ENDBRANCH  45  49
BRANCH  46  51
ATOM     51  O   UNL     1       6.658   6.148  25.614  0.00  0.00    -0.384 OA
ATOM     52  H   UNL     1       5.828   6.488  26.017  0.00  0.00    +0.210 HD
ENDBRANCH  46  51
BRANCH  43  53
ATOM     53  C   UNL     1       3.157   3.369  23.811  0.00  0.00    +0.190 C 
BRANCH  53  54
ATOM     54  O   UNL     1       3.802   2.765  22.690  0.00  0.00    -0.392 OA
ATOM     55  H   UNL     1       3.799   1.802  22.826  0.00  0.00    +0.210 HD
ENDBRANCH  53  54
ENDBRANCH  43  53
ENDBRANCH  40  41
ENDBRANCH   4  40
TORSDOF 18
ENDMDL
MODEL 5
REMARK VINA RESULT:      -6.7      3.492      7.466
REMARK  Name = 
REMARK  18 active torsions:
REMARK  status: ('A' for Active; 'I' for Inactive)
REMARK    1  A    between atoms: C_3  and  O_54
REMARK    2  A    between atoms: C_4  and  O_53
REMARK    3  A    between atoms: C_6  and  C_7
REMARK    4  A    between atoms: C_8  and  O_20
REMARK    5  A    between atoms: C_12  and  O_19
REMARK    6  A    between atoms: C_14  and  O_18
REMARK    7  A    between atoms: O_20  and  C_21
REMARK    8  A    between atoms: C_23  and  O_52
REMARK    9  A    between atoms: C_25  and  O_51
REMARK   10  A    between atoms: C_27  and  O_34
REMARK   11  A    between atoms: C_29  and  C_32
REMARK   12  A    between atoms: C_32  and  O_33
REMARK   13  A    between atoms: O_34  and  C_35
REMARK   14  A    between atoms: C_37  and  O_50
REMARK   15  A    between atoms: C_39  and  O_49
REMARK   16  A    between atoms: C_41  and  O_48
REMARK   17  A    between atoms: C_43  and  C_46
REMARK   18  A    between atoms: C_46  and  O_47
REMARK                            x       y       z     vdW  Elec       q    Type
REMARK                         _______ _______ _______ _____ _____    ______ ____
ROOT
ATOM      1  C   UNL     1       4.863  -2.489  25.930  0.00  0.00    +0.340 C 
ATOM      2  O   UNL     1       3.498  -2.293  25.567  0.00  0.00    -0.331 OA
ATOM      3  C   UNL     1       2.379  -2.781  26.301  0.00  0.00    +0.179 C 
ATOM      4  C   UNL     1       2.709  -3.903  27.301  0.00  0.00    +0.184 C 
ATOM      5  C   UNL     1       4.000  -3.566  28.040  0.00  0.00    +0.180 C 
ATOM      6  C   UNL     1       5.173  -3.470  27.063  0.00  0.00    +0.214 C 
ENDROOT
BRANCH   5   7
ATOM      7  O   UNL     1       3.831  -2.350  28.782  0.00  0.00    -0.386 OA
ATOM      8  H   UNL     1       3.482  -1.655  28.188  0.00  0.00    +0.210 HD
ENDBRANCH   5   7
BRANCH   6   9
ATOM      9  O   UNL     1       5.603  -4.731  26.541  0.00  0.00    -0.383 OA
ATOM     10  H   UNL     1       5.712  -4.656  25.570  0.00  0.00    +0.210 HD
ENDBRANCH   6   9
BRANCH   1  11
ATOM     11  O   UNL     1       5.473  -1.257  26.360  0.00  0.00    -0.453 OA
BRANCH  11  22
ATOM     12  C   UNL     1       7.423  -1.074  24.971  0.00  0.00    +0.181 A 
ATOM     13  O   UNL     1       8.322  -0.272  24.252  0.00  0.00    -0.451 OA
ATOM     14  C   UNL     1       8.156   1.090  24.290  0.00  0.00    +0.147 A 
ATOM     15  C   UNL     1       6.943   1.665  24.623  0.00  0.00    +0.109 A 
ATOM     16  C   UNL     1       6.759   3.051  24.599  0.00  0.00    +0.135 A 
ATOM     17  C   UNL     1       7.813   3.875  24.232  0.00  0.00    +0.091 A 
ATOM     18  C   UNL     1       9.031   3.295  23.893  0.00  0.00    +0.124 A 
ATOM     19  C   UNL     1       5.861   0.769  24.959  0.00  0.00    +0.238 A 
ATOM     20  O   UNL     1       4.714   1.181  24.811  0.00  0.00    -0.283 OA
ATOM     21  C   UNL     1       9.221   1.911  23.928  0.00  0.00    +0.092 A 
ATOM     22  C   UNL     1       6.243  -0.596  25.433  0.00  0.00    +0.214 A 
BRANCH  12  24
ATOM     23  C   UNL     1       8.653  -2.866  26.253  0.00  0.00    +0.015 A 
ATOM     24  C   UNL     1       7.928  -2.496  25.094  0.00  0.00    +0.025 A 
ATOM     25  C   UNL     1       7.835  -3.464  24.074  0.00  0.00    +0.060 A 
ATOM     26  C   UNL     1       8.433  -4.726  24.227  0.00  0.00    +0.159 A 
ATOM     27  C   UNL     1       9.146  -5.046  25.373  0.00  0.00    +0.158 A 
ATOM     28  C   UNL     1       9.266  -4.125  26.388  0.00  0.00    +0.050 A 
BRANCH  26  29
ATOM     29  O   UNL     1       8.337  -5.649  23.219  0.00  0.00    -0.503 OA
ATOM     30  H   UNL     1       9.225  -5.666  22.811  0.00  0.00    +0.292 HD
ENDBRANCH  26  29
BRANCH  27  31
ATOM     31  O   UNL     1       9.728  -6.288  25.438  0.00  0.00    -0.503 OA
ATOM     32  H   UNL     1       9.609  -6.722  24.576  0.00  0.00    +0.292 HD
ENDBRANCH  27  31
ENDBRANCH  12  24
BRANCH  18  33
ATOM     33  O   UNL     1      10.082   4.066  23.492  0.00  0.00    -0.507 OA
ATOM     34  H   UNL     1       9.748   4.961  23.302  0.00  0.00    +0.292 HD
ENDBRANCH  18  33
BRANCH  16  35
ATOM     35  O   UNL     1       5.572   3.652  24.922  0.00  0.00    -0.506 OA
ATOM     36  H   UNL     1       5.608   4.580  24.596  0.00  0.00    +0.292 HD
ENDBRANCH  16  35
ENDBRANCH  11  22
ENDBRANCH   1  11
BRANCH   3  37
ATOM     37  C   UNL     1       1.555  -1.604  26.849  0.00  0.00    +0.190 C 
BRANCH  37  38
ATOM     38  O   UNL     1       2.337  -0.403  26.935  0.00  0.00    -0.392 OA
ATOM     39  H   UNL     1       2.358  -0.114  27.864  0.00  0.00    +0.210 HD
ENDBRANCH  37  38
ENDBRANCH   3  37
BRANCH   4  40
ATOM     40  O   UNL     1       2.790  -5.075  26.475  0.00  0.00    -0.340 OA
BRANCH  40  41
ATOM     41  C   UNL     1       2.830  -6.365  27.052  0.00  0.00    +0.282 C 
ATOM     42  O   UNL     1       3.876  -7.095  26.397  0.00  0.00    -0.341 OA
ATOM     43  C   UNL     1       3.665  -7.410  25.005  0.00  0.00    +0.178 C 
ATOM     44  C   UNL     1       2.296  -8.087  24.782  0.00  0.00    +0.177 C 
ATOM     45  C   UNL     1       1.145  -7.367  25.510  0.00  0.00    +0.179 C 
ATOM     46  C   UNL     1       1.499  -7.120  26.978  0.00  0.00    +0.201 C 
BRANCH  44  47
ATOM     47  O   UNL     1       2.405  -9.431  25.288  0.00  0.00    -0.386 OA
ATOM     48  H   UNL     1       2.519  -9.382  26.255  0.00  0.00    +0.210 HD
ENDBRANCH  44  47
BRANCH  45  49
ATOM     49  O   UNL     1       0.784  -6.161  24.835  0.00  0.00    -0.386 OA
ATOM     50  H   UNL     1       0.178  -5.657  25.412  0.00  0.00    +0.210 HD
ENDBRANCH  45  49
BRANCH  46  51
ATOM     51  O   UNL     1       1.606  -8.359  27.692  0.00  0.00    -0.384 OA
ATOM     52  H   UNL     1       1.686  -9.067  27.015  0.00  0.00    +0.210 HD
ENDBRANCH  46  51
BRANCH  43  53
ATOM     53  C   UNL     1       3.926  -6.230  24.043  0.00  0.00    +0.190 C 
BRANCH  53  54
ATOM     54  O   UNL     1       5.320  -6.025  23.817  0.00  0.00    -0.392 OA
ATOM     55  H   UNL     1       5.555  -6.461  22.980  0.00  0.00    +0.210 HD
ENDBRANCH  53  54
ENDBRANCH  43  53
ENDBRANCH  40  41
ENDBRANCH   4  40
TORSDOF 18
ENDMDL
MODEL 6
REMARK VINA RESULT:      -6.6      1.618      2.081
REMARK  Name = 
REMARK  18 active torsions:
REMARK  status: ('A' for Active; 'I' for Inactive)
REMARK    1  A    between atoms: C_3  and  O_54
REMARK    2  A    between atoms: C_4  and  O_53
REMARK    3  A    between atoms: C_6  and  C_7
REMARK    4  A    between atoms: C_8  and  O_20
REMARK    5  A    between atoms: C_12  and  O_19
REMARK    6  A    between atoms: C_14  and  O_18
REMARK    7  A    between atoms: O_20  and  C_21
REMARK    8  A    between atoms: C_23  and  O_52
REMARK    9  A    between atoms: C_25  and  O_51
REMARK   10  A    between atoms: C_27  and  O_34
REMARK   11  A    between atoms: C_29  and  C_32
REMARK   12  A    between atoms: C_32  and  O_33
REMARK   13  A    between atoms: O_34  and  C_35
REMARK   14  A    between atoms: C_37  and  O_50
REMARK   15  A    between atoms: C_39  and  O_49
REMARK   16  A    between atoms: C_41  and  O_48
REMARK   17  A    between atoms: C_43  and  C_46
REMARK   18  A    between atoms: C_46  and  O_47
REMARK                            x       y       z     vdW  Elec       q    Type
REMARK                         _______ _______ _______ _____ _____    ______ ____
ROOT
ATOM      1  C   UNL     1       8.201   1.090  23.547  0.00  0.00    +0.340 C 
ATOM      2  O   UNL     1       7.278   0.956  24.626  0.00  0.00    -0.331 OA
ATOM      3  C   UNL     1       7.461   0.114  25.761  0.00  0.00    +0.179 C 
ATOM      4  C   UNL     1       8.525  -0.983  25.577  0.00  0.00    +0.184 C 
ATOM      5  C   UNL     1       9.746  -0.400  24.872  0.00  0.00    +0.180 C 
ATOM      6  C   UNL     1       9.373   0.107  23.478  0.00  0.00    +0.214 C 
ENDROOT
BRANCH   5   7
ATOM      7  O   UNL     1      10.319   0.640  25.676  0.00  0.00    -0.386 OA
ATOM      8  H   UNL     1      10.986   1.125  25.151  0.00  0.00    +0.210 HD
ENDBRANCH   5   7
BRANCH   6   9
ATOM      9  O   UNL     1       9.111  -0.931  22.529  0.00  0.00    -0.383 OA
ATOM     10  H   UNL     1       8.845  -1.744  23.007  0.00  0.00    +0.210 HD
ENDBRANCH   6   9
BRANCH   1  11
ATOM     11  O   UNL     1       8.832   2.385  23.554  0.00  0.00    -0.453 OA
BRANCH  11  22
ATOM     12  C   UNL     1       8.302   4.727  23.573  0.00  0.00    +0.181 A 
ATOM     13  O   UNL     1       7.351   5.750  23.438  0.00  0.00    -0.451 OA
ATOM     14  C   UNL     1       6.042   5.400  23.219  0.00  0.00    +0.147 A 
ATOM     15  C   UNL     1       5.697   4.164  22.705  0.00  0.00    +0.109 A 
ATOM     16  C   UNL     1       4.368   3.835  22.423  0.00  0.00    +0.135 A 
ATOM     17  C   UNL     1       3.366   4.765  22.658  0.00  0.00    +0.091 A 
ATOM     18  C   UNL     1       3.716   6.010  23.171  0.00  0.00    +0.124 A 
ATOM     19  C   UNL     1       6.774   3.240  22.437  0.00  0.00    +0.238 A 
ATOM     20  O   UNL     1       6.578   2.367  21.595  0.00  0.00    -0.283 OA
ATOM     21  C   UNL     1       5.043   6.338  23.465  0.00  0.00    +0.092 A 
ATOM     22  C   UNL     1       8.045   3.452  23.193  0.00  0.00    +0.214 A 
BRANCH  12  24
ATOM     23  C   UNL     1       9.569   6.208  25.174  0.00  0.00    +0.015 A 
ATOM     24  C   UNL     1       9.607   5.255  24.129  0.00  0.00    +0.025 A 
ATOM     25  C   UNL     1      10.877   4.955  23.595  0.00  0.00    +0.060 A 
ATOM     26  C   UNL     1      12.031   5.579  24.099  0.00  0.00    +0.159 A 
ATOM     27  C   UNL     1      11.951   6.518  25.116  0.00  0.00    +0.158 A 
ATOM     28  C   UNL     1      10.729   6.843  25.657  0.00  0.00    +0.050 A 
BRANCH  26  29
ATOM     29  O   UNL     1      13.254   5.279  23.559  0.00  0.00    -0.503 OA
ATOM     30  H   UNL     1      13.876   5.323  24.312  0.00  0.00    +0.292 HD
ENDBRANCH  26  29
BRANCH  27  31
ATOM     31  O   UNL     1      13.118   7.108  25.535  0.00  0.00    -0.503 OA
ATOM     32  H   UNL     1      13.373   7.773  24.874  0.00  0.00    +0.292 HD
ENDBRANCH  27  31
ENDBRANCH  12  24
BRANCH  18  33
ATOM     33  O   UNL     1       2.768   6.967  23.383  0.00  0.00    -0.507 OA
ATOM     34  H   UNL     1       3.021   7.477  24.174  0.00  0.00    +0.292 HD
ENDBRANCH  18  33
BRANCH  16  35
ATOM     35  O   UNL     1       3.992   2.621  21.914  0.00  0.00    -0.506 OA
ATOM     36  H   UNL     1       3.009   2.575  21.940  0.00  0.00    +0.292 HD
ENDBRANCH  16  35
ENDBRANCH  11  22
ENDBRANCH   1  11
BRANCH   3  37
ATOM     37  C   UNL     1       7.577   0.964  27.036  0.00  0.00    +0.190 C 
BRANCH  37  38
ATOM     38  O   UNL     1       8.338   0.295  28.054  0.00  0.00    -0.392 OA
ATOM     39  H   UNL     1       8.038   0.614  28.923  0.00  0.00    +0.210 HD
ENDBRANCH  37  38
ENDBRANCH   3  37
BRANCH   4  40
ATOM     40  O   UNL     1       7.837  -1.996  24.827  0.00  0.00    -0.340 OA
BRANCH  40  41
ATOM     41  C   UNL     1       8.228  -3.352  24.911  0.00  0.00    +0.282 C 
ATOM     42  O   UNL     1       7.584  -4.051  23.838  0.00  0.00    -0.341 OA
ATOM     43  C   UNL     1       6.148  -4.162  23.915  0.00  0.00    +0.178 C 
ATOM     44  C   UNL     1       5.699  -4.717  25.284  0.00  0.00    +0.177 C 
ATOM     45  C   UNL     1       6.403  -4.030  26.470  0.00  0.00    +0.179 C 
ATOM     46  C   UNL     1       7.919  -4.004  26.261  0.00  0.00    +0.201 C 
BRANCH  44  47
ATOM     47  O   UNL     1       6.020  -6.120  25.295  0.00  0.00    -0.386 OA
ATOM     48  H   UNL     1       6.338  -6.365  24.406  0.00  0.00    +0.210 HD
ENDBRANCH  44  47
BRANCH  45  49
ATOM     49  O   UNL     1       5.871  -2.723  26.697  0.00  0.00    -0.386 OA
ATOM     50  H   UNL     1       6.378  -2.309  27.421  0.00  0.00    +0.210 HD
ENDBRANCH  45  49
BRANCH  46  51
ATOM     51  O   UNL     1       8.460  -5.332  26.292  0.00  0.00    -0.384 OA
ATOM     52  H   UNL     1       9.436  -5.235  26.364  0.00  0.00    +0.210 HD
ENDBRANCH  46  51
BRANCH  43  53
ATOM     53  C   UNL     1       5.391  -2.884  23.495  0.00  0.00    +0.190 C 
BRANCH  53  54
ATOM     54  O   UNL     1       6.151  -2.088  22.587  0.00  0.00    -0.392 OA
ATOM     55  H   UNL     1       6.673  -1.455  23.109  0.00  0.00    +0.210 HD
ENDBRANCH  53  54
ENDBRANCH  43  53
ENDBRANCH  40  41
ENDBRANCH   4  40
TORSDOF 18
ENDMDL
MODEL 7
REMARK VINA RESULT:      -6.6      2.627      8.437
REMARK  Name = 
REMARK  18 active torsions:
REMARK  status: ('A' for Active; 'I' for Inactive)
REMARK    1  A    between atoms: C_3  and  O_54
REMARK    2  A    between atoms: C_4  and  O_53
REMARK    3  A    between atoms: C_6  and  C_7
REMARK    4  A    between atoms: C_8  and  O_20
REMARK    5  A    between atoms: C_12  and  O_19
REMARK    6  A    between atoms: C_14  and  O_18
REMARK    7  A    between atoms: O_20  and  C_21
REMARK    8  A    between atoms: C_23  and  O_52
REMARK    9  A    between atoms: C_25  and  O_51
REMARK   10  A    between atoms: C_27  and  O_34
REMARK   11  A    between atoms: C_29  and  C_32
REMARK   12  A    between atoms: C_32  and  O_33
REMARK   13  A    between atoms: O_34  and  C_35
REMARK   14  A    between atoms: C_37  and  O_50
REMARK   15  A    between atoms: C_39  and  O_49
REMARK   16  A    between atoms: C_41  and  O_48
REMARK   17  A    between atoms: C_43  and  C_46
REMARK   18  A    between atoms: C_46  and  O_47
REMARK                            x       y       z     vdW  Elec       q    Type
REMARK                         _______ _______ _______ _____ _____    ______ ____
ROOT
ATOM      1  C   UNL     1       7.363   0.626  24.354  0.00  0.00    +0.340 C 
ATOM      2  O   UNL     1       7.344   0.902  22.955  0.00  0.00    -0.331 OA
ATOM      3  C   UNL     1       8.311   1.685  22.262  0.00  0.00    +0.179 C 
ATOM      4  C   UNL     1       9.172   2.585  23.166  0.00  0.00    +0.184 C 
ATOM      5  C   UNL     1       9.590   1.810  24.412  0.00  0.00    +0.180 C 
ATOM      6  C   UNL     1       8.363   1.393  25.225  0.00  0.00    +0.214 C 
ENDROOT
BRANCH   5   7
ATOM      7  O   UNL     1      10.382   0.677  24.034  0.00  0.00    -0.386 OA
ATOM      8  H   UNL     1      10.167  -0.079  24.618  0.00  0.00    +0.210 HD
ENDBRANCH   5   7
BRANCH   6   9
ATOM      9  O   UNL     1       7.719   2.473  25.907  0.00  0.00    -0.383 OA
ATOM     10  H   UNL     1       8.069   2.532  26.821  0.00  0.00    +0.210 HD
ENDBRANCH   6   9
BRANCH   1  11
ATOM     11  O   UNL     1       7.669  -0.758  24.612  0.00  0.00    -0.453 OA
BRANCH  11  22
ATOM     12  C   UNL     1       5.616  -1.802  25.293  0.00  0.00    +0.181 A 
ATOM     13  O   UNL     1       4.744  -2.900  25.238  0.00  0.00    -0.451 OA
ATOM     14  C   UNL     1       5.123  -3.999  24.508  0.00  0.00    +0.147 A 
ATOM     15  C   UNL     1       6.074  -3.913  23.508  0.00  0.00    +0.109 A 
ATOM     16  C   UNL     1       6.412  -5.020  22.723  0.00  0.00    +0.135 A 
ATOM     17  C   UNL     1       5.781  -6.235  22.945  0.00  0.00    +0.091 A 
ATOM     18  C   UNL     1       4.821  -6.318  23.948  0.00  0.00    +0.124 A 
ATOM     19  C   UNL     1       6.677  -2.620  23.283  0.00  0.00    +0.238 A 
ATOM     20  O   UNL     1       7.147  -2.398  22.170  0.00  0.00    -0.283 OA
ATOM     21  C   UNL     1       4.491  -5.217  24.743  0.00  0.00    +0.092 A 
ATOM     22  C   UNL     1       6.645  -1.657  24.425  0.00  0.00    +0.214 A 
BRANCH  12  24
ATOM     23  C   UNL     1       6.109  -0.592  27.451  0.00  0.00    +0.015 A 
ATOM     24  C   UNL     1       5.213  -0.830  26.382  0.00  0.00    +0.025 A 
ATOM     25  C   UNL     1       3.943  -0.225  26.476  0.00  0.00    +0.060 A 
ATOM     26  C   UNL     1       3.612   0.575  27.583  0.00  0.00    +0.159 A 
ATOM     27  C   UNL     1       4.513   0.775  28.618  0.00  0.00    +0.158 A 
ATOM     28  C   UNL     1       5.760   0.195  28.565  0.00  0.00    +0.050 A 
BRANCH  26  29
ATOM     29  O   UNL     1       2.369   1.146  27.658  0.00  0.00    -0.503 OA
ATOM     30  H   UNL     1       1.816   0.623  27.046  0.00  0.00    +0.292 HD
ENDBRANCH  26  29
BRANCH  27  31
ATOM     31  O   UNL     1       4.108   1.544  29.680  0.00  0.00    -0.503 OA
ATOM     32  H   UNL     1       4.884   1.720  30.238  0.00  0.00    +0.292 HD
ENDBRANCH  27  31
ENDBRANCH  12  24
BRANCH  18  33
ATOM     33  O   UNL     1       4.151  -7.484  24.177  0.00  0.00    -0.507 OA
ATOM     34  H   UNL     1       4.605  -7.961  24.894  0.00  0.00    +0.292 HD
ENDBRANCH  18  33
BRANCH  16  35
ATOM     35  O   UNL     1       7.348  -4.970  21.725  0.00  0.00    -0.506 OA
ATOM     36  H   UNL     1       7.619  -5.894  21.521  0.00  0.00    +0.292 HD
ENDBRANCH  16  35
ENDBRANCH  11  22
ENDBRANCH   1  11
BRANCH   3  37
ATOM     37  C   UNL     1       9.072   0.810  21.253  0.00  0.00    +0.190 C 
BRANCH  37  38
ATOM     38  O   UNL     1       9.189  -0.547  21.709  0.00  0.00    -0.392 OA
ATOM     39  H   UNL     1       9.641  -1.065  21.021  0.00  0.00    +0.210 HD
ENDBRANCH  37  38
ENDBRANCH   3  37
BRANCH   4  40
ATOM     40  O   UNL     1       8.320   3.710  23.428  0.00  0.00    -0.340 OA
BRANCH  40  41
ATOM     41  C   UNL     1       7.284   4.059  22.532  0.00  0.00    +0.282 C 
ATOM     42  O   UNL     1       7.675   5.273  21.877  0.00  0.00    -0.341 OA
ATOM     43  C   UNL     1       7.748   6.454  22.703  0.00  0.00    +0.178 C 
ATOM     44  C   UNL     1       6.448   6.655  23.512  0.00  0.00    +0.177 C 
ATOM     45  C   UNL     1       5.959   5.364  24.194  0.00  0.00    +0.179 C 
ATOM     46  C   UNL     1       5.912   4.205  23.195  0.00  0.00    +0.201 C 
BRANCH  44  47
ATOM     47  O   UNL     1       5.443   7.108  22.586  0.00  0.00    -0.386 OA
ATOM     48  H   UNL     1       4.582   6.754  22.876  0.00  0.00    +0.210 HD
ENDBRANCH  44  47
BRANCH  45  49
ATOM     49  O   UNL     1       6.757   5.053  25.338  0.00  0.00    -0.386 OA
ATOM     50  H   UNL     1       7.360   5.803  25.502  0.00  0.00    +0.210 HD
ENDBRANCH  45  49
BRANCH  46  51
ATOM     51  O   UNL     1       4.913   4.437  22.193  0.00  0.00    -0.384 OA
ATOM     52  H   UNL     1       4.914   3.648  21.608  0.00  0.00    +0.210 HD
ENDBRANCH  46  51
BRANCH  43  53
ATOM     53  C   UNL     1       9.025   6.544  23.566  0.00  0.00    +0.190 C 
BRANCH  53  54
ATOM     54  O   UNL     1      10.156   5.978  22.906  0.00  0.00    -0.392 OA
ATOM     55  H   UNL     1      10.471   5.229  23.441  0.00  0.00    +0.210 HD
ENDBRANCH  53  54
ENDBRANCH  43  53
ENDBRANCH  40  41
ENDBRANCH   4  40
TORSDOF 18
ENDMDL
MODEL 8
REMARK VINA RESULT:      -6.6      3.294      5.020
REMARK  Name = 
REMARK  18 active torsions:
REMARK  status: ('A' for Active; 'I' for Inactive)
REMARK    1  A    between atoms: C_3  and  O_54
REMARK    2  A    between atoms: C_4  and  O_53
REMARK    3  A    between atoms: C_6  and  C_7
REMARK    4  A    between atoms: C_8  and  O_20
REMARK    5  A    between atoms: C_12  and  O_19
REMARK    6  A    between atoms: C_14  and  O_18
REMARK    7  A    between atoms: O_20  and  C_21
REMARK    8  A    between atoms: C_23  and  O_52
REMARK    9  A    between atoms: C_25  and  O_51
REMARK   10  A    between atoms: C_27  and  O_34
REMARK   11  A    between atoms: C_29  and  C_32
REMARK   12  A    between atoms: C_32  and  O_33
REMARK   13  A    between atoms: O_34  and  C_35
REMARK   14  A    between atoms: C_37  and  O_50
REMARK   15  A    between atoms: C_39  and  O_49
REMARK   16  A    between atoms: C_41  and  O_48
REMARK   17  A    between atoms: C_43  and  C_46
REMARK   18  A    between atoms: C_46  and  O_47
REMARK                            x       y       z     vdW  Elec       q    Type
REMARK                         _______ _______ _______ _____ _____    ______ ____
ROOT
ATOM      1  C   UNL     1       6.679  -2.292  26.162  0.00  0.00    +0.340 C 
ATOM      2  O   UNL     1       7.259  -3.484  26.687  0.00  0.00    -0.331 OA
ATOM      3  C   UNL     1       7.659  -4.610  25.910  0.00  0.00    +0.179 C 
ATOM      4  C   UNL     1       7.051  -4.662  24.498  0.00  0.00    +0.184 C 
ATOM      5  C   UNL     1       7.088  -3.270  23.873  0.00  0.00    +0.180 C 
ATOM      6  C   UNL     1       6.249  -2.288  24.692  0.00  0.00    +0.214 C 
ENDROOT
BRANCH   5   7
ATOM      7  O   UNL     1       8.447  -2.830  23.753  0.00  0.00    -0.386 OA
ATOM      8  H   UNL     1       9.047  -3.598  23.842  0.00  0.00    +0.210 HD
ENDBRANCH   5   7
BRANCH   6   9
ATOM      9  O   UNL     1       4.837  -2.488  24.575  0.00  0.00    -0.383 OA
ATOM     10  H   UNL     1       4.560  -3.199  25.191  0.00  0.00    +0.210 HD
ENDBRANCH   6   9
BRANCH   1  11
ATOM     11  O   UNL     1       7.587  -1.179  26.261  0.00  0.00    -0.453 OA
BRANCH  11  22
ATOM     12  C   UNL     1       7.423   1.207  26.040  0.00  0.00    +0.181 A 
ATOM     13  O   UNL     1       7.060   2.447  26.586  0.00  0.00    -0.451 OA
ATOM     14  C   UNL     1       6.579   2.479  27.872  0.00  0.00    +0.147 A 
ATOM     15  C   UNL     1       6.042   1.357  28.474  0.00  0.00    +0.109 A 
ATOM     16  C   UNL     1       5.496   1.408  29.760  0.00  0.00    +0.135 A 
ATOM     17  C   UNL     1       5.486   2.609  30.453  0.00  0.00    +0.091 A 
ATOM     18  C   UNL     1       6.023   3.739  29.843  0.00  0.00    +0.124 A 
ATOM     19  C   UNL     1       6.035   0.136  27.702  0.00  0.00    +0.238 A 
ATOM     20  O   UNL     1       5.198  -0.714  27.991  0.00  0.00    -0.283 OA
ATOM     21  C   UNL     1       6.581   3.688  28.563  0.00  0.00    +0.092 A 
ATOM     22  C   UNL     1       7.036   0.035  26.597  0.00  0.00    +0.214 A 
BRANCH  12  24
ATOM     23  C   UNL     1       9.633   1.495  24.858  0.00  0.00    +0.015 A 
ATOM     24  C   UNL     1       8.226   1.377  24.768  0.00  0.00    +0.025 A 
ATOM     25  C   UNL     1       7.660   1.550  23.489  0.00  0.00    +0.060 A 
ATOM     26  C   UNL     1       8.474   1.818  22.375  0.00  0.00    +0.159 A 
ATOM     27  C   UNL     1       9.850   1.939  22.507  0.00  0.00    +0.158 A 
ATOM     28  C   UNL     1      10.439   1.784  23.741  0.00  0.00    +0.050 A 
BRANCH  26  29
ATOM     29  O   UNL     1       7.903   1.991  21.143  0.00  0.00    -0.503 OA
ATOM     30  H   UNL     1       7.252   2.710  21.268  0.00  0.00    +0.292 HD
ENDBRANCH  26  29
BRANCH  27  31
ATOM     31  O   UNL     1      10.577   2.231  21.380  0.00  0.00    -0.503 OA
ATOM     32  H   UNL     1       9.965   2.575  20.708  0.00  0.00    +0.292 HD
ENDBRANCH  27  31
ENDBRANCH  12  24
BRANCH  18  33
ATOM     33  O   UNL     1       6.002   4.947  30.475  0.00  0.00    -0.507 OA
ATOM     34  H   UNL     1       6.922   5.236  30.611  0.00  0.00    +0.292 HD
ENDBRANCH  18  33
BRANCH  16  35
ATOM     35  O   UNL     1       4.955   0.316  30.385  0.00  0.00    -0.506 OA
ATOM     36  H   UNL     1       4.715   0.583  31.302  0.00  0.00    +0.292 HD
ENDBRANCH  16  35
ENDBRANCH  11  22
ENDBRANCH   1  11
BRANCH   3  37
ATOM     37  C   UNL     1       9.183  -4.798  26.001  0.00  0.00    +0.190 C 
BRANCH  37  38
ATOM     38  O   UNL     1       9.700  -5.501  24.859  0.00  0.00    -0.392 OA
ATOM     39  H   UNL     1      10.444  -4.991  24.495  0.00  0.00    +0.210 HD
ENDBRANCH  37  38
ENDBRANCH   3  37
BRANCH   4  40
ATOM     40  O   UNL     1       5.729  -5.174  24.721  0.00  0.00    -0.340 OA
BRANCH  40  41
ATOM     41  C   UNL     1       5.531  -6.397  25.403  0.00  0.00    +0.282 C 
ATOM     42  O   UNL     1       4.568  -7.153  24.656  0.00  0.00    -0.341 OA
ATOM     43  C   UNL     1       3.226  -6.625  24.621  0.00  0.00    +0.178 C 
ATOM     44  C   UNL     1       2.705  -6.315  26.041  0.00  0.00    +0.177 C 
ATOM     45  C   UNL     1       3.727  -5.546  26.900  0.00  0.00    +0.179 C 
ATOM     46  C   UNL     1       5.095  -6.231  26.861  0.00  0.00    +0.201 C 
BRANCH  44  47
ATOM     47  O   UNL     1       2.418  -7.578  26.668  0.00  0.00    -0.386 OA
ATOM     48  H   UNL     1       2.626  -8.287  26.032  0.00  0.00    +0.210 HD
ENDBRANCH  44  47
BRANCH  45  49
ATOM     49  O   UNL     1       3.803  -4.175  26.505  0.00  0.00    -0.386 OA
ATOM     50  H   UNL     1       3.147  -4.024  25.798  0.00  0.00    +0.210 HD
ENDBRANCH  45  49
BRANCH  46  51
ATOM     51  O   UNL     1       5.040  -7.515  27.498  0.00  0.00    -0.384 OA
ATOM     52  H   UNL     1       5.855  -7.593  28.043  0.00  0.00    +0.210 HD
ENDBRANCH  46  51
BRANCH  43  53
ATOM     53  C   UNL     1       3.032  -5.457  23.630  0.00  0.00    +0.190 C 
BRANCH  53  54
ATOM     54  O   UNL     1       4.004  -5.476  22.585  0.00  0.00    -0.392 OA
ATOM     55  H   UNL     1       4.735  -6.052  22.868  0.00  0.00    +0.210 HD
ENDBRANCH  53  54
ENDBRANCH  43  53
ENDBRANCH  40  41
ENDBRANCH   4  40
TORSDOF 18
ENDMDL
MODEL 9
REMARK VINA RESULT:      -6.5      3.359      8.631
REMARK  Name = 
REMARK  18 active torsions:
REMARK  status: ('A' for Active; 'I' for Inactive)
REMARK    1  A    between atoms: C_3  and  O_54
REMARK    2  A    between atoms: C_4  and  O_53
REMARK    3  A    between atoms: C_6  and  C_7
REMARK    4  A    between atoms: C_8  and  O_20
REMARK    5  A    between atoms: C_12  and  O_19
REMARK    6  A    between atoms: C_14  and  O_18
REMARK    7  A    between atoms: O_20  and  C_21
REMARK    8  A    between atoms: C_23  and  O_52
REMARK    9  A    between atoms: C_25  and  O_51
REMARK   10  A    between atoms: C_27  and  O_34
REMARK   11  A    between atoms: C_29  and  C_32
REMARK   12  A    between atoms: C_32  and  O_33
REMARK   13  A    between atoms: O_34  and  C_35
REMARK   14  A    between atoms: C_37  and  O_50
REMARK   15  A    between atoms: C_39  and  O_49
REMARK   16  A    between atoms: C_41  and  O_48
REMARK   17  A    between atoms: C_43  and  C_46
REMARK   18  A    between atoms: C_46  and  O_47
REMARK                            x       y       z     vdW  Elec       q    Type
REMARK                         _______ _______ _______ _____ _____    ______ ____
ROOT
ATOM      1  C   UNL     1       6.775  -2.211  25.687  0.00  0.00    +0.340 C 
ATOM      2  O   UNL     1       6.251  -1.970  24.383  0.00  0.00    -0.331 OA
ATOM      3  C   UNL     1       7.035  -1.764  23.211  0.00  0.00    +0.179 C 
ATOM      4  C   UNL     1       8.504  -1.393  23.481  0.00  0.00    +0.184 C 
ATOM      5  C   UNL     1       9.053  -2.266  24.605  0.00  0.00    +0.180 C 
ATOM      6  C   UNL     1       8.280  -2.025  25.903  0.00  0.00    +0.214 C 
ENDROOT
BRANCH   5   7
ATOM      7  O   UNL     1       9.010  -3.645  24.213  0.00  0.00    -0.386 OA
ATOM      8  H   UNL     1       8.091  -3.888  23.984  0.00  0.00    +0.210 HD
ENDBRANCH   5   7
BRANCH   6   9
ATOM      9  O   UNL     1       8.553  -0.764  26.520  0.00  0.00    -0.383 OA
ATOM     10  H   UNL     1       9.469  -0.766  26.867  0.00  0.00    +0.210 HD
ENDBRANCH   6   9
BRANCH   1  11
ATOM     11  O   UNL     1       6.529  -3.566  26.109  0.00  0.00    -0.453 OA
BRANCH  11  22
ATOM     12  C   UNL     1       4.269  -3.602  26.920  0.00  0.00    +0.181 A 
ATOM     13  O   UNL     1       3.033  -4.259  27.020  0.00  0.00    -0.451 OA
ATOM     14  C   UNL     1       2.909  -5.507  26.462  0.00  0.00    +0.147 A 
ATOM     15  C   UNL     1       3.763  -5.945  25.467  0.00  0.00    +0.109 A 
ATOM     16  C   UNL     1       3.596  -7.191  24.856  0.00  0.00    +0.135 A 
ATOM     17  C   UNL     1       2.549  -8.012  25.249  0.00  0.00    +0.091 A 
ATOM     18  C   UNL     1       1.687  -7.567  26.246  0.00  0.00    +0.124 A 
ATOM     19  C   UNL     1       4.816  -5.043  25.060  0.00  0.00    +0.238 A 
ATOM     20  O   UNL     1       5.278  -5.182  23.930  0.00  0.00    -0.283 OA
ATOM     21  C   UNL     1       1.860  -6.327  26.868  0.00  0.00    +0.092 A 
ATOM     22  C   UNL     1       5.226  -4.000  26.048  0.00  0.00    +0.214 A 
BRANCH  12  24
ATOM     23  C   UNL     1       3.960  -2.577  29.205  0.00  0.00    +0.015 A 
ATOM     24  C   UNL     1       4.338  -2.410  27.851  0.00  0.00    +0.025 A 
ATOM     25  C   UNL     1       4.641  -1.097  27.439  0.00  0.00    +0.060 A 
ATOM     26  C   UNL     1       4.571  -0.027  28.347  0.00  0.00    +0.159 A 
ATOM     27  C   UNL     1       4.184  -0.230  29.664  0.00  0.00    +0.158 A 
ATOM     28  C   UNL     1       3.873  -1.497  30.102  0.00  0.00    +0.050 A 
BRANCH  26  29
ATOM     29  O   UNL     1       4.862   1.243  27.923  0.00  0.00    -0.503 OA
ATOM     30  H   UNL     1       5.159   1.135  26.998  0.00  0.00    +0.292 HD
ENDBRANCH  26  29
BRANCH  27  31
ATOM     31  O   UNL     1       4.110   0.868  30.485  0.00  0.00    -0.503 OA
ATOM     32  H   UNL     1       3.516   0.651  31.224  0.00  0.00    +0.292 HD
ENDBRANCH  27  31
ENDBRANCH  12  24
BRANCH  18  33
ATOM     33  O   UNL     1       0.624  -8.326  26.637  0.00  0.00    -0.507 OA
ATOM     34  H   UNL     1       0.281  -8.796  25.857  0.00  0.00    +0.292 HD
ENDBRANCH  18  33
BRANCH  16  35
ATOM     35  O   UNL     1       4.423  -7.656  23.869  0.00  0.00    -0.506 OA
ATOM     36  H   UNL     1       5.185  -8.104  24.301  0.00  0.00    +0.292 HD
ENDBRANCH  16  35
ENDBRANCH  11  22
ENDBRANCH   1  11
BRANCH   3  37
ATOM     37  C   UNL     1       6.795  -2.905  22.209  0.00  0.00    +0.190 C 
BRANCH  37  38
ATOM     38  O   UNL     1       5.397  -3.092  21.940  0.00  0.00    -0.392 OA
ATOM     39  H   UNL     1       4.920  -3.110  22.788  0.00  0.00    +0.210 HD
ENDBRANCH  37  38
ENDBRANCH   3  37
BRANCH   4  40
ATOM     40  O   UNL     1       8.445   0.006  23.794  0.00  0.00    -0.340 OA
BRANCH  40  41
ATOM     41  C   UNL     1       9.476   0.883  23.386  0.00  0.00    +0.282 C 
ATOM     42  O   UNL     1       9.619   1.881  24.407  0.00  0.00    -0.341 OA
ATOM     43  C   UNL     1       8.514   2.794  24.570  0.00  0.00    +0.178 C 
ATOM     44  C   UNL     1       8.109   3.434  23.224  0.00  0.00    +0.177 C 
ATOM     45  C   UNL     1       7.993   2.406  22.083  0.00  0.00    +0.179 C 
ATOM     46  C   UNL     1       9.241   1.524  22.016  0.00  0.00    +0.201 C 
BRANCH  44  47
ATOM     47  O   UNL     1       9.129   4.394  22.892  0.00  0.00    -0.386 OA
ATOM     48  H   UNL     1       8.865   5.256  23.262  0.00  0.00    +0.210 HD
ENDBRANCH  44  47
BRANCH  45  49
ATOM     49  O   UNL     1       6.797   1.635  22.205  0.00  0.00    -0.386 OA
ATOM     50  H   UNL     1       6.609   1.511  23.155  0.00  0.00    +0.210 HD
ENDBRANCH  45  49
BRANCH  46  51
ATOM     51  O   UNL     1      10.390   2.295  21.639  0.00  0.00    -0.384 OA
ATOM     52  H   UNL     1      10.886   1.757  20.981  0.00  0.00    +0.210 HD
ENDBRANCH  46  51
BRANCH  43  53
ATOM     53  C   UNL     1       7.318   2.208  25.352  0.00  0.00    +0.190 C 
BRANCH  53  54
ATOM     54  O   UNL     1       7.661   1.907  26.704  0.00  0.00    -0.392 OA
ATOM     55  H   UNL     1       7.966   2.729  27.125  0.00  0.00    +0.210 HD
ENDBRANCH  53  54
ENDBRANCH  43  53
ENDBRANCH  40  41
ENDBRANCH   4  40
TORSDOF 18
ENDMDL
