MODEL 1
REMARK VINA RESULT:      -7.4      0.000      0.000
REMARK  Name = 
REMARK  16 active torsions:
REMARK  status: ('A' for Active; 'I' for Inactive)
REMARK    1  A    between atoms: C_1  and  C_2
REMARK    2  A    between atoms: C_4  and  O_52
REMARK    3  A    between atoms: C_6  and  O_51
REMARK    4  A    between atoms: C_8  and  O_50
REMARK    5  A    between atoms: C_10  and  O_13
REMARK    6  A    between atoms: O_13  and  C_14
REMARK    7  A    between atoms: C_16  and  O_49
REMARK    8  A    between atoms: C_21  and  C_41
REMARK    9  A    between atoms: C_22  and  O_25
REMARK   10  A    between atoms: O_25  and  C_26
REMARK   11  A    between atoms: C_28  and  O_40
REMARK   12  A    between atoms: C_30  and  O_39
REMARK   13  A    between atoms: C_32  and  O_38
REMARK   14  A    between atoms: C_34  and  C_37
REMARK   15  A    between atoms: C_43  and  O_48
REMARK   16  A    between atoms: C_44  and  O_47
REMARK                            x       y       z     vdW  Elec       q    Type
REMARK                         _______ _______ _______ _____ _____    ______ ____
ROOT
ATOM      1  C   UNL     1       6.518  -4.078  24.420  0.00  0.00    +0.131 A 
ATOM      2  C   UNL     1       5.810  -2.873  24.525  0.00  0.00    +0.093 A 
ATOM      3  C   UNL     1       6.478  -1.655  24.344  0.00  0.00    +0.147 A 
ATOM      4  O   UNL     1       5.766  -0.486  24.483  0.00  0.00    -0.451 OA
ATOM      5  C   UNL     1       6.393   0.715  24.152  0.00  0.00    +0.181 A 
ATOM      6  C   UNL     1       7.721   0.869  23.937  0.00  0.00    +0.214 A 
ATOM      7  C   UNL     1       8.535  -0.370  24.156  0.00  0.00    +0.238 A 
ATOM      8  O   UNL     1       9.708  -0.352  24.491  0.00  0.00    -0.283 OA
ATOM      9  C   UNL     1       7.840  -1.656  24.076  0.00  0.00    +0.109 A 
ATOM     10  C   UNL     1       8.527  -2.860  23.886  0.00  0.00    +0.135 A 
ATOM     11  C   UNL     1       7.868  -4.065  24.064  0.00  0.00    +0.092 A 
ENDROOT
BRANCH   5  12
ATOM     12  C   UNL     1       5.460   1.863  24.144  0.00  0.00    +0.025 A 
ATOM     13  C   UNL     1       4.733   2.168  25.312  0.00  0.00    +0.015 A 
ATOM     14  C   UNL     1       3.841   3.247  25.341  0.00  0.00    +0.050 A 
ATOM     15  C   UNL     1       3.674   4.015  24.203  0.00  0.00    +0.158 A 
ATOM     16  C   UNL     1       4.376   3.719  23.035  0.00  0.00    +0.159 A 
ATOM     17  C   UNL     1       5.267   2.645  22.995  0.00  0.00    +0.060 A 
BRANCH  15  18
ATOM     18  O   UNL     1       2.811   5.073  24.235  0.00  0.00    -0.503 OA
ATOM     19  H   UNL     1       3.241   5.763  23.693  0.00  0.00    +0.292 HD
ENDBRANCH  15  18
BRANCH  16  20
ATOM     20  O   UNL     1       4.146   4.516  21.949  0.00  0.00    -0.503 OA
ATOM     21  H   UNL     1       4.145   5.442  22.243  0.00  0.00    +0.292 HD
ENDBRANCH  16  20
ENDBRANCH   5  12
BRANCH  10  22
ATOM     22  O   UNL     1       9.843  -2.869  23.503  0.00  0.00    -0.506 OA
ATOM     23  H   UNL     1      10.395  -2.640  24.269  0.00  0.00    +0.292 HD
ENDBRANCH  10  22
BRANCH   1  24
ATOM     24  O   UNL     1       6.055  -5.339  24.653  0.00  0.00    -0.461 OA
BRANCH  24  28
ATOM     25  C   UNL     1       2.177  -5.244  26.505  0.00  0.00    +0.041 C 
ATOM     26  C   UNL     1       2.997  -6.513  26.284  0.00  0.00    +0.150 C 
ATOM     27  O   UNL     1       4.376  -6.215  26.044  0.00  0.00    -0.334 OA
ATOM     28  C   UNL     1       4.650  -5.541  24.815  0.00  0.00    +0.339 C 
ATOM     29  C   UNL     1       4.175  -6.376  23.601  0.00  0.00    +0.214 C 
ATOM     30  C   UNL     1       2.695  -6.758  23.785  0.00  0.00    +0.180 C 
ATOM     31  C   UNL     1       2.456  -7.406  25.160  0.00  0.00    +0.174 C 
BRANCH  29  32
ATOM     32  O   UNL     1       4.379  -5.630  22.385  0.00  0.00    -0.383 OA
ATOM     33  H   UNL     1       5.305  -5.728  22.110  0.00  0.00    +0.210 HD
ENDBRANCH  29  32
BRANCH  30  34
ATOM     34  O   UNL     1       2.272  -7.606  22.711  0.00  0.00    -0.386 OA
ATOM     35  H   UNL     1       1.330  -7.427  22.534  0.00  0.00    +0.210 HD
ENDBRANCH  30  34
BRANCH  31  36
ATOM     36  O   UNL     1       3.098  -8.687  25.213  0.00  0.00    -0.387 OA
ATOM     37  H   UNL     1       2.407  -9.370  25.321  0.00  0.00    +0.210 HD
ENDBRANCH  31  36
ENDBRANCH  24  28
ENDBRANCH   1  24
BRANCH   6  38
ATOM     38  O   UNL     1       8.277   2.097  23.556  0.00  0.00    -0.453 OA
BRANCH  38  39
ATOM     39  C   UNL     1       9.121   2.776  24.499  0.00  0.00    +0.339 C 
ATOM     40  O   UNL     1       8.364   3.369  25.554  0.00  0.00    -0.334 OA
ATOM     41  C   UNL     1       7.678   4.569  25.183  0.00  0.00    +0.150 C 
ATOM     42  C   UNL     1       6.887   5.035  26.401  0.00  0.00    +0.041 C 
ATOM     43  C   UNL     1       8.672   5.641  24.715  0.00  0.00    +0.174 C 
ATOM     44  C   UNL     1       9.432   5.102  23.495  0.00  0.00    +0.180 C 
ATOM     45  C   UNL     1      10.096   3.777  23.841  0.00  0.00    +0.214 C 
BRANCH  43  46
ATOM     46  O   UNL     1       7.975   6.852  24.406  0.00  0.00    -0.387 OA
ATOM     47  H   UNL     1       8.631   7.571  24.373  0.00  0.00    +0.210 HD
ENDBRANCH  43  46
BRANCH  44  48
ATOM     48  O   UNL     1      10.437   6.047  23.091  0.00  0.00    -0.386 OA
ATOM     49  H   UNL     1      10.987   5.578  22.432  0.00  0.00    +0.210 HD
ENDBRANCH  44  48
BRANCH  45  50
ATOM     50  O   UNL     1      10.753   3.255  22.674  0.00  0.00    -0.383 OA
ATOM     51  H   UNL     1      10.100   2.707  22.200  0.00  0.00    +0.210 HD
ENDBRANCH  45  50
ENDBRANCH  38  39
ENDBRANCH   6  38
TORSDOF 14
ENDMDL
MODEL 2
REMARK VINA RESULT:      -7.2      2.307      9.824
REMARK  Name = 
REMARK  16 active torsions:
REMARK  status: ('A' for Active; 'I' for Inactive)
REMARK    1  A    between atoms: C_1  and  C_2
REMARK    2  A    between atoms: C_4  and  O_52
REMARK    3  A    between atoms: C_6  and  O_51
REMARK    4  A    between atoms: C_8  and  O_50
REMARK    5  A    between atoms: C_10  and  O_13
REMARK    6  A    between atoms: O_13  and  C_14
REMARK    7  A    between atoms: C_16  and  O_49
REMARK    8  A    between atoms: C_21  and  C_41
REMARK    9  A    between atoms: C_22  and  O_25
REMARK   10  A    between atoms: O_25  and  C_26
REMARK   11  A    between atoms: C_28  and  O_40
REMARK   12  A    between atoms: C_30  and  O_39
REMARK   13  A    between atoms: C_32  and  O_38
REMARK   14  A    between atoms: C_34  and  C_37
REMARK   15  A    between atoms: C_43  and  O_48
REMARK   16  A    between atoms: C_44  and  O_47
REMARK                            x       y       z     vdW  Elec       q    Type
REMARK                         _______ _______ _______ _____ _____    ______ ____
ROOT
ATOM      1  C   UNL     1      10.029   0.620  24.005  0.00  0.00    +0.131 A 
ATOM      2  C   UNL     1       9.278  -0.016  25.002  0.00  0.00    +0.093 A 
ATOM      3  C   UNL     1       8.519  -1.150  24.684  0.00  0.00    +0.147 A 
ATOM      4  O   UNL     1       7.766  -1.738  25.675  0.00  0.00    -0.451 OA
ATOM      5  C   UNL     1       7.136  -2.951  25.398  0.00  0.00    +0.181 A 
ATOM      6  C   UNL     1       6.991  -3.490  24.164  0.00  0.00    +0.214 A 
ATOM      7  C   UNL     1       7.508  -2.636  23.046  0.00  0.00    +0.238 A 
ATOM      8  O   UNL     1       7.066  -2.679  21.909  0.00  0.00    -0.283 OA
ATOM      9  C   UNL     1       8.509  -1.622  23.380  0.00  0.00    +0.109 A 
ATOM     10  C   UNL     1       9.327  -1.038  22.405  0.00  0.00    +0.135 A 
ATOM     11  C   UNL     1      10.078   0.082  22.718  0.00  0.00    +0.092 A 
ENDROOT
BRANCH   5  12
ATOM     12  C   UNL     1       6.540  -3.572  26.600  0.00  0.00    +0.025 A 
ATOM     13  C   UNL     1       5.493  -2.911  27.271  0.00  0.00    +0.015 A 
ATOM     14  C   UNL     1       4.905  -3.470  28.412  0.00  0.00    +0.050 A 
ATOM     15  C   UNL     1       5.368  -4.686  28.883  0.00  0.00    +0.158 A 
ATOM     16  C   UNL     1       6.413  -5.348  28.238  0.00  0.00    +0.159 A 
ATOM     17  C   UNL     1       7.006  -4.797  27.100  0.00  0.00    +0.060 A 
BRANCH  15  18
ATOM     18  O   UNL     1       4.788  -5.236  29.991  0.00  0.00    -0.503 OA
ATOM     19  H   UNL     1       5.393  -5.954  30.260  0.00  0.00    +0.292 HD
ENDBRANCH  15  18
BRANCH  16  20
ATOM     20  O   UNL     1       6.823  -6.537  28.772  0.00  0.00    -0.503 OA
ATOM     21  H   UNL     1       6.936  -7.175  28.048  0.00  0.00    +0.292 HD
ENDBRANCH  16  20
ENDBRANCH   5  12
BRANCH  10  22
ATOM     22  O   UNL     1       9.414  -1.572  21.146  0.00  0.00    -0.506 OA
ATOM     23  H   UNL     1      10.193  -1.200  20.700  0.00  0.00    +0.292 HD
ENDBRANCH  10  22
BRANCH   1  24
ATOM     24  O   UNL     1      10.746   1.776  24.112  0.00  0.00    -0.461 OA
BRANCH  24  28
ATOM     25  C   UNL     1       7.938   4.408  26.027  0.00  0.00    +0.041 C 
ATOM     26  C   UNL     1       7.867   3.987  24.561  0.00  0.00    +0.150 C 
ATOM     27  O   UNL     1       8.649   2.816  24.308  0.00  0.00    -0.334 OA
ATOM     28  C   UNL     1      10.062   2.987  24.434  0.00  0.00    +0.339 C 
ATOM     29  C   UNL     1      10.584   4.069  23.458  0.00  0.00    +0.214 C 
ATOM     30  C   UNL     1       9.780   5.368  23.650  0.00  0.00    +0.180 C 
ATOM     31  C   UNL     1       8.266   5.100  23.582  0.00  0.00    +0.174 C 
BRANCH  29  32
ATOM     32  O   UNL     1      11.991   4.285  23.675  0.00  0.00    -0.383 OA
ATOM     33  H   UNL     1      12.148   4.395  24.627  0.00  0.00    +0.210 HD
ENDBRANCH  29  32
BRANCH  30  34
ATOM     34  O   UNL     1      10.195   6.347  22.690  0.00  0.00    -0.386 OA
ATOM     35  H   UNL     1       9.419   6.885  22.449  0.00  0.00    +0.210 HD
ENDBRANCH  30  34
BRANCH  31  36
ATOM     36  O   UNL     1       7.898   4.721  22.249  0.00  0.00    -0.387 OA
ATOM     37  H   UNL     1       8.677   4.313  21.822  0.00  0.00    +0.210 HD
ENDBRANCH  31  36
ENDBRANCH  24  28
ENDBRANCH   1  24
BRANCH   6  38
ATOM     38  O   UNL     1       6.391  -4.741  23.963  0.00  0.00    -0.453 OA
BRANCH  38  39
ATOM     39  C   UNL     1       5.186  -4.792  23.185  0.00  0.00    +0.339 C 
ATOM     40  O   UNL     1       4.175  -3.939  23.719  0.00  0.00    -0.334 OA
ATOM     41  C   UNL     1       3.533  -4.451  24.891  0.00  0.00    +0.150 C 
ATOM     42  C   UNL     1       2.528  -3.401  25.354  0.00  0.00    +0.041 C 
ATOM     43  C   UNL     1       2.849  -5.793  24.596  0.00  0.00    +0.174 C 
ATOM     44  C   UNL     1       3.917  -6.793  24.133  0.00  0.00    +0.180 C 
ATOM     45  C   UNL     1       4.675  -6.229  22.940  0.00  0.00    +0.214 C 
BRANCH  43  46
ATOM     46  O   UNL     1       2.163  -6.260  25.761  0.00  0.00    -0.387 OA
ATOM     47  H   UNL     1       2.253  -5.579  26.451  0.00  0.00    +0.210 HD
ENDBRANCH  43  46
BRANCH  44  48
ATOM     48  O   UNL     1       3.293  -8.033  23.757  0.00  0.00    -0.386 OA
ATOM     49  H   UNL     1       2.372  -7.971  24.081  0.00  0.00    +0.210 HD
ENDBRANCH  44  48
BRANCH  45  50
ATOM     50  O   UNL     1       5.710  -7.148  22.555  0.00  0.00    -0.383 OA
ATOM     51  H   UNL     1       5.445  -7.537  21.701  0.00  0.00    +0.210 HD
ENDBRANCH  45  50
ENDBRANCH  38  39
ENDBRANCH   6  38
TORSDOF 14
ENDMDL
MODEL 3
REMARK VINA RESULT:      -7.0      1.406      2.357
REMARK  Name = 
REMARK  16 active torsions:
REMARK  status: ('A' for Active; 'I' for Inactive)
REMARK    1  A    between atoms: C_1  and  C_2
REMARK    2  A    between atoms: C_4  and  O_52
REMARK    3  A    between atoms: C_6  and  O_51
REMARK    4  A    between atoms: C_8  and  O_50
REMARK    5  A    between atoms: C_10  and  O_13
REMARK    6  A    between atoms: O_13  and  C_14
REMARK    7  A    between atoms: C_16  and  O_49
REMARK    8  A    between atoms: C_21  and  C_41
REMARK    9  A    between atoms: C_22  and  O_25
REMARK   10  A    between atoms: O_25  and  C_26
REMARK   11  A    between atoms: C_28  and  O_40
REMARK   12  A    between atoms: C_30  and  O_39
REMARK   13  A    between atoms: C_32  and  O_38
REMARK   14  A    between atoms: C_34  and  C_37
REMARK   15  A    between atoms: C_43  and  O_48
REMARK   16  A    between atoms: C_44  and  O_47
REMARK                            x       y       z     vdW  Elec       q    Type
REMARK                         _______ _______ _______ _____ _____    ______ ____
ROOT
ATOM      1  C   UNL     1       7.021  -4.316  24.723  0.00  0.00    +0.131 A 
ATOM      2  C   UNL     1       6.236  -3.157  24.772  0.00  0.00    +0.093 A 
ATOM      3  C   UNL     1       6.827  -1.907  24.544  0.00  0.00    +0.147 A 
ATOM      4  O   UNL     1       6.039  -0.781  24.628  0.00  0.00    -0.451 OA
ATOM      5  C   UNL     1       6.591   0.443  24.251  0.00  0.00    +0.181 A 
ATOM      6  C   UNL     1       7.908   0.673  24.039  0.00  0.00    +0.214 A 
ATOM      7  C   UNL     1       8.798  -0.501  24.316  0.00  0.00    +0.238 A 
ATOM      8  O   UNL     1       9.965  -0.393  24.657  0.00  0.00    -0.283 OA
ATOM      9  C   UNL     1       8.188  -1.831  24.286  0.00  0.00    +0.109 A 
ATOM     10  C   UNL     1       8.952  -2.996  24.152  0.00  0.00    +0.135 A 
ATOM     11  C   UNL     1       8.370  -4.231  24.376  0.00  0.00    +0.092 A 
ENDROOT
BRANCH   5  12
ATOM     12  C   UNL     1       5.586   1.527  24.189  0.00  0.00    +0.025 A 
ATOM     13  C   UNL     1       4.777   1.783  25.313  0.00  0.00    +0.015 A 
ATOM     14  C   UNL     1       3.817   2.800  25.290  0.00  0.00    +0.050 A 
ATOM     15  C   UNL     1       3.663   3.557  24.142  0.00  0.00    +0.158 A 
ATOM     16  C   UNL     1       4.446   3.309  23.016  0.00  0.00    +0.159 A 
ATOM     17  C   UNL     1       5.407   2.295  23.029  0.00  0.00    +0.060 A 
BRANCH  15  18
ATOM     18  O   UNL     1       2.731   4.557  24.124  0.00  0.00    -0.503 OA
ATOM     19  H   UNL     1       1.910   4.126  23.816  0.00  0.00    +0.292 HD
ENDBRANCH  15  18
BRANCH  16  20
ATOM     20  O   UNL     1       4.225   4.090  21.916  0.00  0.00    -0.503 OA
ATOM     21  H   UNL     1       4.603   4.969  22.084  0.00  0.00    +0.292 HD
ENDBRANCH  16  20
ENDBRANCH   5  12
BRANCH  10  22
ATOM     22  O   UNL     1      10.269  -2.935  23.778  0.00  0.00    -0.506 OA
ATOM     23  H   UNL     1      10.791  -3.501  24.371  0.00  0.00    +0.292 HD
ENDBRANCH  10  22
BRANCH   1  24
ATOM     24  O   UNL     1       6.637  -5.594  25.006  0.00  0.00    -0.461 OA
BRANCH  24  28
ATOM     25  C   UNL     1       2.968  -6.654  26.980  0.00  0.00    +0.041 C 
ATOM     26  C   UNL     1       3.514  -5.232  26.877  0.00  0.00    +0.150 C 
ATOM     27  O   UNL     1       4.494  -5.115  25.841  0.00  0.00    -0.334 OA
ATOM     28  C   UNL     1       5.715  -5.819  26.074  0.00  0.00    +0.339 C 
ATOM     29  C   UNL     1       6.404  -5.330  27.371  0.00  0.00    +0.214 C 
ATOM     30  C   UNL     1       5.409  -5.405  28.543  0.00  0.00    +0.180 C 
ATOM     31  C   UNL     1       4.087  -4.697  28.196  0.00  0.00    +0.174 C 
BRANCH  29  32
ATOM     32  O   UNL     1       7.580  -6.121  27.627  0.00  0.00    -0.383 OA
ATOM     33  H   UNL     1       7.388  -7.047  27.405  0.00  0.00    +0.210 HD
ENDBRANCH  29  32
BRANCH  30  34
ATOM     34  O   UNL     1       6.009  -4.871  29.729  0.00  0.00    -0.386 OA
ATOM     35  H   UNL     1       5.298  -4.653  30.359  0.00  0.00    +0.210 HD
ENDBRANCH  30  34
BRANCH  31  36
ATOM     36  O   UNL     1       4.306  -3.284  28.087  0.00  0.00    -0.387 OA
ATOM     37  H   UNL     1       4.271  -3.043  27.140  0.00  0.00    +0.210 HD
ENDBRANCH  31  36
ENDBRANCH  24  28
ENDBRANCH   1  24
BRANCH   6  38
ATOM     38  O   UNL     1       8.389   1.918  23.610  0.00  0.00    -0.453 OA
BRANCH  38  39
ATOM     39  C   UNL     1       9.172   2.691  24.531  0.00  0.00    +0.339 C 
ATOM     40  O   UNL     1       8.373   3.227  25.585  0.00  0.00    -0.334 OA
ATOM     41  C   UNL     1       7.571   4.349  25.202  0.00  0.00    +0.150 C 
ATOM     42  C   UNL     1       6.751   4.758  26.422  0.00  0.00    +0.041 C 
ATOM     43  C   UNL     1       8.452   5.503  24.704  0.00  0.00    +0.174 C 
ATOM     44  C   UNL     1       9.248   5.018  23.485  0.00  0.00    +0.180 C 
ATOM     45  C   UNL     1      10.040   3.769  23.845  0.00  0.00    +0.214 C 
BRANCH  43  46
ATOM     46  O   UNL     1       7.639   6.636  24.384  0.00  0.00    -0.387 OA
ATOM     47  H   UNL     1       7.713   7.272  25.117  0.00  0.00    +0.210 HD
ENDBRANCH  43  46
BRANCH  44  48
ATOM     48  O   UNL     1      10.153   6.048  23.053  0.00  0.00    -0.386 OA
ATOM     49  H   UNL     1       9.815   6.347  22.185  0.00  0.00    +0.210 HD
ENDBRANCH  44  48
BRANCH  45  50
ATOM     50  O   UNL     1      10.732   3.291  22.679  0.00  0.00    -0.383 OA
ATOM     51  H   UNL     1      11.390   2.640  22.984  0.00  0.00    +0.210 HD
ENDBRANCH  45  50
ENDBRANCH  38  39
ENDBRANCH   6  38
TORSDOF 14
ENDMDL
MODEL 4
REMARK VINA RESULT:      -6.8      1.758      2.625
REMARK  Name = 
REMARK  16 active torsions:
REMARK  status: ('A' for Active; 'I' for Inactive)
REMARK    1  A    between atoms: C_1  and  C_2
REMARK    2  A    between atoms: C_4  and  O_52
REMARK    3  A    between atoms: C_6  and  O_51
REMARK    4  A    between atoms: C_8  and  O_50
REMARK    5  A    between atoms: C_10  and  O_13
REMARK    6  A    between atoms: O_13  and  C_14
REMARK    7  A    between atoms: C_16  and  O_49
REMARK    8  A    between atoms: C_21  and  C_41
REMARK    9  A    between atoms: C_22  and  O_25
REMARK   10  A    between atoms: O_25  and  C_26
REMARK   11  A    between atoms: C_28  and  O_40
REMARK   12  A    between atoms: C_30  and  O_39
REMARK   13  A    between atoms: C_32  and  O_38
REMARK   14  A    between atoms: C_34  and  C_37
REMARK   15  A    between atoms: C_43  and  O_48
REMARK   16  A    between atoms: C_44  and  O_47
REMARK                            x       y       z     vdW  Elec       q    Type
REMARK                         _______ _______ _______ _____ _____    ______ ____
ROOT
ATOM      1  C   UNL     1       7.025  -3.686  24.258  0.00  0.00    +0.131 A 
ATOM      2  C   UNL     1       6.565  -2.617  25.039  0.00  0.00    +0.093 A 
ATOM      3  C   UNL     1       7.254  -1.396  25.021  0.00  0.00    +0.147 A 
ATOM      4  O   UNL     1       6.800  -0.372  25.821  0.00  0.00    -0.451 OA
ATOM      5  C   UNL     1       7.390   0.884  25.687  0.00  0.00    +0.181 A 
ATOM      6  C   UNL     1       8.539   1.140  25.017  0.00  0.00    +0.214 A 
ATOM      7  C   UNL     1       9.216  -0.074  24.457  0.00  0.00    +0.238 A 
ATOM      8  O   UNL     1      10.420  -0.146  24.270  0.00  0.00    -0.283 OA
ATOM      9  C   UNL     1       8.393  -1.266  24.240  0.00  0.00    +0.109 A 
ATOM     10  C   UNL     1       8.800  -2.305  23.396  0.00  0.00    +0.135 A 
ATOM     11  C   UNL     1       8.121  -3.511  23.412  0.00  0.00    +0.092 A 
ENDROOT
BRANCH   5  12
ATOM     12  C   UNL     1       6.675   1.934  26.445  0.00  0.00    +0.025 A 
ATOM     13  C   UNL     1       5.590   2.601  25.844  0.00  0.00    +0.015 A 
ATOM     14  C   UNL     1       4.890   3.599  26.531  0.00  0.00    +0.050 A 
ATOM     15  C   UNL     1       5.279   3.933  27.816  0.00  0.00    +0.158 A 
ATOM     16  C   UNL     1       6.360   3.292  28.422  0.00  0.00    +0.159 A 
ATOM     17  C   UNL     1       7.064   2.296  27.744  0.00  0.00    +0.060 A 
BRANCH  15  18
ATOM     18  O   UNL     1       4.589   4.901  28.491  0.00  0.00    -0.503 OA
ATOM     19  H   UNL     1       5.116   5.066  29.297  0.00  0.00    +0.292 HD
ENDBRANCH  15  18
BRANCH  16  20
ATOM     20  O   UNL     1       6.691   3.687  29.687  0.00  0.00    -0.503 OA
ATOM     21  H   UNL     1       5.917   3.560  30.260  0.00  0.00    +0.292 HD
ENDBRANCH  16  20
ENDBRANCH   5  12
BRANCH  10  22
ATOM     22  O   UNL     1       9.852  -2.142  22.533  0.00  0.00    -0.506 OA
ATOM     23  H   UNL     1      10.662  -2.469  22.958  0.00  0.00    +0.292 HD
ENDBRANCH  10  22
BRANCH   1  24
ATOM     24  O   UNL     1       6.538  -4.959  24.222  0.00  0.00    -0.461 OA
BRANCH  24  28
ATOM     25  C   UNL     1       3.275  -5.739  26.910  0.00  0.00    +0.041 C 
ATOM     26  C   UNL     1       3.827  -6.748  25.906  0.00  0.00    +0.150 C 
ATOM     27  O   UNL     1       5.135  -6.384  25.456  0.00  0.00    -0.334 OA
ATOM     28  C   UNL     1       5.199  -5.201  24.658  0.00  0.00    +0.339 C 
ATOM     29  C   UNL     1       4.331  -5.338  23.384  0.00  0.00    +0.214 C 
ATOM     30  C   UNL     1       2.900  -5.747  23.777  0.00  0.00    +0.180 C 
ATOM     31  C   UNL     1       2.908  -6.979  24.699  0.00  0.00    +0.174 C 
BRANCH  29  32
ATOM     32  O   UNL     1       4.341  -4.097  22.651  0.00  0.00    -0.383 OA
ATOM     33  H   UNL     1       4.774  -4.244  21.794  0.00  0.00    +0.210 HD
ENDBRANCH  29  32
BRANCH  30  34
ATOM     34  O   UNL     1       2.113  -5.963  22.599  0.00  0.00    -0.386 OA
ATOM     35  H   UNL     1       1.523  -6.722  22.762  0.00  0.00    +0.210 HD
ENDBRANCH  30  34
BRANCH  31  36
ATOM     36  O   UNL     1       3.353  -8.131  23.970  0.00  0.00    -0.387 OA
ATOM     37  H   UNL     1       2.590  -8.494  23.478  0.00  0.00    +0.210 HD
ENDBRANCH  31  36
ENDBRANCH  24  28
ENDBRANCH   1  24
BRANCH   6  38
ATOM     38  O   UNL     1       9.049   2.437  24.879  0.00  0.00    -0.453 OA
BRANCH  38  39
ATOM     39  C   UNL     1       9.417   2.880  23.563  0.00  0.00    +0.339 C 
ATOM     40  O   UNL     1      10.444   3.870  23.607  0.00  0.00    -0.334 OA
ATOM     41  C   UNL     1       9.992   5.168  24.003  0.00  0.00    +0.150 C 
ATOM     42  C   UNL     1      11.214   6.081  24.045  0.00  0.00    +0.041 C 
ATOM     43  C   UNL     1       8.930   5.696  23.029  0.00  0.00    +0.174 C 
ATOM     44  C   UNL     1       7.739   4.729  23.036  0.00  0.00    +0.180 C 
ATOM     45  C   UNL     1       8.211   3.321  22.704  0.00  0.00    +0.214 C 
BRANCH  43  46
ATOM     46  O   UNL     1       8.535   7.019  23.406  0.00  0.00    -0.387 OA
ATOM     47  H   UNL     1       8.634   7.094  24.371  0.00  0.00    +0.210 HD
ENDBRANCH  43  46
BRANCH  44  48
ATOM     48  O   UNL     1       6.767   5.146  22.061  0.00  0.00    -0.386 OA
ATOM     49  H   UNL     1       6.971   4.635  21.252  0.00  0.00    +0.210 HD
ENDBRANCH  44  48
BRANCH  45  50
ATOM     50  O   UNL     1       7.097   2.416  22.773  0.00  0.00    -0.383 OA
ATOM     51  H   UNL     1       6.980   2.037  21.882  0.00  0.00    +0.210 HD
ENDBRANCH  45  50
ENDBRANCH  38  39
ENDBRANCH   6  38
TORSDOF 14
ENDMDL
MODEL 5
REMARK VINA RESULT:      -6.8      2.232     10.035
REMARK  Name = 
REMARK  16 active torsions:
REMARK  status: ('A' for Active; 'I' for Inactive)
REMARK    1  A    between atoms: C_1  and  C_2
REMARK    2  A    between atoms: C_4  and  O_52
REMARK    3  A    between atoms: C_6  and  O_51
REMARK    4  A    between atoms: C_8  and  O_50
REMARK    5  A    between atoms: C_10  and  O_13
REMARK    6  A    between atoms: O_13  and  C_14
REMARK    7  A    between atoms: C_16  and  O_49
REMARK    8  A    between atoms: C_21  and  C_41
REMARK    9  A    between atoms: C_22  and  O_25
REMARK   10  A    between atoms: O_25  and  C_26
REMARK   11  A    between atoms: C_28  and  O_40
REMARK   12  A    between atoms: C_30  and  O_39
REMARK   13  A    between atoms: C_32  and  O_38
REMARK   14  A    between atoms: C_34  and  C_37
REMARK   15  A    between atoms: C_43  and  O_48
REMARK   16  A    between atoms: C_44  and  O_47
REMARK                            x       y       z     vdW  Elec       q    Type
REMARK                         _______ _______ _______ _____ _____    ______ ____
ROOT
ATOM      1  C   UNL     1       7.562   0.991  23.763  0.00  0.00    +0.131 A 
ATOM      2  C   UNL     1       6.565   0.049  23.475  0.00  0.00    +0.093 A 
ATOM      3  C   UNL     1       6.326  -1.006  24.366  0.00  0.00    +0.147 A 
ATOM      4  O   UNL     1       5.363  -1.935  24.043  0.00  0.00    -0.451 OA
ATOM      5  C   UNL     1       5.021  -2.892  24.998  0.00  0.00    +0.181 A 
ATOM      6  C   UNL     1       5.718  -3.150  26.130  0.00  0.00    +0.214 A 
ATOM      7  C   UNL     1       6.984  -2.362  26.275  0.00  0.00    +0.238 A 
ATOM      8  O   UNL     1       7.953  -2.756  26.904  0.00  0.00    -0.283 OA
ATOM      9  C   UNL     1       7.091  -1.113  25.519  0.00  0.00    +0.109 A 
ATOM     10  C   UNL     1       8.025  -0.124  25.847  0.00  0.00    +0.135 A 
ATOM     11  C   UNL     1       8.262   0.919  24.968  0.00  0.00    +0.092 A 
ENDROOT
BRANCH   5  12
ATOM     12  C   UNL     1       3.837  -3.690  24.608  0.00  0.00    +0.025 A 
ATOM     13  C   UNL     1       2.594  -3.421  25.213  0.00  0.00    +0.015 A 
ATOM     14  C   UNL     1       1.454  -4.156  24.868  0.00  0.00    +0.050 A 
ATOM     15  C   UNL     1       1.559  -5.160  23.921  0.00  0.00    +0.158 A 
ATOM     16  C   UNL     1       2.785  -5.447  23.321  0.00  0.00    +0.159 A 
ATOM     17  C   UNL     1       3.928  -4.720  23.660  0.00  0.00    +0.060 A 
BRANCH  15  18
ATOM     18  O   UNL     1       0.443  -5.869  23.578  0.00  0.00    -0.503 OA
ATOM     19  H   UNL     1       0.648  -6.792  23.828  0.00  0.00    +0.292 HD
ENDBRANCH  15  18
BRANCH  16  20
ATOM     20  O   UNL     1       2.810  -6.462  22.407  0.00  0.00    -0.503 OA
ATOM     21  H   UNL     1       2.050  -7.043  22.574  0.00  0.00    +0.292 HD
ENDBRANCH  16  20
ENDBRANCH   5  12
BRANCH  10  22
ATOM     22  O   UNL     1       8.697  -0.158  27.041  0.00  0.00    -0.506 OA
ATOM     23  H   UNL     1       8.193   0.347  27.700  0.00  0.00    +0.292 HD
ENDBRANCH  10  22
BRANCH   1  24
ATOM     24  O   UNL     1       7.988   2.019  22.975  0.00  0.00    -0.461 OA
BRANCH  24  28
ATOM     25  C   UNL     1       6.336   5.520  24.844  0.00  0.00    +0.041 C 
ATOM     26  C   UNL     1       6.646   5.401  23.354  0.00  0.00    +0.150 C 
ATOM     27  O   UNL     1       6.784   4.036  22.949  0.00  0.00    -0.334 OA
ATOM     28  C   UNL     1       7.920   3.353  23.480  0.00  0.00    +0.339 C 
ATOM     29  C   UNL     1       9.237   4.056  23.070  0.00  0.00    +0.214 C 
ATOM     30  C   UNL     1       9.169   5.544  23.455  0.00  0.00    +0.180 C 
ATOM     31  C   UNL     1       7.884   6.199  22.919  0.00  0.00    +0.174 C 
BRANCH  29  32
ATOM     32  O   UNL     1      10.356   3.400  23.697  0.00  0.00    -0.383 OA
ATOM     33  H   UNL     1      10.269   2.442  23.570  0.00  0.00    +0.210 HD
ENDBRANCH  29  32
BRANCH  30  34
ATOM     34  O   UNL     1      10.346   6.222  22.998  0.00  0.00    -0.386 OA
ATOM     35  H   UNL     1      10.470   7.019  23.544  0.00  0.00    +0.210 HD
ENDBRANCH  30  34
BRANCH  31  36
ATOM     36  O   UNL     1       7.931   6.267  21.487  0.00  0.00    -0.387 OA
ATOM     37  H   UNL     1       8.740   6.754  21.233  0.00  0.00    +0.210 HD
ENDBRANCH  31  36
ENDBRANCH  24  28
ENDBRANCH   1  24
BRANCH   6  38
ATOM     38  O   UNL     1       5.286  -4.092  27.073  0.00  0.00    -0.453 OA
BRANCH  38  39
ATOM     39  C   UNL     1       5.407  -5.483  26.740  0.00  0.00    +0.339 C 
ATOM     40  O   UNL     1       4.134  -6.127  26.686  0.00  0.00    -0.334 OA
ATOM     41  C   UNL     1       3.560  -6.402  27.967  0.00  0.00    +0.150 C 
ATOM     42  C   UNL     1       2.194  -7.036  27.726  0.00  0.00    +0.041 C 
ATOM     43  C   UNL     1       4.473  -7.327  28.785  0.00  0.00    +0.174 C 
ATOM     44  C   UNL     1       5.824  -6.627  28.983  0.00  0.00    +0.180 C 
ATOM     45  C   UNL     1       6.412  -6.243  27.633  0.00  0.00    +0.214 C 
BRANCH  43  46
ATOM     46  O   UNL     1       3.855  -7.640  30.038  0.00  0.00    -0.387 OA
ATOM     47  H   UNL     1       2.927  -7.350  29.992  0.00  0.00    +0.210 HD
ENDBRANCH  43  46
BRANCH  44  48
ATOM     48  O   UNL     1       6.734  -7.509  29.665  0.00  0.00    -0.386 OA
ATOM     49  H   UNL     1       7.114  -6.979  30.394  0.00  0.00    +0.210 HD
ENDBRANCH  44  48
BRANCH  45  50
ATOM     50  O   UNL     1       7.648  -5.537  27.835  0.00  0.00    -0.383 OA
ATOM     51  H   UNL     1       8.163  -5.619  27.011  0.00  0.00    +0.210 HD
ENDBRANCH  45  50
ENDBRANCH  38  39
ENDBRANCH   6  38
TORSDOF 14
ENDMDL
MODEL 6
REMARK VINA RESULT:      -6.8      2.212      4.033
REMARK  Name = 
REMARK  16 active torsions:
REMARK  status: ('A' for Active; 'I' for Inactive)
REMARK    1  A    between atoms: C_1  and  C_2
REMARK    2  A    between atoms: C_4  and  O_52
REMARK    3  A    between atoms: C_6  and  O_51
REMARK    4  A    between atoms: C_8  and  O_50
REMARK    5  A    between atoms: C_10  and  O_13
REMARK    6  A    between atoms: O_13  and  C_14
REMARK    7  A    between atoms: C_16  and  O_49
REMARK    8  A    between atoms: C_21  and  C_41
REMARK    9  A    between atoms: C_22  and  O_25
REMARK   10  A    between atoms: O_25  and  C_26
REMARK   11  A    between atoms: C_28  and  O_40
REMARK   12  A    between atoms: C_30  and  O_39
REMARK   13  A    between atoms: C_32  and  O_38
REMARK   14  A    between atoms: C_34  and  C_37
REMARK   15  A    between atoms: C_43  and  O_48
REMARK   16  A    between atoms: C_44  and  O_47
REMARK                            x       y       z     vdW  Elec       q    Type
REMARK                         _______ _______ _______ _____ _____    ______ ____
ROOT
ATOM      1  C   UNL     1       5.221  -4.836  25.875  0.00  0.00    +0.131 A 
ATOM      2  C   UNL     1       5.922  -3.945  25.051  0.00  0.00    +0.093 A 
ATOM      3  C   UNL     1       6.102  -2.617  25.458  0.00  0.00    +0.147 A 
ATOM      4  O   UNL     1       6.767  -1.754  24.617  0.00  0.00    -0.451 OA
ATOM      5  C   UNL     1       7.080  -0.479  25.088  0.00  0.00    +0.181 A 
ATOM      6  C   UNL     1       6.577   0.083  26.212  0.00  0.00    +0.214 A 
ATOM      7  C   UNL     1       5.557  -0.754  26.923  0.00  0.00    +0.238 A 
ATOM      8  O   UNL     1       4.668  -0.284  27.615  0.00  0.00    -0.283 OA
ATOM      9  C   UNL     1       5.570  -2.195  26.669  0.00  0.00    +0.109 A 
ATOM     10  C   UNL     1       4.946  -3.107  27.528  0.00  0.00    +0.135 A 
ATOM     11  C   UNL     1       4.768  -4.420  27.127  0.00  0.00    +0.092 A 
ENDROOT
BRANCH   5  12
ATOM     12  C   UNL     1       7.971   0.265  24.171  0.00  0.00    +0.025 A 
ATOM     13  C   UNL     1       9.307   0.503  24.549  0.00  0.00    +0.015 A 
ATOM     14  C   UNL     1      10.178   1.204  23.707  0.00  0.00    +0.050 A 
ATOM     15  C   UNL     1       9.711   1.668  22.490  0.00  0.00    +0.158 A 
ATOM     16  C   UNL     1       8.388   1.451  22.105  0.00  0.00    +0.159 A 
ATOM     17  C   UNL     1       7.512   0.755  22.939  0.00  0.00    +0.060 A 
BRANCH  15  18
ATOM     18  O   UNL     1      10.565   2.343  21.663  0.00  0.00    -0.503 OA
ATOM     19  H   UNL     1      10.507   3.275  21.952  0.00  0.00    +0.292 HD
ENDBRANCH  15  18
BRANCH  16  20
ATOM     20  O   UNL     1       8.000   1.953  20.895  0.00  0.00    -0.503 OA
ATOM     21  H   UNL     1       7.454   1.285  20.448  0.00  0.00    +0.292 HD
ENDBRANCH  16  20
ENDBRANCH   5  12
BRANCH  10  22
ATOM     22  O   UNL     1       4.526  -2.725  28.775  0.00  0.00    -0.506 OA
ATOM     23  H   UNL     1       3.636  -2.343  28.704  0.00  0.00    +0.292 HD
ENDBRANCH  10  22
BRANCH   1  24
ATOM     24  O   UNL     1       4.875  -6.127  25.600  0.00  0.00    -0.461 OA
BRANCH  24  28
ATOM     25  C   UNL     1       0.675  -6.486  26.442  0.00  0.00    +0.041 C 
ATOM     26  C   UNL     1       1.640  -7.665  26.343  0.00  0.00    +0.150 C 
ATOM     27  O   UNL     1       3.002  -7.246  26.471  0.00  0.00    -0.334 OA
ATOM     28  C   UNL     1       3.498  -6.446  25.396  0.00  0.00    +0.339 C 
ATOM     29  C   UNL     1       3.408  -7.202  24.048  0.00  0.00    +0.214 C 
ATOM     30  C   UNL     1       1.970  -7.708  23.836  0.00  0.00    +0.180 C 
ATOM     31  C   UNL     1       1.469  -8.492  25.062  0.00  0.00    +0.174 C 
BRANCH  29  32
ATOM     32  O   UNL     1       3.826  -6.338  22.975  0.00  0.00    -0.383 OA
ATOM     33  H   UNL     1       4.289  -5.572  23.352  0.00  0.00    +0.210 HD
ENDBRANCH  29  32
BRANCH  30  34
ATOM     34  O   UNL     1       1.897  -8.485  22.635  0.00  0.00    -0.386 OA
ATOM     35  H   UNL     1       1.644  -9.395  22.876  0.00  0.00    +0.210 HD
ENDBRANCH  30  34
BRANCH  31  36
ATOM     36  O   UNL     1       2.198  -9.722  25.184  0.00  0.00    -0.387 OA
ATOM     37  H   UNL     1       2.699  -9.696  26.022  0.00  0.00    +0.210 HD
ENDBRANCH  31  36
ENDBRANCH  24  28
ENDBRANCH   1  24
BRANCH   6  38
ATOM     38  O   UNL     1       6.975   1.351  26.654  0.00  0.00    -0.453 OA
BRANCH  38  39
ATOM     39  C   UNL     1       6.185   2.482  26.257  0.00  0.00    +0.339 C 
ATOM     40  O   UNL     1       6.805   3.216  25.201  0.00  0.00    -0.334 OA
ATOM     41  C   UNL     1       7.905   4.030  25.619  0.00  0.00    +0.150 C 
ATOM     42  C   UNL     1       8.475   4.696  24.371  0.00  0.00    +0.041 C 
ATOM     43  C   UNL     1       7.450   5.070  26.653  0.00  0.00    +0.174 C 
ATOM     44  C   UNL     1       6.886   4.329  27.873  0.00  0.00    +0.180 C 
ATOM     45  C   UNL     1       5.772   3.387  27.439  0.00  0.00    +0.214 C 
BRANCH  43  46
ATOM     46  O   UNL     1       8.549   5.914  27.013  0.00  0.00    -0.387 OA
ATOM     47  H   UNL     1       8.872   6.343  26.201  0.00  0.00    +0.210 HD
ENDBRANCH  43  46
BRANCH  44  48
ATOM     48  O   UNL     1       6.364   5.278  28.820  0.00  0.00    -0.386 OA
ATOM     49  H   UNL     1       7.089   5.917  28.976  0.00  0.00    +0.210 HD
ENDBRANCH  44  48
BRANCH  45  50
ATOM     50  O   UNL     1       5.294   2.657  28.581  0.00  0.00    -0.383 OA
ATOM     51  H   UNL     1       6.049   2.153  28.935  0.00  0.00    +0.210 HD
ENDBRANCH  45  50
ENDBRANCH  38  39
ENDBRANCH   6  38
TORSDOF 14
ENDMDL
MODEL 7
REMARK VINA RESULT:      -6.6      2.331      9.945
REMARK  Name = 
REMARK  16 active torsions:
REMARK  status: ('A' for Active; 'I' for Inactive)
REMARK    1  A    between atoms: C_1  and  C_2
REMARK    2  A    between atoms: C_4  and  O_52
REMARK    3  A    between atoms: C_6  and  O_51
REMARK    4  A    between atoms: C_8  and  O_50
REMARK    5  A    between atoms: C_10  and  O_13
REMARK    6  A    between atoms: O_13  and  C_14
REMARK    7  A    between atoms: C_16  and  O_49
REMARK    8  A    between atoms: C_21  and  C_41
REMARK    9  A    between atoms: C_22  and  O_25
REMARK   10  A    between atoms: O_25  and  C_26
REMARK   11  A    between atoms: C_28  and  O_40
REMARK   12  A    between atoms: C_30  and  O_39
REMARK   13  A    between atoms: C_32  and  O_38
REMARK   14  A    between atoms: C_34  and  C_37
REMARK   15  A    between atoms: C_43  and  O_48
REMARK   16  A    between atoms: C_44  and  O_47
REMARK                            x       y       z     vdW  Elec       q    Type
REMARK                         _______ _______ _______ _____ _____    ______ ____
ROOT
ATOM      1  C   UNL     1       7.959   0.696  23.533  0.00  0.00    +0.131 A 
ATOM      2  C   UNL     1       7.154  -0.382  23.140  0.00  0.00    +0.093 A 
ATOM      3  C   UNL     1       7.002  -1.484  23.993  0.00  0.00    +0.147 A 
ATOM      4  O   UNL     1       6.231  -2.542  23.571  0.00  0.00    -0.451 OA
ATOM      5  C   UNL     1       5.956  -3.565  24.478  0.00  0.00    +0.181 A 
ATOM      6  C   UNL     1       6.577  -3.741  25.668  0.00  0.00    +0.214 A 
ATOM      7  C   UNL     1       7.685  -2.769  25.942  0.00  0.00    +0.238 A 
ATOM      8  O   UNL     1       8.641  -3.024  26.656  0.00  0.00    -0.283 OA
ATOM      9  C   UNL     1       7.664  -1.500  25.213  0.00  0.00    +0.109 A 
ATOM     10  C   UNL     1       8.397  -0.386  25.639  0.00  0.00    +0.135 A 
ATOM     11  C   UNL     1       8.547   0.703  24.798  0.00  0.00    +0.092 A 
ENDROOT
BRANCH   5  12
ATOM     12  C   UNL     1       4.954  -4.526  23.968  0.00  0.00    +0.025 A 
ATOM     13  C   UNL     1       5.380  -5.785  23.501  0.00  0.00    +0.015 A 
ATOM     14  C   UNL     1       4.460  -6.719  23.012  0.00  0.00    +0.050 A 
ATOM     15  C   UNL     1       3.116  -6.391  22.985  0.00  0.00    +0.158 A 
ATOM     16  C   UNL     1       2.678  -5.145  23.431  0.00  0.00    +0.159 A 
ATOM     17  C   UNL     1       3.589  -4.206  23.920  0.00  0.00    +0.060 A 
BRANCH  15  18
ATOM     18  O   UNL     1       2.217  -7.308  22.516  0.00  0.00    -0.503 OA
ATOM     19  H   UNL     1       2.748  -7.921  21.971  0.00  0.00    +0.292 HD
ENDBRANCH  15  18
BRANCH  16  20
ATOM     20  O   UNL     1       1.337  -4.892  23.359  0.00  0.00    -0.503 OA
ATOM     21  H   UNL     1       1.038  -5.079  22.454  0.00  0.00    +0.292 HD
ENDBRANCH  16  20
ENDBRANCH   5  12
BRANCH  10  22
ATOM     22  O   UNL     1       8.953  -0.346  26.891  0.00  0.00    -0.506 OA
ATOM     23  H   UNL     1       8.587  -1.073  27.421  0.00  0.00    +0.292 HD
ENDBRANCH  10  22
BRANCH   1  24
ATOM     24  O   UNL     1       8.290   1.797  22.799  0.00  0.00    -0.461 OA
BRANCH  24  28
ATOM     25  C   UNL     1       5.895   4.914  24.539  0.00  0.00    +0.041 C 
ATOM     26  C   UNL     1       6.330   4.874  23.076  0.00  0.00    +0.150 C 
ATOM     27  O   UNL     1       6.743   3.562  22.684  0.00  0.00    -0.334 OA
ATOM     28  C   UNL     1       7.943   3.090  23.298  0.00  0.00    +0.339 C 
ATOM     29  C   UNL     1       9.137   4.026  22.985  0.00  0.00    +0.214 C 
ATOM     30  C   UNL     1       8.771   5.472  23.363  0.00  0.00    +0.180 C 
ATOM     31  C   UNL     1       7.429   5.888  22.734  0.00  0.00    +0.174 C 
BRANCH  29  32
ATOM     32  O   UNL     1      10.308   3.577  23.694  0.00  0.00    -0.383 OA
ATOM     33  H   UNL     1      10.250   2.615  23.816  0.00  0.00    +0.210 HD
ENDBRANCH  29  32
BRANCH  30  34
ATOM     34  O   UNL     1       9.834   6.358  22.994  0.00  0.00    -0.386 OA
ATOM     35  H   UNL     1       9.592   7.259  23.276  0.00  0.00    +0.210 HD
ENDBRANCH  30  34
BRANCH  31  36
ATOM     36  O   UNL     1       7.568   5.983  21.309  0.00  0.00    -0.387 OA
ATOM     37  H   UNL     1       8.200   5.296  21.019  0.00  0.00    +0.210 HD
ENDBRANCH  31  36
ENDBRANCH  24  28
ENDBRANCH   1  24
BRANCH   6  38
ATOM     38  O   UNL     1       6.213  -4.762  26.556  0.00  0.00    -0.453 OA
BRANCH  38  39
ATOM     39  C   UNL     1       5.855  -4.393  27.896  0.00  0.00    +0.339 C 
ATOM     40  O   UNL     1       6.443  -5.267  28.860  0.00  0.00    -0.334 OA
ATOM     41  C   UNL     1       5.808  -6.546  28.958  0.00  0.00    +0.150 C 
ATOM     42  C   UNL     1       6.587  -7.361  29.985  0.00  0.00    +0.041 C 
ATOM     43  C   UNL     1       4.335  -6.393  29.361  0.00  0.00    +0.174 C 
ATOM     44  C   UNL     1       3.620  -5.560  28.288  0.00  0.00    +0.180 C 
ATOM     45  C   UNL     1       4.333  -4.229  28.102  0.00  0.00    +0.214 C 
BRANCH  43  46
ATOM     46  O   UNL     1       3.733  -7.682  29.513  0.00  0.00    -0.387 OA
ATOM     47  H   UNL     1       4.135  -8.107  30.291  0.00  0.00    +0.210 HD
ENDBRANCH  43  46
BRANCH  44  48
ATOM     48  O   UNL     1       2.259  -5.320  28.685  0.00  0.00    -0.386 OA
ATOM     49  H   UNL     1       2.102  -4.368  28.519  0.00  0.00    +0.210 HD
ENDBRANCH  44  48
BRANCH  45  50
ATOM     50  O   UNL     1       3.690  -3.486  27.054  0.00  0.00    -0.383 OA
ATOM     51  H   UNL     1       4.260  -2.721  26.854  0.00  0.00    +0.210 HD
ENDBRANCH  45  50
ENDBRANCH  38  39
ENDBRANCH   6  38
TORSDOF 14
ENDMDL
MODEL 8
REMARK VINA RESULT:      -6.6      2.183      3.065
REMARK  Name = 
REMARK  16 active torsions:
REMARK  status: ('A' for Active; 'I' for Inactive)
REMARK    1  A    between atoms: C_1  and  C_2
REMARK    2  A    between atoms: C_4  and  O_52
REMARK    3  A    between atoms: C_6  and  O_51
REMARK    4  A    between atoms: C_8  and  O_50
REMARK    5  A    between atoms: C_10  and  O_13
REMARK    6  A    between atoms: O_13  and  C_14
REMARK    7  A    between atoms: C_16  and  O_49
REMARK    8  A    between atoms: C_21  and  C_41
REMARK    9  A    between atoms: C_22  and  O_25
REMARK   10  A    between atoms: O_25  and  C_26
REMARK   11  A    between atoms: C_28  and  O_40
REMARK   12  A    between atoms: C_30  and  O_39
REMARK   13  A    between atoms: C_32  and  O_38
REMARK   14  A    between atoms: C_34  and  C_37
REMARK   15  A    between atoms: C_43  and  O_48
REMARK   16  A    between atoms: C_44  and  O_47
REMARK                            x       y       z     vdW  Elec       q    Type
REMARK                         _______ _______ _______ _____ _____    ______ ____
ROOT
ATOM      1  C   UNL     1       6.176  -4.581  24.976  0.00  0.00    +0.131 A 
ATOM      2  C   UNL     1       5.849  -3.598  25.920  0.00  0.00    +0.093 A 
ATOM      3  C   UNL     1       6.517  -2.366  25.900  0.00  0.00    +0.147 A 
ATOM      4  O   UNL     1       6.199  -1.429  26.857  0.00  0.00    -0.451 OA
ATOM      5  C   UNL     1       6.749  -0.153  26.742  0.00  0.00    +0.181 A 
ATOM      6  C   UNL     1       7.764   0.188  25.914  0.00  0.00    +0.214 A 
ATOM      7  C   UNL     1       8.344  -0.955  25.137  0.00  0.00    +0.238 A 
ATOM      8  O   UNL     1       9.500  -0.981  24.744  0.00  0.00    -0.283 OA
ATOM      9  C   UNL     1       7.505  -2.140  24.953  0.00  0.00    +0.109 A 
ATOM     10  C   UNL     1       7.769  -3.089  23.959  0.00  0.00    +0.135 A 
ATOM     11  C   UNL     1       7.110  -4.306  23.977  0.00  0.00    +0.092 A 
ENDROOT
BRANCH   5  12
ATOM     12  C   UNL     1       6.167   0.808  27.705  0.00  0.00    +0.025 A 
ATOM     13  C   UNL     1       6.783   0.989  28.958  0.00  0.00    +0.015 A 
ATOM     14  C   UNL     1       6.260   1.889  29.893  0.00  0.00    +0.050 A 
ATOM     15  C   UNL     1       5.118   2.604  29.575  0.00  0.00    +0.158 A 
ATOM     16  C   UNL     1       4.488   2.428  28.344  0.00  0.00    +0.159 A 
ATOM     17  C   UNL     1       5.002   1.531  27.406  0.00  0.00    +0.060 A 
BRANCH  15  18
ATOM     18  O   UNL     1       4.613   3.490  30.485  0.00  0.00    -0.503 OA
ATOM     19  H   UNL     1       4.740   4.368  30.075  0.00  0.00    +0.292 HD
ENDBRANCH  15  18
BRANCH  16  20
ATOM     20  O   UNL     1       3.358   3.159  28.111  0.00  0.00    -0.503 OA
ATOM     21  H   UNL     1       3.431   3.998  28.596  0.00  0.00    +0.292 HD
ENDBRANCH  16  20
ENDBRANCH   5  12
BRANCH  10  22
ATOM     22  O   UNL     1       8.657  -2.824  22.950  0.00  0.00    -0.506 OA
ATOM     23  H   UNL     1       9.419  -3.421  23.036  0.00  0.00    +0.292 HD
ENDBRANCH  10  22
BRANCH   1  24
ATOM     24  O   UNL     1       5.699  -5.857  24.905  0.00  0.00    -0.461 OA
BRANCH  24  28
ATOM     25  C   UNL     1       1.752  -5.884  26.608  0.00  0.00    +0.041 C 
ATOM     26  C   UNL     1       2.591  -7.134  26.351  0.00  0.00    +0.150 C 
ATOM     27  O   UNL     1       3.975  -6.816  26.181  0.00  0.00    -0.334 OA
ATOM     28  C   UNL     1       4.290  -6.076  25.001  0.00  0.00    +0.339 C 
ATOM     29  C   UNL     1       3.869  -6.848  23.727  0.00  0.00    +0.214 C 
ATOM     30  C   UNL     1       2.387  -7.247  23.833  0.00  0.00    +0.180 C 
ATOM     31  C   UNL     1       2.099  -7.969  25.161  0.00  0.00    +0.174 C 
BRANCH  29  32
ATOM     32  O   UNL     1       4.113  -6.036  22.562  0.00  0.00    -0.383 OA
ATOM     33  H   UNL     1       3.577  -5.229  22.624  0.00  0.00    +0.210 HD
ENDBRANCH  29  32
BRANCH  30  34
ATOM     34  O   UNL     1       2.011  -8.039  22.700  0.00  0.00    -0.386 OA
ATOM     35  H   UNL     1       2.471  -8.896  22.761  0.00  0.00    +0.210 HD
ENDBRANCH  30  34
BRANCH  31  36
ATOM     36  O   UNL     1       2.750  -9.248  25.172  0.00  0.00    -0.387 OA
ATOM     37  H   UNL     1       2.115  -9.910  25.509  0.00  0.00    +0.210 HD
ENDBRANCH  31  36
ENDBRANCH  24  28
ENDBRANCH   1  24
BRANCH   6  38
ATOM     38  O   UNL     1       8.235   1.504  25.813  0.00  0.00    -0.453 OA
BRANCH  38  39
ATOM     39  C   UNL     1       7.739   2.315  24.737  0.00  0.00    +0.339 C 
ATOM     40  O   UNL     1       8.305   1.933  23.483  0.00  0.00    -0.334 OA
ATOM     41  C   UNL     1       9.656   2.365  23.293  0.00  0.00    +0.150 C 
ATOM     42  C   UNL     1      10.116   1.833  21.939  0.00  0.00    +0.041 C 
ATOM     43  C   UNL     1       9.753   3.896  23.357  0.00  0.00    +0.174 C 
ATOM     44  C   UNL     1       9.272   4.356  24.739  0.00  0.00    +0.180 C 
ATOM     45  C   UNL     1       7.868   3.832  25.002  0.00  0.00    +0.214 C 
BRANCH  43  46
ATOM     46  O   UNL     1      11.099   4.311  23.104  0.00  0.00    -0.387 OA
ATOM     47  H   UNL     1      11.190   4.454  22.145  0.00  0.00    +0.210 HD
ENDBRANCH  43  46
BRANCH  44  48
ATOM     48  O   UNL     1       9.262   5.793  24.797  0.00  0.00    -0.386 OA
ATOM     49  H   UNL     1       8.365   6.060  24.510  0.00  0.00    +0.210 HD
ENDBRANCH  44  48
BRANCH  45  50
ATOM     50  O   UNL     1       7.453   4.220  26.322  0.00  0.00    -0.383 OA
ATOM     51  H   UNL     1       7.776   5.128  26.468  0.00  0.00    +0.210 HD
ENDBRANCH  45  50
ENDBRANCH  38  39
ENDBRANCH   6  38
TORSDOF 14
ENDMDL
MODEL 9
REMARK VINA RESULT:      -6.5      2.481      5.379
REMARK  Name = 
REMARK  16 active torsions:
REMARK  status: ('A' for Active; 'I' for Inactive)
REMARK    1  A    between atoms: C_1  and  C_2
REMARK    2  A    between atoms: C_4  and  O_52
REMARK    3  A    between atoms: C_6  and  O_51
REMARK    4  A    between atoms: C_8  and  O_50
REMARK    5  A    between atoms: C_10  and  O_13
REMARK    6  A    between atoms: O_13  and  C_14
REMARK    7  A    between atoms: C_16  and  O_49
REMARK    8  A    between atoms: C_21  and  C_41
REMARK    9  A    between atoms: C_22  and  O_25
REMARK   10  A    between atoms: O_25  and  C_26
REMARK   11  A    between atoms: C_28  and  O_40
REMARK   12  A    between atoms: C_30  and  O_39
REMARK   13  A    between atoms: C_32  and  O_38
REMARK   14  A    between atoms: C_34  and  C_37
REMARK   15  A    between atoms: C_43  and  O_48
REMARK   16  A    between atoms: C_44  and  O_47
REMARK                            x       y       z     vdW  Elec       q    Type
REMARK                         _______ _______ _______ _____ _____    ______ ____
ROOT
ATOM      1  C   UNL     1       9.230  -2.082  23.961  0.00  0.00    +0.131 A 
ATOM      2  C   UNL     1       9.986  -0.905  24.041  0.00  0.00    +0.093 A 
ATOM      3  C   UNL     1       9.439   0.305  23.591  0.00  0.00    +0.147 A 
ATOM      4  O   UNL     1      10.214   1.441  23.652  0.00  0.00    -0.451 OA
ATOM      5  C   UNL     1       9.618   2.665  23.349  0.00  0.00    +0.181 A 
ATOM      6  C   UNL     1       8.409   2.821  22.762  0.00  0.00    +0.214 A 
ATOM      7  C   UNL     1       7.739   1.540  22.367  0.00  0.00    +0.238 A 
ATOM      8  O   UNL     1       6.946   1.454  21.443  0.00  0.00    -0.283 OA
ATOM      9  C   UNL     1       8.159   0.319  23.056  0.00  0.00    +0.109 A 
ATOM     10  C   UNL     1       7.375  -0.841  23.057  0.00  0.00    +0.135 A 
ATOM     11  C   UNL     1       7.913  -2.036  23.502  0.00  0.00    +0.092 A 
ENDROOT
BRANCH   5  12
ATOM     12  C   UNL     1      10.495   3.817  23.656  0.00  0.00    +0.025 A 
ATOM     13  C   UNL     1       9.976   4.904  24.385  0.00  0.00    +0.015 A 
ATOM     14  C   UNL     1      10.777   6.010  24.693  0.00  0.00    +0.050 A 
ATOM     15  C   UNL     1      12.093   6.030  24.267  0.00  0.00    +0.158 A 
ATOM     16  C   UNL     1      12.619   4.967  23.533  0.00  0.00    +0.159 A 
ATOM     17  C   UNL     1      11.828   3.860  23.220  0.00  0.00    +0.060 A 
BRANCH  15  18
ATOM     18  O   UNL     1      12.877   7.105  24.576  0.00  0.00    -0.503 OA
ATOM     19  H   UNL     1      12.531   7.833  24.023  0.00  0.00    +0.292 HD
ENDBRANCH  15  18
BRANCH  16  20
ATOM     20  O   UNL     1      13.923   5.067  23.137  0.00  0.00    -0.503 OA
ATOM     21  H   UNL     1      13.942   5.197  22.174  0.00  0.00    +0.292 HD
ENDBRANCH  16  20
ENDBRANCH   5  12
BRANCH  10  22
ATOM     22  O   UNL     1       6.069  -0.809  22.643  0.00  0.00    -0.506 OA
ATOM     23  H   UNL     1       5.548  -0.301  23.286  0.00  0.00    +0.292 HD
ENDBRANCH  10  22
BRANCH   1  24
ATOM     24  O   UNL     1       9.631  -3.350  24.264  0.00  0.00    -0.461 OA
BRANCH  24  28
ATOM     25  C   UNL     1       6.298  -5.985  23.613  0.00  0.00    +0.041 C 
ATOM     26  C   UNL     1       6.261  -4.752  24.512  0.00  0.00    +0.150 C 
ATOM     27  O   UNL     1       7.337  -3.854  24.222  0.00  0.00    -0.334 OA
ATOM     28  C   UNL     1       8.641  -4.340  24.545  0.00  0.00    +0.339 C 
ATOM     29  C   UNL     1       8.756  -4.674  26.052  0.00  0.00    +0.214 C 
ATOM     30  C   UNL     1       7.618  -5.628  26.457  0.00  0.00    +0.180 C 
ATOM     31  C   UNL     1       6.250  -5.083  26.010  0.00  0.00    +0.174 C 
BRANCH  29  32
ATOM     32  O   UNL     1      10.048  -5.249  26.328  0.00  0.00    -0.383 OA
ATOM     33  H   UNL     1      10.581  -4.601  26.816  0.00  0.00    +0.210 HD
ENDBRANCH  29  32
BRANCH  30  34
ATOM     34  O   UNL     1       7.663  -5.871  27.869  0.00  0.00    -0.386 OA
ATOM     35  H   UNL     1       7.863  -6.815  28.009  0.00  0.00    +0.210 HD
ENDBRANCH  30  34
BRANCH  31  36
ATOM     36  O   UNL     1       5.926  -3.904  26.760  0.00  0.00    -0.387 OA
ATOM     37  H   UNL     1       6.189  -3.125  26.231  0.00  0.00    +0.210 HD
ENDBRANCH  31  36
ENDBRANCH  24  28
ENDBRANCH   1  24
BRANCH   6  38
ATOM     38  O   UNL     1       7.848   4.084  22.533  0.00  0.00    -0.453 OA
BRANCH  38  39
ATOM     39  C   UNL     1       7.034   4.657  23.568  0.00  0.00    +0.339 C 
ATOM     40  O   UNL     1       6.656   3.684  24.543  0.00  0.00    -0.334 OA
ATOM     41  C   UNL     1       5.623   2.793  24.113  0.00  0.00    +0.150 C 
ATOM     42  C   UNL     1       5.382   1.798  25.244  0.00  0.00    +0.041 C 
ATOM     43  C   UNL     1       4.344   3.568  23.765  0.00  0.00    +0.174 C 
ATOM     44  C   UNL     1       4.664   4.549  22.629  0.00  0.00    +0.180 C 
ATOM     45  C   UNL     1       5.823   5.449  23.029  0.00  0.00    +0.214 C 
BRANCH  43  46
ATOM     46  O   UNL     1       3.304   2.657  23.397  0.00  0.00    -0.387 OA
ATOM     47  H   UNL     1       2.500   2.913  23.883  0.00  0.00    +0.210 HD
ENDBRANCH  43  46
BRANCH  44  48
ATOM     48  O   UNL     1       3.509   5.357  22.344  0.00  0.00    -0.386 OA
ATOM     49  H   UNL     1       3.287   5.177  21.409  0.00  0.00    +0.210 HD
ENDBRANCH  44  48
BRANCH  45  50
ATOM     50  O   UNL     1       6.150   6.321  21.934  0.00  0.00    -0.383 OA
ATOM     51  H   UNL     1       6.679   5.800  21.302  0.00  0.00    +0.210 HD
ENDBRANCH  45  50
ENDBRANCH  38  39
ENDBRANCH   6  38
TORSDOF 14
ENDMDL
