MODEL 1
REMARK VINA RESULT:      -7.8      0.000      0.000
REMARK  Name = 
REMARK  10 active torsions:
REMARK  status: ('A' for Active; 'I' for Inactive)
REMARK    1  A    between atoms: C_2  and  O_34
REMARK    2  A    between atoms: C_4  and  O_33
REMARK    3  A    between atoms: C_6  and  O_32
REMARK    4  A    between atoms: C_7  and  O_10
REMARK    5  A    between atoms: O_10  and  C_11
REMARK    6  A    between atoms: C_13  and  O_31
REMARK    7  A    between atoms: C_18  and  C_23
REMARK    8  A    between atoms: C_19  and  O_22
REMARK    9  A    between atoms: C_25  and  O_30
REMARK   10  A    between atoms: C_26  and  O_29
REMARK                            x       y       z     vdW  Elec       q    Type
REMARK                         _______ _______ _______ _____ _____    ______ ____
ROOT
ATOM      1  C   UNL     1       7.125   0.795  23.447  0.00  0.00    +0.131 A 
ATOM      2  C   UNL     1       6.428  -0.374  23.755  0.00  0.00    +0.093 A 
ATOM      3  C   UNL     1       7.126  -1.586  23.915  0.00  0.00    +0.147 A 
ATOM      4  O   UNL     1       6.370  -2.696  24.217  0.00  0.00    -0.451 OA
ATOM      5  C   UNL     1       6.996  -3.937  24.332  0.00  0.00    +0.181 A 
ATOM      6  C   UNL     1       8.321  -4.116  24.156  0.00  0.00    +0.208 A 
ATOM      7  C   UNL     1       9.187  -2.935  23.891  0.00  0.00    +0.238 A 
ATOM      8  O   UNL     1      10.396  -3.083  23.754  0.00  0.00    -0.283 OA
ATOM      9  C   UNL     1       8.512  -1.630  23.759  0.00  0.00    +0.109 A 
ATOM     10  C   UNL     1       9.203  -0.450  23.453  0.00  0.00    +0.135 A 
ATOM     11  C   UNL     1       8.510   0.751  23.289  0.00  0.00    +0.092 A 
ENDROOT
BRANCH   5  12
ATOM     12  C   UNL     1       6.059  -5.051  24.661  0.00  0.00    +0.025 A 
ATOM     13  C   UNL     1       5.255  -5.623  23.656  0.00  0.00    +0.015 A 
ATOM     14  C   UNL     1       4.381  -6.681  23.940  0.00  0.00    +0.050 A 
ATOM     15  C   UNL     1       4.313  -7.184  25.229  0.00  0.00    +0.158 A 
ATOM     16  C   UNL     1       5.085  -6.630  26.241  0.00  0.00    +0.159 A 
ATOM     17  C   UNL     1       5.931  -5.555  25.971  0.00  0.00    +0.060 A 
BRANCH  15  18
ATOM     18  O   UNL     1       3.484  -8.233  25.499  0.00  0.00    -0.503 OA
ATOM     19  H   UNL     1       2.928  -7.928  26.243  0.00  0.00    +0.292 HD
ENDBRANCH  15  18
BRANCH  16  20
ATOM     20  O   UNL     1       4.988  -7.181  27.489  0.00  0.00    -0.503 OA
ATOM     21  H   UNL     1       4.107  -7.587  27.580  0.00  0.00    +0.292 HD
ENDBRANCH  16  20
ENDBRANCH   5  12
BRANCH   6  22
ATOM     22  O   UNL     1       8.953  -5.348  24.190  0.00  0.00    -0.501 OA
ATOM     23  H   UNL     1       9.344  -5.446  25.074  0.00  0.00    +0.292 HD
ENDBRANCH   6  22
BRANCH  10  24
ATOM     24  O   UNL     1      10.559  -0.444  23.302  0.00  0.00    -0.506 OA
ATOM     25  H   UNL     1      10.931   0.417  23.551  0.00  0.00    +0.292 HD
ENDBRANCH  10  24
BRANCH   1  26
ATOM     26  O   UNL     1       6.578   2.023  23.213  0.00  0.00    -0.461 OA
BRANCH  26  29
ATOM     27  C   UNL     1       8.125   4.949  24.709  0.00  0.00    +0.198 C 
ATOM     28  O   UNL     1       7.286   3.801  24.578  0.00  0.00    -0.337 OA
ATOM     29  C   UNL     1       7.438   3.163  23.299  0.00  0.00    +0.339 C 
ATOM     30  C   UNL     1       6.997   4.154  22.189  0.00  0.00    +0.214 C 
ATOM     31  C   UNL     1       7.891   5.398  22.265  0.00  0.00    +0.180 C 
ATOM     32  C   UNL     1       7.806   6.021  23.663  0.00  0.00    +0.171 C 
BRANCH  30  33
ATOM     33  O   UNL     1       5.616   4.538  22.371  0.00  0.00    -0.383 OA
ATOM     34  H   UNL     1       5.330   4.990  21.554  0.00  0.00    +0.210 HD
ENDBRANCH  30  33
BRANCH  31  35
ATOM     35  O   UNL     1       7.535   6.369  21.275  0.00  0.00    -0.386 OA
ATOM     36  H   UNL     1       6.563   6.451  21.319  0.00  0.00    +0.210 HD
ENDBRANCH  31  35
BRANCH  32  37
ATOM     37  O   UNL     1       8.731   7.108  23.743  0.00  0.00    -0.387 OA
ATOM     38  H   UNL     1       8.534   7.711  23.003  0.00  0.00    +0.210 HD
ENDBRANCH  32  37
ENDBRANCH  26  29
ENDBRANCH   1  26
TORSDOF 10
ENDMDL
MODEL 2
REMARK VINA RESULT:      -7.3      1.595      9.361
REMARK  Name = 
REMARK  10 active torsions:
REMARK  status: ('A' for Active; 'I' for Inactive)
REMARK    1  A    between atoms: C_2  and  O_34
REMARK    2  A    between atoms: C_4  and  O_33
REMARK    3  A    between atoms: C_6  and  O_32
REMARK    4  A    between atoms: C_7  and  O_10
REMARK    5  A    between atoms: O_10  and  C_11
REMARK    6  A    between atoms: C_13  and  O_31
REMARK    7  A    between atoms: C_18  and  C_23
REMARK    8  A    between atoms: C_19  and  O_22
REMARK    9  A    between atoms: C_25  and  O_30
REMARK   10  A    between atoms: C_26  and  O_29
REMARK                            x       y       z     vdW  Elec       q    Type
REMARK                         _______ _______ _______ _____ _____    ______ ____
ROOT
ATOM      1  C   UNL     1       6.975  -2.911  22.600  0.00  0.00    +0.131 A 
ATOM      2  C   UNL     1       6.587  -1.571  22.617  0.00  0.00    +0.093 A 
ATOM      3  C   UNL     1       7.526  -0.573  22.939  0.00  0.00    +0.147 A 
ATOM      4  O   UNL     1       7.070   0.726  22.936  0.00  0.00    -0.451 OA
ATOM      5  C   UNL     1       7.937   1.755  23.301  0.00  0.00    +0.181 A 
ATOM      6  C   UNL     1       9.218   1.547  23.670  0.00  0.00    +0.208 A 
ATOM      7  C   UNL     1       9.774   0.167  23.627  0.00  0.00    +0.238 A 
ATOM      8  O   UNL     1      10.943  -0.030  23.937  0.00  0.00    -0.283 OA
ATOM      9  C   UNL     1       8.843  -0.915  23.251  0.00  0.00    +0.109 A 
ATOM     10  C   UNL     1       9.223  -2.263  23.228  0.00  0.00    +0.135 A 
ATOM     11  C   UNL     1       8.290  -3.253  22.914  0.00  0.00    +0.092 A 
ENDROOT
BRANCH   5  12
ATOM     12  C   UNL     1       7.311   3.110  23.255  0.00  0.00    +0.025 A 
ATOM     13  C   UNL     1       6.361   3.486  24.223  0.00  0.00    +0.015 A 
ATOM     14  C   UNL     1       5.774   4.759  24.207  0.00  0.00    +0.050 A 
ATOM     15  C   UNL     1       6.142   5.669  23.229  0.00  0.00    +0.158 A 
ATOM     16  C   UNL     1       7.067   5.318  22.255  0.00  0.00    +0.159 A 
ATOM     17  C   UNL     1       7.629   4.042  22.247  0.00  0.00    +0.060 A 
BRANCH  15  18
ATOM     18  O   UNL     1       5.593   6.918  23.232  0.00  0.00    -0.503 OA
ATOM     19  H   UNL     1       4.701   6.799  22.846  0.00  0.00    +0.292 HD
ENDBRANCH  15  18
BRANCH  16  20
ATOM     20  O   UNL     1       7.404   6.266  21.329  0.00  0.00    -0.503 OA
ATOM     21  H   UNL     1       6.638   6.415  20.746  0.00  0.00    +0.292 HD
ENDBRANCH  16  20
ENDBRANCH   5  12
BRANCH   6  22
ATOM     22  O   UNL     1      10.074   2.543  24.110  0.00  0.00    -0.501 OA
ATOM     23  H   UNL     1       9.960   2.614  25.073  0.00  0.00    +0.292 HD
ENDBRANCH   6  22
BRANCH  10  24
ATOM     24  O   UNL     1      10.502  -2.642  23.516  0.00  0.00    -0.506 OA
ATOM     25  H   UNL     1      11.136  -1.973  23.213  0.00  0.00    +0.292 HD
ENDBRANCH  10  24
BRANCH   1  26
ATOM     26  O   UNL     1       6.165  -3.983  22.359  0.00  0.00    -0.461 OA
BRANCH  26  29
ATOM     27  C   UNL     1       5.693  -5.459  25.644  0.00  0.00    +0.198 C 
ATOM     28  O   UNL     1       6.363  -4.894  24.517  0.00  0.00    -0.337 OA
ATOM     29  C   UNL     1       5.449  -4.539  23.466  0.00  0.00    +0.339 C 
ATOM     30  C   UNL     1       4.748  -5.827  22.956  0.00  0.00    +0.214 C 
ATOM     31  C   UNL     1       3.984  -6.459  24.126  0.00  0.00    +0.180 C 
ATOM     32  C   UNL     1       4.943  -6.744  25.287  0.00  0.00    +0.171 C 
BRANCH  30  33
ATOM     33  O   UNL     1       5.719  -6.767  22.448  0.00  0.00    -0.383 OA
ATOM     34  H   UNL     1       6.001  -6.448  21.570  0.00  0.00    +0.210 HD
ENDBRANCH  30  33
BRANCH  31  35
ATOM     35  O   UNL     1       3.317  -7.664  23.735  0.00  0.00    -0.386 OA
ATOM     36  H   UNL     1       4.019  -8.332  23.621  0.00  0.00    +0.210 HD
ENDBRANCH  31  35
BRANCH  32  37
ATOM     37  O   UNL     1       4.189  -7.226  26.403  0.00  0.00    -0.387 OA
ATOM     38  H   UNL     1       4.825  -7.453  27.106  0.00  0.00    +0.210 HD
ENDBRANCH  32  37
ENDBRANCH  26  29
ENDBRANCH   1  26
TORSDOF 10
ENDMDL
MODEL 3
REMARK VINA RESULT:      -7.3      1.562      2.379
REMARK  Name = 
REMARK  10 active torsions:
REMARK  status: ('A' for Active; 'I' for Inactive)
REMARK    1  A    between atoms: C_2  and  O_34
REMARK    2  A    between atoms: C_4  and  O_33
REMARK    3  A    between atoms: C_6  and  O_32
REMARK    4  A    between atoms: C_7  and  O_10
REMARK    5  A    between atoms: O_10  and  C_11
REMARK    6  A    between atoms: C_13  and  O_31
REMARK    7  A    between atoms: C_18  and  C_23
REMARK    8  A    between atoms: C_19  and  O_22
REMARK    9  A    between atoms: C_25  and  O_30
REMARK   10  A    between atoms: C_26  and  O_29
REMARK                            x       y       z     vdW  Elec       q    Type
REMARK                         _______ _______ _______ _____ _____    ______ ____
ROOT
ATOM      1  C   UNL     1       7.326  -0.623  23.038  0.00  0.00    +0.131 A 
ATOM      2  C   UNL     1       6.632  -1.501  23.871  0.00  0.00    +0.093 A 
ATOM      3  C   UNL     1       7.295  -2.609  24.431  0.00  0.00    +0.147 A 
ATOM      4  O   UNL     1       6.545  -3.430  25.243  0.00  0.00    -0.451 OA
ATOM      5  C   UNL     1       7.130  -4.575  25.782  0.00  0.00    +0.181 A 
ATOM      6  C   UNL     1       8.408  -4.935  25.546  0.00  0.00    +0.208 A 
ATOM      7  C   UNL     1       9.276  -4.045  24.727  0.00  0.00    +0.238 A 
ATOM      8  O   UNL     1      10.446  -4.349  24.526  0.00  0.00    -0.283 OA
ATOM      9  C   UNL     1       8.643  -2.843  24.151  0.00  0.00    +0.109 A 
ATOM     10  C   UNL     1       9.331  -1.954  23.316  0.00  0.00    +0.135 A 
ATOM     11  C   UNL     1       8.672  -0.858  22.756  0.00  0.00    +0.092 A 
ENDROOT
BRANCH   5  12
ATOM     12  C   UNL     1       6.204  -5.373  26.640  0.00  0.00    +0.025 A 
ATOM     13  C   UNL     1       6.325  -5.335  28.042  0.00  0.00    +0.015 A 
ATOM     14  C   UNL     1       5.455  -6.063  28.865  0.00  0.00    +0.050 A 
ATOM     15  C   UNL     1       4.449  -6.825  28.292  0.00  0.00    +0.158 A 
ATOM     16  C   UNL     1       4.317  -6.889  26.912  0.00  0.00    +0.159 A 
ATOM     17  C   UNL     1       5.200  -6.194  26.088  0.00  0.00    +0.060 A 
BRANCH  15  18
ATOM     18  O   UNL     1       3.584  -7.509  29.095  0.00  0.00    -0.503 OA
ATOM     19  H   UNL     1       4.054  -8.338  29.318  0.00  0.00    +0.292 HD
ENDBRANCH  15  18
BRANCH  16  20
ATOM     20  O   UNL     1       3.293  -7.643  26.407  0.00  0.00    -0.503 OA
ATOM     21  H   UNL     1       2.615  -7.043  26.048  0.00  0.00    +0.292 HD
ENDBRANCH  16  20
ENDBRANCH   5  12
BRANCH   6  22
ATOM     22  O   UNL     1       8.988  -6.105  26.007  0.00  0.00    -0.501 OA
ATOM     23  H   UNL     1       9.951  -5.980  25.976  0.00  0.00    +0.292 HD
ENDBRANCH   6  22
BRANCH  10  24
ATOM     24  O   UNL     1      10.652  -2.137  23.024  0.00  0.00    -0.506 OA
ATOM     25  H   UNL     1      10.756  -2.637  22.198  0.00  0.00    +0.292 HD
ENDBRANCH  10  24
BRANCH   1  26
ATOM     26  O   UNL     1       6.802   0.456  22.387  0.00  0.00    -0.461 OA
BRANCH  26  29
ATOM     27  C   UNL     1       6.056   3.952  23.032  0.00  0.00    +0.198 C 
ATOM     28  O   UNL     1       5.980   2.658  22.433  0.00  0.00    -0.337 OA
ATOM     29  C   UNL     1       6.911   1.734  23.020  0.00  0.00    +0.339 C 
ATOM     30  C   UNL     1       8.354   2.248  22.767  0.00  0.00    +0.214 C 
ATOM     31  C   UNL     1       8.499   3.628  23.420  0.00  0.00    +0.180 C 
ATOM     32  C   UNL     1       7.439   4.586  22.866  0.00  0.00    +0.171 C 
BRANCH  30  33
ATOM     33  O   UNL     1       8.614   2.354  21.350  0.00  0.00    -0.383 OA
ATOM     34  H   UNL     1       7.949   2.961  20.976  0.00  0.00    +0.210 HD
ENDBRANCH  30  33
BRANCH  31  35
ATOM     35  O   UNL     1       9.807   4.176  23.218  0.00  0.00    -0.386 OA
ATOM     36  H   UNL     1      10.252   3.578  22.588  0.00  0.00    +0.210 HD
ENDBRANCH  31  35
BRANCH  32  37
ATOM     37  O   UNL     1       7.523   5.827  23.571  0.00  0.00    -0.387 OA
ATOM     38  H   UNL     1       7.269   5.653  24.496  0.00  0.00    +0.210 HD
ENDBRANCH  32  37
ENDBRANCH  26  29
ENDBRANCH   1  26
TORSDOF 10
ENDMDL
MODEL 4
REMARK VINA RESULT:      -7.2      2.188      2.997
REMARK  Name = 
REMARK  10 active torsions:
REMARK  status: ('A' for Active; 'I' for Inactive)
REMARK    1  A    between atoms: C_2  and  O_34
REMARK    2  A    between atoms: C_4  and  O_33
REMARK    3  A    between atoms: C_6  and  O_32
REMARK    4  A    between atoms: C_7  and  O_10
REMARK    5  A    between atoms: O_10  and  C_11
REMARK    6  A    between atoms: C_13  and  O_31
REMARK    7  A    between atoms: C_18  and  C_23
REMARK    8  A    between atoms: C_19  and  O_22
REMARK    9  A    between atoms: C_25  and  O_30
REMARK   10  A    between atoms: C_26  and  O_29
REMARK                            x       y       z     vdW  Elec       q    Type
REMARK                         _______ _______ _______ _____ _____    ______ ____
ROOT
ATOM      1  C   UNL     1       9.846   0.008  24.326  0.00  0.00    +0.131 A 
ATOM      2  C   UNL     1       9.160  -0.705  25.309  0.00  0.00    +0.093 A 
ATOM      3  C   UNL     1       8.513  -1.911  24.977  0.00  0.00    +0.147 A 
ATOM      4  O   UNL     1       7.856  -2.559  25.999  0.00  0.00    -0.451 OA
ATOM      5  C   UNL     1       7.148  -3.728  25.722  0.00  0.00    +0.181 A 
ATOM      6  C   UNL     1       7.064  -4.267  24.489  0.00  0.00    +0.208 A 
ATOM      7  C   UNL     1       7.810  -3.637  23.365  0.00  0.00    +0.238 A 
ATOM      8  O   UNL     1       7.760  -4.133  22.246  0.00  0.00    -0.283 OA
ATOM      9  C   UNL     1       8.545  -2.394  23.668  0.00  0.00    +0.109 A 
ATOM     10  C   UNL     1       9.239  -1.671  22.689  0.00  0.00    +0.135 A 
ATOM     11  C   UNL     1       9.876  -0.473  23.017  0.00  0.00    +0.092 A 
ENDROOT
BRANCH   5  12
ATOM     12  C   UNL     1       6.484  -4.323  26.920  0.00  0.00    +0.025 A 
ATOM     13  C   UNL     1       5.367  -3.691  27.499  0.00  0.00    +0.015 A 
ATOM     14  C   UNL     1       4.719  -4.242  28.613  0.00  0.00    +0.050 A 
ATOM     15  C   UNL     1       5.176  -5.435  29.149  0.00  0.00    +0.158 A 
ATOM     16  C   UNL     1       6.284  -6.071  28.605  0.00  0.00    +0.159 A 
ATOM     17  C   UNL     1       6.952  -5.510  27.517  0.00  0.00    +0.060 A 
BRANCH  15  18
ATOM     18  O   UNL     1       4.527  -5.985  30.215  0.00  0.00    -0.503 OA
ATOM     19  H   UNL     1       4.614  -6.952  30.089  0.00  0.00    +0.292 HD
ENDBRANCH  15  18
BRANCH  16  20
ATOM     20  O   UNL     1       6.675  -7.255  29.166  0.00  0.00    -0.503 OA
ATOM     21  H   UNL     1       6.209  -7.365  30.013  0.00  0.00    +0.292 HD
ENDBRANCH  16  20
ENDBRANCH   5  12
BRANCH   6  22
ATOM     22  O   UNL     1       6.305  -5.383  24.175  0.00  0.00    -0.501 OA
ATOM     23  H   UNL     1       6.891  -6.008  23.716  0.00  0.00    +0.292 HD
ENDBRANCH   6  22
BRANCH  10  24
ATOM     24  O   UNL     1       9.306  -2.111  21.399  0.00  0.00    -0.506 OA
ATOM     25  H   UNL     1       9.732  -2.982  21.354  0.00  0.00    +0.292 HD
ENDBRANCH  10  24
BRANCH   1  26
ATOM     26  O   UNL     1      10.471   1.211  24.490  0.00  0.00    -0.461 OA
BRANCH  26  29
ATOM     27  C   UNL     1       7.542   3.276  23.900  0.00  0.00    +0.198 C 
ATOM     28  O   UNL     1       8.390   2.127  23.895  0.00  0.00    -0.337 OA
ATOM     29  C   UNL     1       9.657   2.386  24.522  0.00  0.00    +0.339 C 
ATOM     30  C   UNL     1      10.402   3.482  23.714  0.00  0.00    +0.214 C 
ATOM     31  C   UNL     1       9.545   4.753  23.714  0.00  0.00    +0.180 C 
ATOM     32  C   UNL     1       8.157   4.452  23.137  0.00  0.00    +0.171 C 
BRANCH  30  33
ATOM     33  O   UNL     1      10.622   3.047  22.354  0.00  0.00    -0.383 OA
ATOM     34  H   UNL     1       9.820   3.269  21.844  0.00  0.00    +0.210 HD
ENDBRANCH  30  33
BRANCH  31  35
ATOM     35  O   UNL     1      10.164   5.811  22.973  0.00  0.00    -0.386 OA
ATOM     36  H   UNL     1       9.907   5.670  22.042  0.00  0.00    +0.210 HD
ENDBRANCH  31  35
BRANCH  32  37
ATOM     37  O   UNL     1       7.343   5.622  23.253  0.00  0.00    -0.387 OA
ATOM     38  H   UNL     1       7.731   6.176  23.955  0.00  0.00    +0.210 HD
ENDBRANCH  32  37
ENDBRANCH  26  29
ENDBRANCH   1  26
TORSDOF 10
ENDMDL
MODEL 5
REMARK VINA RESULT:      -7.1      1.858      9.161
REMARK  Name = 
REMARK  10 active torsions:
REMARK  status: ('A' for Active; 'I' for Inactive)
REMARK    1  A    between atoms: C_2  and  O_34
REMARK    2  A    between atoms: C_4  and  O_33
REMARK    3  A    between atoms: C_6  and  O_32
REMARK    4  A    between atoms: C_7  and  O_10
REMARK    5  A    between atoms: O_10  and  C_11
REMARK    6  A    between atoms: C_13  and  O_31
REMARK    7  A    between atoms: C_18  and  C_23
REMARK    8  A    between atoms: C_19  and  O_22
REMARK    9  A    between atoms: C_25  and  O_30
REMARK   10  A    between atoms: C_26  and  O_29
REMARK                            x       y       z     vdW  Elec       q    Type
REMARK                         _______ _______ _______ _____ _____    ______ ____
ROOT
ATOM      1  C   UNL     1       5.345  -4.486  22.760  0.00  0.00    +0.131 A 
ATOM      2  C   UNL     1       5.544  -3.107  22.705  0.00  0.00    +0.093 A 
ATOM      3  C   UNL     1       6.804  -2.566  23.022  0.00  0.00    +0.147 A 
ATOM      4  O   UNL     1       6.923  -1.196  22.945  0.00  0.00    -0.451 OA
ATOM      5  C   UNL     1       8.130  -0.596  23.301  0.00  0.00    +0.181 A 
ATOM      6  C   UNL     1       9.204  -1.290  23.729  0.00  0.00    +0.208 A 
ATOM      7  C   UNL     1       9.143  -2.777  23.767  0.00  0.00    +0.238 A 
ATOM      8  O   UNL     1      10.121  -3.419  24.132  0.00  0.00    -0.283 OA
ATOM      9  C   UNL     1       7.857  -3.400  23.400  0.00  0.00    +0.109 A 
ATOM     10  C   UNL     1       7.648  -4.784  23.449  0.00  0.00    +0.135 A 
ATOM     11  C   UNL     1       6.396  -5.320  23.141  0.00  0.00    +0.092 A 
ENDROOT
BRANCH   5  12
ATOM     12  C   UNL     1       8.119   0.892  23.173  0.00  0.00    +0.025 A 
ATOM     13  C   UNL     1       7.850   1.495  21.929  0.00  0.00    +0.015 A 
ATOM     14  C   UNL     1       7.819   2.890  21.791  0.00  0.00    +0.050 A 
ATOM     15  C   UNL     1       8.043   3.692  22.899  0.00  0.00    +0.158 A 
ATOM     16  C   UNL     1       8.323   3.122  24.133  0.00  0.00    +0.159 A 
ATOM     17  C   UNL     1       8.389   1.736  24.269  0.00  0.00    +0.060 A 
BRANCH  15  18
ATOM     18  O   UNL     1       7.982   5.048  22.770  0.00  0.00    -0.503 OA
ATOM     19  H   UNL     1       7.541   5.358  23.586  0.00  0.00    +0.292 HD
ENDBRANCH  15  18
BRANCH  16  20
ATOM     20  O   UNL     1       8.516   3.965  25.192  0.00  0.00    -0.503 OA
ATOM     21  H   UNL     1       8.098   3.574  25.980  0.00  0.00    +0.292 HD
ENDBRANCH  16  20
ENDBRANCH   5  12
BRANCH   6  22
ATOM     22  O   UNL     1      10.386  -0.711  24.161  0.00  0.00    -0.501 OA
ATOM     23  H   UNL     1      10.906  -1.409  24.593  0.00  0.00    +0.292 HD
ENDBRANCH   6  22
BRANCH  10  24
ATOM     24  O   UNL     1       8.652  -5.638  23.804  0.00  0.00    -0.506 OA
ATOM     25  H   UNL     1       8.621  -6.448  23.270  0.00  0.00    +0.292 HD
ENDBRANCH  10  24
BRANCH   1  26
ATOM     26  O   UNL     1       4.171  -5.143  22.532  0.00  0.00    -0.461 OA
BRANCH  26  29
ATOM     27  C   UNL     1       2.980  -4.977  25.960  0.00  0.00    +0.198 C 
ATOM     28  O   UNL     1       3.879  -4.906  24.853  0.00  0.00    -0.337 OA
ATOM     29  C   UNL     1       3.232  -5.222  23.609  0.00  0.00    +0.339 C 
ATOM     30  C   UNL     1       2.725  -6.689  23.667  0.00  0.00    +0.214 C 
ATOM     31  C   UNL     1       1.728  -6.812  24.825  0.00  0.00    +0.180 C 
ATOM     32  C   UNL     1       2.390  -6.377  26.137  0.00  0.00    +0.171 C 
BRANCH  30  33
ATOM     33  O   UNL     1       3.827  -7.599  23.878  0.00  0.00    -0.383 OA
ATOM     34  H   UNL     1       4.604  -7.227  23.418  0.00  0.00    +0.210 HD
ENDBRANCH  30  33
BRANCH  31  35
ATOM     35  O   UNL     1       1.223  -8.146  24.950  0.00  0.00    -0.386 OA
ATOM     36  H   UNL     1       0.424  -8.078  25.507  0.00  0.00    +0.210 HD
ENDBRANCH  31  35
BRANCH  32  37
ATOM     37  O   UNL     1       1.409  -6.394  27.178  0.00  0.00    -0.387 OA
ATOM     38  H   UNL     1       1.153  -5.469  27.349  0.00  0.00    +0.210 HD
ENDBRANCH  32  37
ENDBRANCH  26  29
ENDBRANCH   1  26
TORSDOF 10
ENDMDL
MODEL 6
REMARK VINA RESULT:      -7.1      1.740      9.542
REMARK  Name = 
REMARK  10 active torsions:
REMARK  status: ('A' for Active; 'I' for Inactive)
REMARK    1  A    between atoms: C_2  and  O_34
REMARK    2  A    between atoms: C_4  and  O_33
REMARK    3  A    between atoms: C_6  and  O_32
REMARK    4  A    between atoms: C_7  and  O_10
REMARK    5  A    between atoms: O_10  and  C_11
REMARK    6  A    between atoms: C_13  and  O_31
REMARK    7  A    between atoms: C_18  and  C_23
REMARK    8  A    between atoms: C_19  and  O_22
REMARK    9  A    between atoms: C_25  and  O_30
REMARK   10  A    between atoms: C_26  and  O_29
REMARK                            x       y       z     vdW  Elec       q    Type
REMARK                         _______ _______ _______ _____ _____    ______ ____
ROOT
ATOM      1  C   UNL     1       5.794  -2.448  24.892  0.00  0.00    +0.131 A 
ATOM      2  C   UNL     1       5.997  -1.069  24.837  0.00  0.00    +0.093 A 
ATOM      3  C   UNL     1       6.927  -0.532  23.927  0.00  0.00    +0.147 A 
ATOM      4  O   UNL     1       7.073   0.837  23.931  0.00  0.00    -0.451 OA
ATOM      5  C   UNL     1       8.019   1.424  23.093  0.00  0.00    +0.181 A 
ATOM      6  C   UNL     1       8.819   0.717  22.269  0.00  0.00    +0.208 A 
ATOM      7  C   UNL     1       8.654  -0.760  22.184  0.00  0.00    +0.238 A 
ATOM      8  O   UNL     1       9.359  -1.410  21.420  0.00  0.00    -0.283 OA
ATOM      9  C   UNL     1       7.658  -1.372  23.084  0.00  0.00    +0.109 A 
ATOM     10  C   UNL     1       7.445  -2.755  23.145  0.00  0.00    +0.135 A 
ATOM     11  C   UNL     1       6.526  -3.287  24.052  0.00  0.00    +0.092 A 
ENDROOT
BRANCH   5  12
ATOM     12  C   UNL     1       8.071   2.913  23.200  0.00  0.00    +0.025 A 
ATOM     13  C   UNL     1       8.802   3.525  24.237  0.00  0.00    +0.015 A 
ATOM     14  C   UNL     1       8.876   4.920  24.346  0.00  0.00    +0.050 A 
ATOM     15  C   UNL     1       8.231   5.715  23.411  0.00  0.00    +0.158 A 
ATOM     16  C   UNL     1       7.494   5.136  22.387  0.00  0.00    +0.159 A 
ATOM     17  C   UNL     1       7.389   3.749  22.294  0.00  0.00    +0.060 A 
BRANCH  15  18
ATOM     18  O   UNL     1       8.329   7.072  23.501  0.00  0.00    -0.503 OA
ATOM     19  H   UNL     1       8.732   7.236  24.377  0.00  0.00    +0.292 HD
ENDBRANCH  15  18
BRANCH  16  20
ATOM     20  O   UNL     1       6.896   5.972  21.485  0.00  0.00    -0.503 OA
ATOM     21  H   UNL     1       6.137   6.402  21.918  0.00  0.00    +0.292 HD
ENDBRANCH  16  20
ENDBRANCH   5  12
BRANCH   6  22
ATOM     22  O   UNL     1       9.818   1.271  21.485  0.00  0.00    -0.501 OA
ATOM     23  H   UNL     1       9.409   1.976  20.955  0.00  0.00    +0.292 HD
ENDBRANCH   6  22
BRANCH  10  24
ATOM     24  O   UNL     1       8.129  -3.612  22.333  0.00  0.00    -0.506 OA
ATOM     25  H   UNL     1       9.062  -3.351  22.264  0.00  0.00    +0.292 HD
ENDBRANCH  10  24
BRANCH   1  26
ATOM     26  O   UNL     1       4.969  -3.109  25.754  0.00  0.00    -0.461 OA
BRANCH  26  29
ATOM     27  C   UNL     1       4.943  -6.648  26.573  0.00  0.00    +0.198 C 
ATOM     28  O   UNL     1       4.516  -5.400  26.026  0.00  0.00    -0.337 OA
ATOM     29  C   UNL     1       5.439  -4.337  26.317  0.00  0.00    +0.339 C 
ATOM     30  C   UNL     1       5.506  -4.140  27.856  0.00  0.00    +0.214 C 
ATOM     31  C   UNL     1       5.992  -5.448  28.493  0.00  0.00    +0.180 C 
ATOM     32  C   UNL     1       5.062  -6.601  28.098  0.00  0.00    +0.171 C 
BRANCH  30  33
ATOM     33  O   UNL     1       4.204  -3.800  28.381  0.00  0.00    -0.383 OA
ATOM     34  H   UNL     1       3.599  -4.530  28.153  0.00  0.00    +0.210 HD
ENDBRANCH  30  33
BRANCH  31  35
ATOM     35  O   UNL     1       6.068  -5.346  29.919  0.00  0.00    -0.386 OA
ATOM     36  H   UNL     1       6.196  -4.398  30.112  0.00  0.00    +0.210 HD
ENDBRANCH  31  35
BRANCH  32  37
ATOM     37  O   UNL     1       5.599  -7.823  28.610  0.00  0.00    -0.387 OA
ATOM     38  H   UNL     1       6.358  -8.065  28.047  0.00  0.00    +0.210 HD
ENDBRANCH  32  37
ENDBRANCH  26  29
ENDBRANCH   1  26
TORSDOF 10
ENDMDL
MODEL 7
REMARK VINA RESULT:      -7.1      1.658      9.570
REMARK  Name = 
REMARK  10 active torsions:
REMARK  status: ('A' for Active; 'I' for Inactive)
REMARK    1  A    between atoms: C_2  and  O_34
REMARK    2  A    between atoms: C_4  and  O_33
REMARK    3  A    between atoms: C_6  and  O_32
REMARK    4  A    between atoms: C_7  and  O_10
REMARK    5  A    between atoms: O_10  and  C_11
REMARK    6  A    between atoms: C_13  and  O_31
REMARK    7  A    between atoms: C_18  and  C_23
REMARK    8  A    between atoms: C_19  and  O_22
REMARK    9  A    between atoms: C_25  and  O_30
REMARK   10  A    between atoms: C_26  and  O_29
REMARK                            x       y       z     vdW  Elec       q    Type
REMARK                         _______ _______ _______ _____ _____    ______ ____
ROOT
ATOM      1  C   UNL     1       5.647  -3.934  24.916  0.00  0.00    +0.131 A 
ATOM      2  C   UNL     1       5.778  -2.556  24.742  0.00  0.00    +0.093 A 
ATOM      3  C   UNL     1       7.024  -2.010  24.379  0.00  0.00    +0.147 A 
ATOM      4  O   UNL     1       7.076  -0.642  24.226  0.00  0.00    -0.451 OA
ATOM      5  C   UNL     1       8.294  -0.036  23.922  0.00  0.00    +0.181 A 
ATOM      6  C   UNL     1       9.446  -0.722  23.774  0.00  0.00    +0.208 A 
ATOM      7  C   UNL     1       9.426  -2.207  23.867  0.00  0.00    +0.238 A 
ATOM      8  O   UNL     1      10.462  -2.843  23.710  0.00  0.00    -0.283 OA
ATOM      9  C   UNL     1       8.134  -2.837  24.201  0.00  0.00    +0.109 A 
ATOM     10  C   UNL     1       7.991  -4.220  24.375  0.00  0.00    +0.135 A 
ATOM     11  C   UNL     1       6.757  -4.760  24.741  0.00  0.00    +0.092 A 
ENDROOT
BRANCH   5  12
ATOM     12  C   UNL     1       8.206   1.448  23.787  0.00  0.00    +0.025 A 
ATOM     13  C   UNL     1       8.918   2.286  24.666  0.00  0.00    +0.015 A 
ATOM     14  C   UNL     1       8.861   3.681  24.545  0.00  0.00    +0.050 A 
ATOM     15  C   UNL     1       8.101   4.249  23.535  0.00  0.00    +0.158 A 
ATOM     16  C   UNL     1       7.379   3.446  22.663  0.00  0.00    +0.159 A 
ATOM     17  C   UNL     1       7.405   2.059  22.800  0.00  0.00    +0.060 A 
BRANCH  15  18
ATOM     18  O   UNL     1       8.071   5.607  23.400  0.00  0.00    -0.503 OA
ATOM     19  H   UNL     1       8.582   5.788  22.586  0.00  0.00    +0.292 HD
ENDBRANCH  15  18
BRANCH  16  20
ATOM     20  O   UNL     1       6.663   4.065  21.676  0.00  0.00    -0.503 OA
ATOM     21  H   UNL     1       7.240   4.713  21.235  0.00  0.00    +0.292 HD
ENDBRANCH  16  20
ENDBRANCH   5  12
BRANCH   6  22
ATOM     22  O   UNL     1      10.680  -0.135  23.549  0.00  0.00    -0.501 OA
ATOM     23  H   UNL     1      10.560   0.826  23.632  0.00  0.00    +0.292 HD
ENDBRANCH   6  22
BRANCH  10  24
ATOM     24  O   UNL     1       9.047  -5.067  24.201  0.00  0.00    -0.506 OA
ATOM     25  H   UNL     1       9.718  -4.667  23.626  0.00  0.00    +0.292 HD
ENDBRANCH  10  24
BRANCH   1  26
ATOM     26  O   UNL     1       4.521  -4.593  25.316  0.00  0.00    -0.461 OA
BRANCH  26  29
ATOM     27  C   UNL     1       2.360  -6.230  22.898  0.00  0.00    +0.198 C 
ATOM     28  O   UNL     1       2.884  -5.206  23.745  0.00  0.00    -0.337 OA
ATOM     29  C   UNL     1       4.035  -5.649  24.481  0.00  0.00    +0.339 C 
ATOM     30  C   UNL     1       3.614  -6.814  25.416  0.00  0.00    +0.214 C 
ATOM     31  C   UNL     1       3.071  -7.959  24.551  0.00  0.00    +0.180 C 
ATOM     32  C   UNL     1       1.906  -7.459  23.690  0.00  0.00    +0.171 C 
BRANCH  30  33
ATOM     33  O   UNL     1       2.593  -6.380  26.341  0.00  0.00    -0.383 OA
ATOM     34  H   UNL     1       2.523  -7.060  27.037  0.00  0.00    +0.210 HD
ENDBRANCH  30  33
BRANCH  31  35
ATOM     35  O   UNL     1       2.649  -9.071  25.348  0.00  0.00    -0.386 OA
ATOM     36  H   UNL     1       2.221  -8.687  26.137  0.00  0.00    +0.210 HD
ENDBRANCH  31  35
BRANCH  32  37
ATOM     37  O   UNL     1       1.494  -8.511  22.814  0.00  0.00    -0.387 OA
ATOM     38  H   UNL     1       1.675  -8.217  21.902  0.00  0.00    +0.210 HD
ENDBRANCH  32  37
ENDBRANCH  26  29
ENDBRANCH   1  26
TORSDOF 10
ENDMDL
MODEL 8
REMARK VINA RESULT:      -7.1      1.528      2.184
REMARK  Name = 
REMARK  10 active torsions:
REMARK  status: ('A' for Active; 'I' for Inactive)
REMARK    1  A    between atoms: C_2  and  O_34
REMARK    2  A    between atoms: C_4  and  O_33
REMARK    3  A    between atoms: C_6  and  O_32
REMARK    4  A    between atoms: C_7  and  O_10
REMARK    5  A    between atoms: O_10  and  C_11
REMARK    6  A    between atoms: C_13  and  O_31
REMARK    7  A    between atoms: C_18  and  C_23
REMARK    8  A    between atoms: C_19  and  O_22
REMARK    9  A    between atoms: C_25  and  O_30
REMARK   10  A    between atoms: C_26  and  O_29
REMARK                            x       y       z     vdW  Elec       q    Type
REMARK                         _______ _______ _______ _____ _____    ______ ____
ROOT
ATOM      1  C   UNL     1       7.357   0.929  25.149  0.00  0.00    +0.131 A 
ATOM      2  C   UNL     1       6.627  -0.255  25.268  0.00  0.00    +0.093 A 
ATOM      3  C   UNL     1       7.239  -1.488  24.976  0.00  0.00    +0.147 A 
ATOM      4  O   UNL     1       6.456  -2.612  25.116  0.00  0.00    -0.451 OA
ATOM      5  C   UNL     1       6.987  -3.859  24.788  0.00  0.00    +0.181 A 
ATOM      6  C   UNL     1       8.243  -4.030  24.327  0.00  0.00    +0.208 A 
ATOM      7  C   UNL     1       9.147  -2.852  24.219  0.00  0.00    +0.238 A 
ATOM      8  O   UNL     1      10.298  -3.000  23.825  0.00  0.00    -0.283 OA
ATOM      9  C   UNL     1       8.570  -1.537  24.558  0.00  0.00    +0.109 A 
ATOM     10  C   UNL     1       9.294  -0.343  24.444  0.00  0.00    +0.135 A 
ATOM     11  C   UNL     1       8.686   0.881  24.728  0.00  0.00    +0.092 A 
ENDROOT
BRANCH   5  12
ATOM     12  C   UNL     1       6.030  -4.988  24.986  0.00  0.00    +0.025 A 
ATOM     13  C   UNL     1       5.225  -5.432  23.919  0.00  0.00    +0.015 A 
ATOM     14  C   UNL     1       4.333  -6.500  24.079  0.00  0.00    +0.050 A 
ATOM     15  C   UNL     1       4.247  -7.141  25.305  0.00  0.00    +0.158 A 
ATOM     16  C   UNL     1       5.020  -6.714  26.376  0.00  0.00    +0.159 A 
ATOM     17  C   UNL     1       5.885  -5.631  26.231  0.00  0.00    +0.060 A 
BRANCH  15  18
ATOM     18  O   UNL     1       3.399  -8.200  25.452  0.00  0.00    -0.503 OA
ATOM     19  H   UNL     1       3.945  -8.987  25.249  0.00  0.00    +0.292 HD
ENDBRANCH  15  18
BRANCH  16  20
ATOM     20  O   UNL     1       4.905  -7.399  27.555  0.00  0.00    -0.503 OA
ATOM     21  H   UNL     1       4.564  -6.790  28.234  0.00  0.00    +0.292 HD
ENDBRANCH  16  20
ENDBRANCH   5  12
BRANCH   6  22
ATOM     22  O   UNL     1       8.767  -5.247  23.922  0.00  0.00    -0.501 OA
ATOM     23  H   UNL     1       8.038  -5.890  23.932  0.00  0.00    +0.292 HD
ENDBRANCH   6  22
BRANCH  10  24
ATOM     24  O   UNL     1      10.601  -0.344  24.049  0.00  0.00    -0.506 OA
ATOM     25  H   UNL     1      10.673  -0.183  23.095  0.00  0.00    +0.292 HD
ENDBRANCH  10  24
BRANCH   1  26
ATOM     26  O   UNL     1       6.882   2.193  25.346  0.00  0.00    -0.461 OA
BRANCH  26  29
ATOM     27  C   UNL     1       5.877   5.055  23.349  0.00  0.00    +0.198 C 
ATOM     28  O   UNL     1       6.390   4.311  24.455  0.00  0.00    -0.337 OA
ATOM     29  C   UNL     1       6.365   2.895  24.213  0.00  0.00    +0.339 C 
ATOM     30  C   UNL     1       4.891   2.444  24.029  0.00  0.00    +0.214 C 
ATOM     31  C   UNL     1       4.299   3.194  22.828  0.00  0.00    +0.180 C 
ATOM     32  C   UNL     1       4.419   4.707  23.043  0.00  0.00    +0.171 C 
BRANCH  30  33
ATOM     33  O   UNL     1       4.118   2.741  25.213  0.00  0.00    -0.383 OA
ATOM     34  H   UNL     1       3.268   2.268  25.132  0.00  0.00    +0.210 HD
ENDBRANCH  30  33
BRANCH  31  35
ATOM     35  O   UNL     1       2.931   2.838  22.602  0.00  0.00    -0.386 OA
ATOM     36  H   UNL     1       2.401   3.479  23.113  0.00  0.00    +0.210 HD
ENDBRANCH  31  35
BRANCH  32  37
ATOM     37  O   UNL     1       3.966   5.378  21.865  0.00  0.00    -0.387 OA
ATOM     38  H   UNL     1       3.300   6.034  22.143  0.00  0.00    +0.210 HD
ENDBRANCH  32  37
ENDBRANCH  26  29
ENDBRANCH   1  26
TORSDOF 10
ENDMDL
MODEL 9
REMARK VINA RESULT:      -7.1      1.712      9.269
REMARK  Name = 
REMARK  10 active torsions:
REMARK  status: ('A' for Active; 'I' for Inactive)
REMARK    1  A    between atoms: C_2  and  O_34
REMARK    2  A    between atoms: C_4  and  O_33
REMARK    3  A    between atoms: C_6  and  O_32
REMARK    4  A    between atoms: C_7  and  O_10
REMARK    5  A    between atoms: O_10  and  C_11
REMARK    6  A    between atoms: C_13  and  O_31
REMARK    7  A    between atoms: C_18  and  C_23
REMARK    8  A    between atoms: C_19  and  O_22
REMARK    9  A    between atoms: C_25  and  O_30
REMARK   10  A    between atoms: C_26  and  O_29
REMARK                            x       y       z     vdW  Elec       q    Type
REMARK                         _______ _______ _______ _____ _____    ______ ____
ROOT
ATOM      1  C   UNL     1       6.859  -3.961  26.508  0.00  0.00    +0.131 A 
ATOM      2  C   UNL     1       6.689  -2.688  25.965  0.00  0.00    +0.093 A 
ATOM      3  C   UNL     1       7.634  -2.182  25.054  0.00  0.00    +0.147 A 
ATOM      4  O   UNL     1       7.399  -0.917  24.560  0.00  0.00    -0.451 OA
ATOM      5  C   UNL     1       8.328  -0.339  23.697  0.00  0.00    +0.181 A 
ATOM      6  C   UNL     1       9.467  -0.952  23.315  0.00  0.00    +0.208 A 
ATOM      7  C   UNL     1       9.733  -2.344  23.772  0.00  0.00    +0.238 A 
ATOM      8  O   UNL     1      10.752  -2.921  23.412  0.00  0.00    -0.283 OA
ATOM      9  C   UNL     1       8.749  -2.942  24.695  0.00  0.00    +0.109 A 
ATOM     10  C   UNL     1       8.909  -4.221  25.244  0.00  0.00    +0.135 A 
ATOM     11  C   UNL     1       7.974  -4.720  26.152  0.00  0.00    +0.092 A 
ENDROOT
BRANCH   5  12
ATOM     12  C   UNL     1       7.949   1.032  23.242  0.00  0.00    +0.025 A 
ATOM     13  C   UNL     1       6.717   1.250  22.595  0.00  0.00    +0.015 A 
ATOM     14  C   UNL     1       6.335   2.531  22.175  0.00  0.00    +0.050 A 
ATOM     15  C   UNL     1       7.176   3.607  22.410  0.00  0.00    +0.158 A 
ATOM     16  C   UNL     1       8.401   3.417  23.033  0.00  0.00    +0.159 A 
ATOM     17  C   UNL     1       8.801   2.140  23.423  0.00  0.00    +0.060 A 
BRANCH  15  18
ATOM     18  O   UNL     1       6.789   4.858  22.027  0.00  0.00    -0.503 OA
ATOM     19  H   UNL     1       5.925   4.997  22.464  0.00  0.00    +0.292 HD
ENDBRANCH  15  18
BRANCH  16  20
ATOM     20  O   UNL     1       9.179   4.520  23.254  0.00  0.00    -0.503 OA
ATOM     21  H   UNL     1       9.834   4.304  23.941  0.00  0.00    +0.292 HD
ENDBRANCH  16  20
ENDBRANCH   5  12
BRANCH   6  22
ATOM     22  O   UNL     1      10.440  -0.368  22.522  0.00  0.00    -0.501 OA
ATOM     23  H   UNL     1      10.513   0.562  22.796  0.00  0.00    +0.292 HD
ENDBRANCH   6  22
BRANCH  10  24
ATOM     24  O   UNL     1       9.977  -5.003  24.913  0.00  0.00    -0.506 OA
ATOM     25  H   UNL     1      10.404  -4.679  24.104  0.00  0.00    +0.292 HD
ENDBRANCH  10  24
BRANCH   1  26
ATOM     26  O   UNL     1       6.056  -4.556  27.438  0.00  0.00    -0.461 OA
BRANCH  26  29
ATOM     27  C   UNL     1       2.517  -5.279  27.819  0.00  0.00    +0.198 C 
ATOM     28  O   UNL     1       3.851  -4.911  28.171  0.00  0.00    -0.337 OA
ATOM     29  C   UNL     1       4.734  -4.927  27.037  0.00  0.00    +0.339 C 
ATOM     30  C   UNL     1       4.812  -6.375  26.484  0.00  0.00    +0.214 C 
ATOM     31  C   UNL     1       3.404  -6.811  26.060  0.00  0.00    +0.180 C 
ATOM     32  C   UNL     1       2.440  -6.696  27.246  0.00  0.00    +0.171 C 
BRANCH  30  33
ATOM     33  O   UNL     1       5.314  -7.278  27.495  0.00  0.00    -0.383 OA
ATOM     34  H   UNL     1       6.282  -7.333  27.381  0.00  0.00    +0.210 HD
ENDBRANCH  30  33
BRANCH  31  35
ATOM     35  O   UNL     1       3.394  -8.148  25.549  0.00  0.00    -0.386 OA
ATOM     36  H   UNL     1       3.351  -8.061  24.577  0.00  0.00    +0.210 HD
ENDBRANCH  31  35
BRANCH  32  37
ATOM     37  O   UNL     1       1.116  -6.998  26.797  0.00  0.00    -0.387 OA
ATOM     38  H   UNL     1       1.043  -6.682  25.878  0.00  0.00    +0.210 HD
ENDBRANCH  32  37
ENDBRANCH  26  29
ENDBRANCH   1  26
TORSDOF 10
ENDMDL
