MODEL 1
REMARK VINA RESULT:      -7.3      0.000      0.000
REMARK  Name = 
REMARK  18 active torsions:
REMARK  status: ('A' for Active; 'I' for Inactive)
REMARK    1  A    between atoms: C_3  and  O_54
REMARK    2  A    between atoms: C_4  and  O_53
REMARK    3  A    between atoms: C_6  and  C_7
REMARK    4  A    between atoms: C_8  and  O_20
REMARK    5  A    between atoms: C_12  and  O_19
REMARK    6  A    between atoms: C_14  and  O_18
REMARK    7  A    between atoms: O_20  and  C_21
REMARK    8  A    between atoms: C_23  and  O_52
REMARK    9  A    between atoms: C_25  and  O_51
REMARK   10  A    between atoms: C_27  and  O_50
REMARK   11  A    between atoms: C_29  and  C_32
REMARK   12  A    between atoms: C_32  and  O_33
REMARK   13  A    between atoms: O_33  and  C_34
REMARK   14  A    between atoms: C_36  and  O_49
REMARK   15  A    between atoms: C_38  and  O_48
REMARK   16  A    between atoms: C_40  and  O_47
REMARK   17  A    between atoms: C_42  and  C_45
REMARK   18  A    between atoms: C_45  and  O_46
REMARK                            x       y       z     vdW  Elec       q    Type
REMARK                         _______ _______ _______ _____ _____    ______ ____
ROOT
ATOM      1  C   UNL     1       6.068  -0.034  26.245  0.00  0.00    +0.340 C 
ATOM      2  O   UNL     1       6.182   1.210  25.548  0.00  0.00    -0.331 OA
ATOM      3  C   UNL     1       6.408   2.467  26.204  0.00  0.00    +0.179 C 
ATOM      4  C   UNL     1       6.171   2.507  27.728  0.00  0.00    +0.177 C 
ATOM      5  C   UNL     1       6.516   1.169  28.387  0.00  0.00    +0.180 C 
ATOM      6  C   UNL     1       5.698   0.063  27.728  0.00  0.00    +0.214 C 
ENDROOT
BRANCH   6   7
ATOM      7  O   UNL     1       4.287   0.309  27.882  0.00  0.00    -0.383 OA
ATOM      8  H   UNL     1       4.184   1.224  28.226  0.00  0.00    +0.210 HD
ENDBRANCH   6   7
BRANCH   5   9
ATOM      9  O   UNL     1       7.923   0.936  28.347  0.00  0.00    -0.386 OA
ATOM     10  H   UNL     1       8.390   1.758  28.092  0.00  0.00    +0.210 HD
ENDBRANCH   5   9
BRANCH   4  11
ATOM     11  O   UNL     1       4.782   2.828  27.944  0.00  0.00    -0.386 OA
ATOM     12  H   UNL     1       4.664   3.087  28.879  0.00  0.00    +0.210 HD
ENDBRANCH   4  11
BRANCH   3  13
ATOM     13  C   UNL     1       7.791   3.026  25.804  0.00  0.00    +0.197 C 
BRANCH  13  14
ATOM     14  O   UNL     1       7.629   4.282  25.119  0.00  0.00    -0.346 OA
BRANCH  14  15
ATOM     15  C   UNL     1       7.320   4.153  23.728  0.00  0.00    +0.282 C 
ATOM     16  O   UNL     1       8.385   4.688  22.928  0.00  0.00    -0.341 OA
ATOM     17  C   UNL     1       8.517   6.117  22.847  0.00  0.00    +0.178 C 
ATOM     18  C   UNL     1       7.191   6.878  22.630  0.00  0.00    +0.177 C 
ATOM     19  C   UNL     1       6.006   6.295  23.414  0.00  0.00    +0.179 C 
ATOM     20  C   UNL     1       5.972   4.768  23.301  0.00  0.00    +0.201 C 
BRANCH  20  21
ATOM     21  O   UNL     1       5.662   4.379  21.951  0.00  0.00    -0.384 OA
ATOM     22  H   UNL     1       6.482   3.996  21.572  0.00  0.00    +0.210 HD
ENDBRANCH  20  21
BRANCH  19  23
ATOM     23  O   UNL     1       5.970   6.735  24.768  0.00  0.00    -0.386 OA
ATOM     24  H   UNL     1       6.407   7.615  24.836  0.00  0.00    +0.210 HD
ENDBRANCH  19  23
BRANCH  18  25
ATOM     25  O   UNL     1       6.873   6.799  21.225  0.00  0.00    -0.386 OA
ATOM     26  H   UNL     1       7.693   6.537  20.763  0.00  0.00    +0.210 HD
ENDBRANCH  18  25
BRANCH  17  27
ATOM     27  C   UNL     1       9.343   6.686  24.005  0.00  0.00    +0.190 C 
BRANCH  27  28
ATOM     28  O   UNL     1      10.298   5.751  24.479  0.00  0.00    -0.392 OA
ATOM     29  H   UNL     1       9.933   4.859  24.270  0.00  0.00    +0.210 HD
ENDBRANCH  27  28
ENDBRANCH  17  27
ENDBRANCH  14  15
ENDBRANCH  13  14
ENDBRANCH   3  13
BRANCH   1  30
ATOM     30  O   UNL     1       7.270  -0.836  26.112  0.00  0.00    -0.453 OA
BRANCH  30  41
ATOM     31  C   UNL     1       8.082  -1.783  24.020  0.00  0.00    +0.181 A 
ATOM     32  O   UNL     1       8.026  -2.707  22.970  0.00  0.00    -0.451 OA
ATOM     33  C   UNL     1       7.118  -3.734  23.007  0.00  0.00    +0.147 A 
ATOM     34  C   UNL     1       6.253  -3.899  24.078  0.00  0.00    +0.109 A 
ATOM     35  C   UNL     1       5.393  -5.007  24.137  0.00  0.00    +0.135 A 
ATOM     36  C   UNL     1       5.337  -5.902  23.086  0.00  0.00    +0.091 A 
ATOM     37  C   UNL     1       6.120  -5.658  21.958  0.00  0.00    +0.124 A 
ATOM     38  C   UNL     1       6.179  -2.839  25.072  0.00  0.00    +0.238 A 
ATOM     39  O   UNL     1       5.190  -2.826  25.802  0.00  0.00    -0.283 OA
ATOM     40  C   UNL     1       7.031  -4.597  21.921  0.00  0.00    +0.092 A 
ATOM     41  C   UNL     1       7.251  -1.796  25.096  0.00  0.00    +0.214 A 
BRANCH  31  43
ATOM     42  C   UNL     1      10.000  -0.309  24.619  0.00  0.00    +0.015 A 
ATOM     43  C   UNL     1       9.037  -0.699  23.675  0.00  0.00    +0.025 A 
ATOM     44  C   UNL     1       8.824   0.143  22.563  0.00  0.00    +0.060 A 
ATOM     45  C   UNL     1       9.491   1.363  22.474  0.00  0.00    +0.159 A 
ATOM     46  C   UNL     1      10.362   1.770  23.472  0.00  0.00    +0.158 A 
ATOM     47  C   UNL     1      10.663   0.917  24.526  0.00  0.00    +0.050 A 
BRANCH  46  48
ATOM     48  O   UNL     1      10.872   3.037  23.412  0.00  0.00    -0.503 OA
ATOM     49  H   UNL     1      10.317   3.606  23.974  0.00  0.00    +0.292 HD
ENDBRANCH  46  48
BRANCH  45  50
ATOM     50  O   UNL     1       9.218   2.211  21.436  0.00  0.00    -0.503 OA
ATOM     51  H   UNL     1      10.091   2.572  21.177  0.00  0.00    +0.292 HD
ENDBRANCH  45  50
ENDBRANCH  31  43
BRANCH  37  52
ATOM     52  O   UNL     1       5.979  -6.427  20.841  0.00  0.00    -0.507 OA
ATOM     53  H   UNL     1       6.740  -6.261  20.257  0.00  0.00    +0.292 HD
ENDBRANCH  37  52
BRANCH  35  54
ATOM     54  O   UNL     1       4.546  -5.237  25.189  0.00  0.00    -0.506 OA
ATOM     55  H   UNL     1       4.531  -4.421  25.741  0.00  0.00    +0.292 HD
ENDBRANCH  35  54
ENDBRANCH  30  41
ENDBRANCH   1  30
TORSDOF 18
ENDMDL
MODEL 2
REMARK VINA RESULT:      -7.3      2.182      8.320
REMARK  Name = 
REMARK  18 active torsions:
REMARK  status: ('A' for Active; 'I' for Inactive)
REMARK    1  A    between atoms: C_3  and  O_54
REMARK    2  A    between atoms: C_4  and  O_53
REMARK    3  A    between atoms: C_6  and  C_7
REMARK    4  A    between atoms: C_8  and  O_20
REMARK    5  A    between atoms: C_12  and  O_19
REMARK    6  A    between atoms: C_14  and  O_18
REMARK    7  A    between atoms: O_20  and  C_21
REMARK    8  A    between atoms: C_23  and  O_52
REMARK    9  A    between atoms: C_25  and  O_51
REMARK   10  A    between atoms: C_27  and  O_50
REMARK   11  A    between atoms: C_29  and  C_32
REMARK   12  A    between atoms: C_32  and  O_33
REMARK   13  A    between atoms: O_33  and  C_34
REMARK   14  A    between atoms: C_36  and  O_49
REMARK   15  A    between atoms: C_38  and  O_48
REMARK   16  A    between atoms: C_40  and  O_47
REMARK   17  A    between atoms: C_42  and  C_45
REMARK   18  A    between atoms: C_45  and  O_46
REMARK                            x       y       z     vdW  Elec       q    Type
REMARK                         _______ _______ _______ _____ _____    ______ ____
ROOT
ATOM      1  C   UNL     1       6.708   1.794  26.066  0.00  0.00    +0.340 C 
ATOM      2  O   UNL     1       7.536   0.832  26.728  0.00  0.00    -0.331 OA
ATOM      3  C   UNL     1       7.051  -0.430  27.212  0.00  0.00    +0.179 C 
ATOM      4  C   UNL     1       5.520  -0.588  27.324  0.00  0.00    +0.177 C 
ATOM      5  C   UNL     1       4.790   0.203  26.235  0.00  0.00    +0.180 C 
ATOM      6  C   UNL     1       5.203   1.670  26.323  0.00  0.00    +0.214 C 
ENDROOT
BRANCH   6   7
ATOM      7  O   UNL     1       4.863   2.221  27.609  0.00  0.00    -0.383 OA
ATOM      8  H   UNL     1       5.017   3.191  27.563  0.00  0.00    +0.210 HD
ENDBRANCH   6   7
BRANCH   5   9
ATOM      9  O   UNL     1       5.020  -0.375  24.952  0.00  0.00    -0.386 OA
ATOM     10  H   UNL     1       4.612  -1.264  24.909  0.00  0.00    +0.210 HD
ENDBRANCH   5   9
BRANCH   4  11
ATOM     11  O   UNL     1       5.129  -0.120  28.630  0.00  0.00    -0.386 OA
ATOM     12  H   UNL     1       4.825   0.805  28.551  0.00  0.00    +0.210 HD
ENDBRANCH   4  11
BRANCH   3  13
ATOM     13  C   UNL     1       7.710  -1.582  26.423  0.00  0.00    +0.197 C 
BRANCH  13  14
ATOM     14  O   UNL     1       6.722  -2.579  26.101  0.00  0.00    -0.346 OA
BRANCH  14  15
ATOM     15  C   UNL     1       7.208  -3.924  26.167  0.00  0.00    +0.282 C 
ATOM     16  O   UNL     1       6.681  -4.699  25.079  0.00  0.00    -0.341 OA
ATOM     17  C   UNL     1       5.304  -5.108  25.147  0.00  0.00    +0.178 C 
ATOM     18  C   UNL     1       4.859  -5.657  26.519  0.00  0.00    +0.177 C 
ATOM     19  C   UNL     1       5.456  -4.900  27.714  0.00  0.00    +0.179 C 
ATOM     20  C   UNL     1       6.952  -4.642  27.507  0.00  0.00    +0.201 C 
BRANCH  20  21
ATOM     21  O   UNL     1       7.678  -5.884  27.543  0.00  0.00    -0.384 OA
ATOM     22  H   UNL     1       7.335  -6.389  28.312  0.00  0.00    +0.210 HD
ENDBRANCH  20  21
BRANCH  19  23
ATOM     23  O   UNL     1       4.743  -3.707  28.025  0.00  0.00    -0.386 OA
ATOM     24  H   UNL     1       4.508  -3.242  27.188  0.00  0.00    +0.210 HD
ENDBRANCH  19  23
BRANCH  18  25
ATOM     25  O   UNL     1       5.300  -7.029  26.599  0.00  0.00    -0.386 OA
ATOM     26  H   UNL     1       4.613  -7.573  26.168  0.00  0.00    +0.210 HD
ENDBRANCH  18  25
BRANCH  17  27
ATOM     27  C   UNL     1       4.356  -4.034  24.604  0.00  0.00    +0.190 C 
BRANCH  27  28
ATOM     28  O   UNL     1       5.009  -3.172  23.685  0.00  0.00    -0.392 OA
ATOM     29  H   UNL     1       4.750  -2.256  23.940  0.00  0.00    +0.210 HD
ENDBRANCH  27  28
ENDBRANCH  17  27
ENDBRANCH  14  15
ENDBRANCH  13  14
ENDBRANCH   3  13
BRANCH   1  30
ATOM     30  O   UNL     1       6.941   1.808  24.634  0.00  0.00    -0.453 OA
BRANCH  30  41
ATOM     31  C   UNL     1       9.060   1.716  23.435  0.00  0.00    +0.181 A 
ATOM     32  O   UNL     1      10.305   2.241  23.071  0.00  0.00    -0.451 OA
ATOM     33  C   UNL     1      10.663   3.502  23.474  0.00  0.00    +0.147 A 
ATOM     34  C   UNL     1       9.809   4.291  24.229  0.00  0.00    +0.109 A 
ATOM     35  C   UNL     1      10.159   5.611  24.556  0.00  0.00    +0.135 A 
ATOM     36  C   UNL     1      11.398   6.111  24.203  0.00  0.00    +0.091 A 
ATOM     37  C   UNL     1      12.298   5.267  23.554  0.00  0.00    +0.124 A 
ATOM     38  C   UNL     1       8.602   3.681  24.766  0.00  0.00    +0.238 A 
ATOM     39  O   UNL     1       8.048   4.264  25.695  0.00  0.00    -0.283 OA
ATOM     40  C   UNL     1      11.931   3.976  23.161  0.00  0.00    +0.092 A 
ATOM     41  C   UNL     1       8.157   2.361  24.222  0.00  0.00    +0.214 A 
BRANCH  31  43
ATOM     42  C   UNL     1       7.841  -0.135  22.295  0.00  0.00    +0.015 A 
ATOM     43  C   UNL     1       8.974   0.298  23.002  0.00  0.00    +0.025 A 
ATOM     44  C   UNL     1       9.841  -0.685  23.526  0.00  0.00    +0.060 A 
ATOM     45  C   UNL     1       9.514  -2.035  23.415  0.00  0.00    +0.159 A 
ATOM     46  C   UNL     1       8.337  -2.431  22.799  0.00  0.00    +0.158 A 
ATOM     47  C   UNL     1       7.517  -1.491  22.189  0.00  0.00    +0.050 A 
BRANCH  46  48
ATOM     48  O   UNL     1       7.990  -3.753  22.850  0.00  0.00    -0.503 OA
ATOM     49  H   UNL     1       7.261  -3.891  22.220  0.00  0.00    +0.292 HD
ENDBRANCH  46  48
BRANCH  45  50
ATOM     50  O   UNL     1      10.316  -2.977  23.997  0.00  0.00    -0.503 OA
ATOM     51  H   UNL     1      11.187  -2.538  24.087  0.00  0.00    +0.292 HD
ENDBRANCH  45  50
ENDBRANCH  31  43
BRANCH  37  52
ATOM     52  O   UNL     1      13.581   5.670  23.328  0.00  0.00    -0.507 OA
ATOM     53  H   UNL     1      14.076   5.597  24.162  0.00  0.00    +0.292 HD
ENDBRANCH  37  52
BRANCH  35  54
ATOM     54  O   UNL     1       9.337   6.445  25.267  0.00  0.00    -0.506 OA
ATOM     55  H   UNL     1       9.019   5.947  26.055  0.00  0.00    +0.292 HD
ENDBRANCH  35  54
ENDBRANCH  30  41
ENDBRANCH   1  30
TORSDOF 18
ENDMDL
MODEL 3
REMARK VINA RESULT:      -7.1      2.166      8.259
REMARK  Name = 
REMARK  18 active torsions:
REMARK  status: ('A' for Active; 'I' for Inactive)
REMARK    1  A    between atoms: C_3  and  O_54
REMARK    2  A    between atoms: C_4  and  O_53
REMARK    3  A    between atoms: C_6  and  C_7
REMARK    4  A    between atoms: C_8  and  O_20
REMARK    5  A    between atoms: C_12  and  O_19
REMARK    6  A    between atoms: C_14  and  O_18
REMARK    7  A    between atoms: O_20  and  C_21
REMARK    8  A    between atoms: C_23  and  O_52
REMARK    9  A    between atoms: C_25  and  O_51
REMARK   10  A    between atoms: C_27  and  O_50
REMARK   11  A    between atoms: C_29  and  C_32
REMARK   12  A    between atoms: C_32  and  O_33
REMARK   13  A    between atoms: O_33  and  C_34
REMARK   14  A    between atoms: C_36  and  O_49
REMARK   15  A    between atoms: C_38  and  O_48
REMARK   16  A    between atoms: C_40  and  O_47
REMARK   17  A    between atoms: C_42  and  C_45
REMARK   18  A    between atoms: C_45  and  O_46
REMARK                            x       y       z     vdW  Elec       q    Type
REMARK                         _______ _______ _______ _____ _____    ______ ____
ROOT
ATOM      1  C   UNL     1       6.708   2.302  26.508  0.00  0.00    +0.340 C 
ATOM      2  O   UNL     1       6.961   0.934  26.842  0.00  0.00    -0.331 OA
ATOM      3  C   UNL     1       5.927   0.002  27.193  0.00  0.00    +0.179 C 
ATOM      4  C   UNL     1       4.549   0.596  27.554  0.00  0.00    +0.177 C 
ATOM      5  C   UNL     1       4.261   1.873  26.760  0.00  0.00    +0.180 C 
ATOM      6  C   UNL     1       5.381   2.879  27.010  0.00  0.00    +0.214 C 
ENDROOT
BRANCH   6   7
ATOM      7  O   UNL     1       5.471   3.208  28.409  0.00  0.00    -0.383 OA
ATOM      8  H   UNL     1       4.553   3.266  28.757  0.00  0.00    +0.210 HD
ENDBRANCH   6   7
BRANCH   5   9
ATOM      9  O   UNL     1       4.064   1.575  25.380  0.00  0.00    -0.386 OA
ATOM     10  H   UNL     1       4.507   2.250  24.826  0.00  0.00    +0.210 HD
ENDBRANCH   5   9
BRANCH   4  11
ATOM     11  O   UNL     1       4.554   0.876  28.968  0.00  0.00    -0.386 OA
ATOM     12  H   UNL     1       4.536   0.027  29.454  0.00  0.00    +0.210 HD
ENDBRANCH   4  11
BRANCH   3  13
ATOM     13  C   UNL     1       5.832  -1.105  26.120  0.00  0.00    +0.197 C 
BRANCH  13  14
ATOM     14  O   UNL     1       6.494  -2.295  26.587  0.00  0.00    -0.346 OA
BRANCH  14  15
ATOM     15  C   UNL     1       5.621  -3.241  27.213  0.00  0.00    +0.282 C 
ATOM     16  O   UNL     1       6.382  -4.220  27.937  0.00  0.00    -0.341 OA
ATOM     17  C   UNL     1       7.070  -5.233  27.183  0.00  0.00    +0.178 C 
ATOM     18  C   UNL     1       6.240  -5.867  26.045  0.00  0.00    +0.177 C 
ATOM     19  C   UNL     1       5.357  -4.866  25.289  0.00  0.00    +0.179 C 
ATOM     20  C   UNL     1       4.626  -3.935  26.262  0.00  0.00    +0.201 C 
BRANCH  20  21
ATOM     21  O   UNL     1       3.657  -4.678  27.023  0.00  0.00    -0.384 OA
ATOM     22  H   UNL     1       3.606  -4.252  27.906  0.00  0.00    +0.210 HD
ENDBRANCH  20  21
BRANCH  19  23
ATOM     23  O   UNL     1       6.070  -4.145  24.288  0.00  0.00    -0.386 OA
ATOM     24  H   UNL     1       6.273  -3.241  24.623  0.00  0.00    +0.210 HD
ENDBRANCH  19  23
BRANCH  18  25
ATOM     25  O   UNL     1       5.377  -6.857  26.642  0.00  0.00    -0.386 OA
ATOM     26  H   UNL     1       5.632  -6.927  27.582  0.00  0.00    +0.210 HD
ENDBRANCH  18  25
BRANCH  17  27
ATOM     27  C   UNL     1       8.452  -4.766  26.717  0.00  0.00    +0.190 C 
BRANCH  27  28
ATOM     28  O   UNL     1       9.023  -5.665  25.780  0.00  0.00    -0.392 OA
ATOM     29  H   UNL     1       9.023  -5.192  24.915  0.00  0.00    +0.210 HD
ENDBRANCH  27  28
ENDBRANCH  17  27
ENDBRANCH  14  15
ENDBRANCH  13  14
ENDBRANCH   3  13
BRANCH   1  30
ATOM     30  O   UNL     1       6.811   2.534  25.079  0.00  0.00    -0.453 OA
BRANCH  30  41
ATOM     31  C   UNL     1       8.949   1.849  24.132  0.00  0.00    +0.181 A 
ATOM     32  O   UNL     1      10.258   2.103  23.707  0.00  0.00    -0.451 OA
ATOM     33  C   UNL     1      10.740   3.387  23.700  0.00  0.00    +0.147 A 
ATOM     34  C   UNL     1       9.953   4.459  24.092  0.00  0.00    +0.109 A 
ATOM     35  C   UNL     1      10.438   5.773  23.994  0.00  0.00    +0.135 A 
ATOM     36  C   UNL     1      11.737   6.008  23.587  0.00  0.00    +0.091 A 
ATOM     37  C   UNL     1      12.560   4.916  23.316  0.00  0.00    +0.124 A 
ATOM     38  C   UNL     1       8.667   4.179  24.711  0.00  0.00    +0.238 A 
ATOM     39  O   UNL     1       8.147   5.087  25.356  0.00  0.00    -0.283 OA
ATOM     40  C   UNL     1      12.065   3.608  23.342  0.00  0.00    +0.092 A 
ATOM     41  C   UNL     1       8.097   2.801  24.597  0.00  0.00    +0.214 A 
BRANCH  31  43
ATOM     42  C   UNL     1       9.553  -0.414  24.983  0.00  0.00    +0.015 A 
ATOM     43  C   UNL     1       8.721   0.382  24.181  0.00  0.00    +0.025 A 
ATOM     44  C   UNL     1       7.900  -0.267  23.235  0.00  0.00    +0.060 A 
ATOM     45  C   UNL     1       7.997  -1.645  23.054  0.00  0.00    +0.159 A 
ATOM     46  C   UNL     1       8.901  -2.395  23.790  0.00  0.00    +0.158 A 
ATOM     47  C   UNL     1       9.649  -1.796  24.795  0.00  0.00    +0.050 A 
BRANCH  46  48
ATOM     48  O   UNL     1       9.065  -3.713  23.469  0.00  0.00    -0.503 OA
ATOM     49  H   UNL     1       8.242  -4.178  23.702  0.00  0.00    +0.292 HD
ENDBRANCH  46  48
BRANCH  45  50
ATOM     50  O   UNL     1       7.258  -2.255  22.078  0.00  0.00    -0.503 OA
ATOM     51  H   UNL     1       6.328  -2.076  22.326  0.00  0.00    +0.292 HD
ENDBRANCH  45  50
ENDBRANCH  31  43
BRANCH  37  52
ATOM     52  O   UNL     1      13.887   5.098  23.064  0.00  0.00    -0.507 OA
ATOM     53  H   UNL     1      14.100   4.665  22.219  0.00  0.00    +0.292 HD
ENDBRANCH  37  52
BRANCH  35  54
ATOM     54  O   UNL     1       9.689   6.870  24.332  0.00  0.00    -0.506 OA
ATOM     55  H   UNL     1      10.297   7.530  24.738  0.00  0.00    +0.292 HD
ENDBRANCH  35  54
ENDBRANCH  30  41
ENDBRANCH   1  30
TORSDOF 18
ENDMDL
MODEL 4
REMARK VINA RESULT:      -7.0      2.262      8.698
REMARK  Name = 
REMARK  18 active torsions:
REMARK  status: ('A' for Active; 'I' for Inactive)
REMARK    1  A    between atoms: C_3  and  O_54
REMARK    2  A    between atoms: C_4  and  O_53
REMARK    3  A    between atoms: C_6  and  C_7
REMARK    4  A    between atoms: C_8  and  O_20
REMARK    5  A    between atoms: C_12  and  O_19
REMARK    6  A    between atoms: C_14  and  O_18
REMARK    7  A    between atoms: O_20  and  C_21
REMARK    8  A    between atoms: C_23  and  O_52
REMARK    9  A    between atoms: C_25  and  O_51
REMARK   10  A    between atoms: C_27  and  O_50
REMARK   11  A    between atoms: C_29  and  C_32
REMARK   12  A    between atoms: C_32  and  O_33
REMARK   13  A    between atoms: O_33  and  C_34
REMARK   14  A    between atoms: C_36  and  O_49
REMARK   15  A    between atoms: C_38  and  O_48
REMARK   16  A    between atoms: C_40  and  O_47
REMARK   17  A    between atoms: C_42  and  C_45
REMARK   18  A    between atoms: C_45  and  O_46
REMARK                            x       y       z     vdW  Elec       q    Type
REMARK                         _______ _______ _______ _____ _____    ______ ____
ROOT
ATOM      1  C   UNL     1       5.213  -0.455  26.895  0.00  0.00    +0.340 C 
ATOM      2  O   UNL     1       5.900  -1.694  27.100  0.00  0.00    -0.331 OA
ATOM      3  C   UNL     1       5.238  -2.915  27.464  0.00  0.00    +0.179 C 
ATOM      4  C   UNL     1       3.790  -2.792  27.984  0.00  0.00    +0.177 C 
ATOM      5  C   UNL     1       3.049  -1.629  27.319  0.00  0.00    +0.180 C 
ATOM      6  C   UNL     1       3.833  -0.340  27.550  0.00  0.00    +0.214 C 
ENDROOT
BRANCH   6   7
ATOM      7  O   UNL     1       3.963  -0.067  28.959  0.00  0.00    -0.383 OA
ATOM      8  H   UNL     1       4.826  -0.436  29.251  0.00  0.00    +0.210 HD
ENDBRANCH   6   7
BRANCH   5   9
ATOM      9  O   UNL     1       2.809  -1.907  25.941  0.00  0.00    -0.386 OA
ATOM     10  H   UNL     1       2.906  -2.867  25.773  0.00  0.00    +0.210 HD
ENDBRANCH   5   9
BRANCH   4  11
ATOM     11  O   UNL     1       3.857  -2.593  29.411  0.00  0.00    -0.386 OA
ATOM     12  H   UNL     1       2.955  -2.671  29.778  0.00  0.00    +0.210 HD
ENDBRANCH   4  11
BRANCH   3  13
ATOM     13  C   UNL     1       5.371  -3.944  26.320  0.00  0.00    +0.197 C 
BRANCH  13  14
ATOM     14  O   UNL     1       4.068  -4.429  25.947  0.00  0.00    -0.346 OA
BRANCH  14  15
ATOM     15  C   UNL     1       4.016  -5.021  24.645  0.00  0.00    +0.282 C 
ATOM     16  O   UNL     1       2.653  -5.191  24.228  0.00  0.00    -0.341 OA
ATOM     17  C   UNL     1       1.891  -6.253  24.828  0.00  0.00    +0.178 C 
ATOM     18  C   UNL     1       2.636  -7.601  24.941  0.00  0.00    +0.177 C 
ATOM     19  C   UNL     1       4.117  -7.461  25.317  0.00  0.00    +0.179 C 
ATOM     20  C   UNL     1       4.787  -6.348  24.504  0.00  0.00    +0.201 C 
BRANCH  20  21
ATOM     21  O   UNL     1       4.861  -6.726  23.117  0.00  0.00    -0.384 OA
ATOM     22  H   UNL     1       4.274  -6.112  22.625  0.00  0.00    +0.210 HD
ENDBRANCH  20  21
BRANCH  19  23
ATOM     23  O   UNL     1       4.319  -7.299  26.717  0.00  0.00    -0.386 OA
ATOM     24  H   UNL     1       3.459  -7.082  27.146  0.00  0.00    +0.210 HD
ENDBRANCH  19  23
BRANCH  18  25
ATOM     25  O   UNL     1       2.565  -8.241  23.650  0.00  0.00    -0.386 OA
ATOM     26  H   UNL     1       2.114  -9.097  23.782  0.00  0.00    +0.210 HD
ENDBRANCH  18  25
BRANCH  17  27
ATOM     27  C   UNL     1       1.244  -5.822  26.148  0.00  0.00    +0.190 C 
BRANCH  27  28
ATOM     28  O   UNL     1       1.057  -4.417  26.209  0.00  0.00    -0.392 OA
ATOM     29  H   UNL     1       0.117  -4.279  26.472  0.00  0.00    +0.210 HD
ENDBRANCH  27  28
ENDBRANCH  17  27
ENDBRANCH  14  15
ENDBRANCH  13  14
ENDBRANCH   3  13
BRANCH   1  30
ATOM     30  O   UNL     1       5.092  -0.135  25.486  0.00  0.00    -0.453 OA
BRANCH  30  41
ATOM     31  C   UNL     1       7.076  -0.307  24.082  0.00  0.00    +0.181 A 
ATOM     32  O   UNL     1       8.254   0.207  23.527  0.00  0.00    -0.451 OA
ATOM     33  C   UNL     1       8.600   1.516  23.743  0.00  0.00    +0.147 A 
ATOM     34  C   UNL     1       7.799   2.363  24.492  0.00  0.00    +0.109 A 
ATOM     35  C   UNL     1       8.127   3.721  24.628  0.00  0.00    +0.135 A 
ATOM     36  C   UNL     1       9.301   4.212  24.088  0.00  0.00    +0.091 A 
ATOM     37  C   UNL     1      10.162   3.323  23.445  0.00  0.00    +0.124 A 
ATOM     38  C   UNL     1       6.680   1.787  25.223  0.00  0.00    +0.238 A 
ATOM     39  O   UNL     1       6.203   2.458  26.135  0.00  0.00    -0.283 OA
ATOM     40  C   UNL     1       9.809   1.985  23.244  0.00  0.00    +0.092 A 
ATOM     41  C   UNL     1       6.235   0.400  24.884  0.00  0.00    +0.214 A 
BRANCH  31  43
ATOM     42  C   UNL     1       8.055  -2.593  24.255  0.00  0.00    +0.015 A 
ATOM     43  C   UNL     1       7.003  -1.768  23.824  0.00  0.00    +0.025 A 
ATOM     44  C   UNL     1       6.072  -2.309  22.913  0.00  0.00    +0.060 A 
ATOM     45  C   UNL     1       6.261  -3.590  22.398  0.00  0.00    +0.159 A 
ATOM     46  C   UNL     1       7.364  -4.346  22.765  0.00  0.00    +0.158 A 
ATOM     47  C   UNL     1       8.241  -3.876  23.733  0.00  0.00    +0.050 A 
BRANCH  46  48
ATOM     48  O   UNL     1       7.584  -5.530  22.118  0.00  0.00    -0.503 OA
ATOM     49  H   UNL     1       7.750  -6.210  22.796  0.00  0.00    +0.292 HD
ENDBRANCH  46  48
BRANCH  45  50
ATOM     50  O   UNL     1       5.400  -4.076  21.453  0.00  0.00    -0.503 OA
ATOM     51  H   UNL     1       4.894  -4.774  21.918  0.00  0.00    +0.292 HD
ENDBRANCH  45  50
ENDBRANCH  31  43
BRANCH  37  52
ATOM     52  O   UNL     1      11.396   3.733  23.037  0.00  0.00    -0.507 OA
ATOM     53  H   UNL     1      12.034   3.023  23.229  0.00  0.00    +0.292 HD
ENDBRANCH  37  52
BRANCH  35  54
ATOM     54  O   UNL     1       7.351   4.610  25.325  0.00  0.00    -0.506 OA
ATOM     55  H   UNL     1       7.701   4.651  26.244  0.00  0.00    +0.292 HD
ENDBRANCH  35  54
ENDBRANCH  30  41
ENDBRANCH   1  30
TORSDOF 18
ENDMDL
MODEL 5
REMARK VINA RESULT:      -7.0      2.038      8.571
REMARK  Name = 
REMARK  18 active torsions:
REMARK  status: ('A' for Active; 'I' for Inactive)
REMARK    1  A    between atoms: C_3  and  O_54
REMARK    2  A    between atoms: C_4  and  O_53
REMARK    3  A    between atoms: C_6  and  C_7
REMARK    4  A    between atoms: C_8  and  O_20
REMARK    5  A    between atoms: C_12  and  O_19
REMARK    6  A    between atoms: C_14  and  O_18
REMARK    7  A    between atoms: O_20  and  C_21
REMARK    8  A    between atoms: C_23  and  O_52
REMARK    9  A    between atoms: C_25  and  O_51
REMARK   10  A    between atoms: C_27  and  O_50
REMARK   11  A    between atoms: C_29  and  C_32
REMARK   12  A    between atoms: C_32  and  O_33
REMARK   13  A    between atoms: O_33  and  C_34
REMARK   14  A    between atoms: C_36  and  O_49
REMARK   15  A    between atoms: C_38  and  O_48
REMARK   16  A    between atoms: C_40  and  O_47
REMARK   17  A    between atoms: C_42  and  C_45
REMARK   18  A    between atoms: C_45  and  O_46
REMARK                            x       y       z     vdW  Elec       q    Type
REMARK                         _______ _______ _______ _____ _____    ______ ____
ROOT
ATOM      1  C   UNL     1       7.024   1.028  26.215  0.00  0.00    +0.340 C 
ATOM      2  O   UNL     1       6.957  -0.400  26.294  0.00  0.00    -0.331 OA
ATOM      3  C   UNL     1       5.765  -1.117  26.647  0.00  0.00    +0.179 C 
ATOM      4  C   UNL     1       4.629  -0.299  27.295  0.00  0.00    +0.177 C 
ATOM      5  C   UNL     1       4.589   1.135  26.759  0.00  0.00    +0.180 C 
ATOM      6  C   UNL     1       5.947   1.791  26.990  0.00  0.00    +0.214 C 
ENDROOT
BRANCH   6   7
ATOM      7  O   UNL     1       6.265   1.827  28.395  0.00  0.00    -0.383 OA
ATOM      8  H   UNL     1       7.200   1.537  28.492  0.00  0.00    +0.210 HD
ENDBRANCH   6   7
BRANCH   5   9
ATOM      9  O   UNL     1       4.177   1.151  25.394  0.00  0.00    -0.386 OA
ATOM     10  H   UNL     1       4.925   0.892  24.817  0.00  0.00    +0.210 HD
ENDBRANCH   5   9
BRANCH   4  11
ATOM     11  O   UNL     1       4.854  -0.294  28.720  0.00  0.00    -0.386 OA
ATOM     12  H   UNL     1       4.896  -1.220  29.031  0.00  0.00    +0.210 HD
ENDBRANCH   4  11
BRANCH   3  13
ATOM     13  C   UNL     1       5.280  -1.954  25.443  0.00  0.00    +0.197 C 
BRANCH  13  14
ATOM     14  O   UNL     1       4.758  -3.214  25.904  0.00  0.00    -0.346 OA
BRANCH  14  15
ATOM     15  C   UNL     1       3.950  -3.898  24.941  0.00  0.00    +0.282 C 
ATOM     16  O   UNL     1       3.170  -4.920  25.580  0.00  0.00    -0.341 OA
ATOM     17  C   UNL     1       3.841  -6.124  25.991  0.00  0.00    +0.178 C 
ATOM     18  C   UNL     1       4.820  -6.707  24.949  0.00  0.00    +0.177 C 
ATOM     19  C   UNL     1       5.626  -5.643  24.191  0.00  0.00    +0.179 C 
ATOM     20  C   UNL     1       4.725  -4.487  23.745  0.00  0.00    +0.201 C 
BRANCH  20  21
ATOM     21  O   UNL     1       3.801  -4.941  22.739  0.00  0.00    -0.384 OA
ATOM     22  H   UNL     1       3.833  -5.922  22.748  0.00  0.00    +0.210 HD
ENDBRANCH  20  21
BRANCH  19  23
ATOM     23  O   UNL     1       6.763  -5.188  24.919  0.00  0.00    -0.386 OA
ATOM     24  H   UNL     1       7.200  -5.957  25.353  0.00  0.00    +0.210 HD
ENDBRANCH  19  23
BRANCH  18  25
ATOM     25  O   UNL     1       4.036  -7.440  23.985  0.00  0.00    -0.386 OA
ATOM     26  H   UNL     1       3.124  -7.096  24.040  0.00  0.00    +0.210 HD
ENDBRANCH  18  25
BRANCH  17  27
ATOM     27  C   UNL     1       4.469  -5.987  27.381  0.00  0.00    +0.190 C 
BRANCH  27  28
ATOM     28  O   UNL     1       5.675  -6.728  27.489  0.00  0.00    -0.392 OA
ATOM     29  H   UNL     1       5.498  -7.598  27.062  0.00  0.00    +0.210 HD
ENDBRANCH  27  28
ENDBRANCH  17  27
ENDBRANCH  14  15
ENDBRANCH  13  14
ENDBRANCH   3  13
BRANCH   1  30
ATOM     30  O   UNL     1       7.030   1.490  24.839  0.00  0.00    -0.453 OA
BRANCH  30  41
ATOM     31  C   UNL     1       9.193   1.488  23.719  0.00  0.00    +0.181 A 
ATOM     32  O   UNL     1      10.398   2.092  23.343  0.00  0.00    -0.451 OA
ATOM     33  C   UNL     1      10.623   3.414  23.633  0.00  0.00    +0.147 A 
ATOM     34  C   UNL     1       9.671   4.185  24.283  0.00  0.00    +0.109 A 
ATOM     35  C   UNL     1       9.886   5.557  24.491  0.00  0.00    +0.135 A 
ATOM     36  C   UNL     1      11.086   6.137  24.129  0.00  0.00    +0.091 A 
ATOM     37  C   UNL     1      12.085   5.326  23.592  0.00  0.00    +0.124 A 
ATOM     38  C   UNL     1       8.505   3.516  24.839  0.00  0.00    +0.238 A 
ATOM     39  O   UNL     1       7.864   4.128  25.691  0.00  0.00    -0.283 OA
ATOM     40  C   UNL     1      11.854   3.975  23.315  0.00  0.00    +0.092 A 
ATOM     41  C   UNL     1       8.205   2.115  24.412  0.00  0.00    +0.214 A 
BRANCH  31  43
ATOM     42  C   UNL     1       8.873  -0.423  22.151  0.00  0.00    +0.015 A 
ATOM     43  C   UNL     1       9.255   0.033  23.423  0.00  0.00    +0.025 A 
ATOM     44  C   UNL     1       9.398  -0.922  24.451  0.00  0.00    +0.060 A 
ATOM     45  C   UNL     1       9.074  -2.256  24.215  0.00  0.00    +0.159 A 
ATOM     46  C   UNL     1       8.603  -2.663  22.977  0.00  0.00    +0.158 A 
ATOM     47  C   UNL     1       8.547  -1.762  21.921  0.00  0.00    +0.050 A 
BRANCH  46  48
ATOM     48  O   UNL     1       8.157  -3.948  22.841  0.00  0.00    -0.503 OA
ATOM     49  H   UNL     1       7.649  -3.999  22.012  0.00  0.00    +0.292 HD
ENDBRANCH  46  48
BRANCH  45  50
ATOM     50  O   UNL     1       9.137  -3.161  25.239  0.00  0.00    -0.503 OA
ATOM     51  H   UNL     1       8.308  -3.021  25.742  0.00  0.00    +0.292 HD
ENDBRANCH  45  50
ENDBRANCH  31  43
BRANCH  37  52
ATOM     52  O   UNL     1      13.333   5.826  23.367  0.00  0.00    -0.507 OA
ATOM     53  H   UNL     1      13.269   6.511  22.678  0.00  0.00    +0.292 HD
ENDBRANCH  37  52
BRANCH  35  54
ATOM     54  O   UNL     1       8.964   6.372  25.093  0.00  0.00    -0.506 OA
ATOM     55  H   UNL     1       8.254   6.554  24.434  0.00  0.00    +0.292 HD
ENDBRANCH  35  54
ENDBRANCH  30  41
ENDBRANCH   1  30
TORSDOF 18
ENDMDL
MODEL 6
REMARK VINA RESULT:      -7.0      2.120      7.877
REMARK  Name = 
REMARK  18 active torsions:
REMARK  status: ('A' for Active; 'I' for Inactive)
REMARK    1  A    between atoms: C_3  and  O_54
REMARK    2  A    between atoms: C_4  and  O_53
REMARK    3  A    between atoms: C_6  and  C_7
REMARK    4  A    between atoms: C_8  and  O_20
REMARK    5  A    between atoms: C_12  and  O_19
REMARK    6  A    between atoms: C_14  and  O_18
REMARK    7  A    between atoms: O_20  and  C_21
REMARK    8  A    between atoms: C_23  and  O_52
REMARK    9  A    between atoms: C_25  and  O_51
REMARK   10  A    between atoms: C_27  and  O_50
REMARK   11  A    between atoms: C_29  and  C_32
REMARK   12  A    between atoms: C_32  and  O_33
REMARK   13  A    between atoms: O_33  and  C_34
REMARK   14  A    between atoms: C_36  and  O_49
REMARK   15  A    between atoms: C_38  and  O_48
REMARK   16  A    between atoms: C_40  and  O_47
REMARK   17  A    between atoms: C_42  and  C_45
REMARK   18  A    between atoms: C_45  and  O_46
REMARK                            x       y       z     vdW  Elec       q    Type
REMARK                         _______ _______ _______ _____ _____    ______ ____
ROOT
ATOM      1  C   UNL     1       7.749   0.576  23.478  0.00  0.00    +0.340 C 
ATOM      2  O   UNL     1       7.756  -0.855  23.505  0.00  0.00    -0.331 OA
ATOM      3  C   UNL     1       8.918  -1.646  23.215  0.00  0.00    +0.179 C 
ATOM      4  C   UNL     1      10.091  -0.927  22.516  0.00  0.00    +0.177 C 
ATOM      5  C   UNL     1      10.189   0.539  22.946  0.00  0.00    +0.180 C 
ATOM      6  C   UNL     1       8.862   1.234  22.656  0.00  0.00    +0.214 C 
ENDROOT
BRANCH   6   7
ATOM      7  O   UNL     1       8.551   1.178  21.251  0.00  0.00    -0.383 OA
ATOM      8  H   UNL     1       8.340   2.093  20.960  0.00  0.00    +0.210 HD
ENDBRANCH   6   7
BRANCH   5   9
ATOM      9  O   UNL     1      10.596   0.638  24.309  0.00  0.00    -0.386 OA
ATOM     10  H   UNL     1      10.835   1.564  24.519  0.00  0.00    +0.210 HD
ENDBRANCH   5   9
BRANCH   4  11
ATOM     11  O   UNL     1       9.872  -1.019  21.094  0.00  0.00    -0.386 OA
ATOM     12  H   UNL     1       9.696  -1.953  20.866  0.00  0.00    +0.210 HD
ENDBRANCH   4  11
BRANCH   3  13
ATOM     13  C   UNL     1       9.362  -2.412  24.481  0.00  0.00    +0.197 C 
BRANCH  13  14
ATOM     14  O   UNL     1       8.206  -2.924  25.170  0.00  0.00    -0.346 OA
BRANCH  14  15
ATOM     15  C   UNL     1       8.260  -4.329  25.434  0.00  0.00    +0.282 C 
ATOM     16  O   UNL     1       7.521  -5.053  24.439  0.00  0.00    -0.341 OA
ATOM     17  C   UNL     1       6.085  -5.015  24.504  0.00  0.00    +0.178 C 
ATOM     18  C   UNL     1       5.495  -5.207  25.918  0.00  0.00    +0.177 C 
ATOM     19  C   UNL     1       6.296  -4.507  27.024  0.00  0.00    +0.179 C 
ATOM     20  C   UNL     1       7.800  -4.743  26.846  0.00  0.00    +0.201 C 
BRANCH  20  21
ATOM     21  O   UNL     1       8.113  -6.129  27.077  0.00  0.00    -0.384 OA
ATOM     22  H   UNL     1       8.025  -6.586  26.213  0.00  0.00    +0.210 HD
ENDBRANCH  20  21
BRANCH  19  23
ATOM     23  O   UNL     1       5.981  -3.123  27.144  0.00  0.00    -0.386 OA
ATOM     24  H   UNL     1       6.439  -2.623  26.430  0.00  0.00    +0.210 HD
ENDBRANCH  19  23
BRANCH  18  25
ATOM     25  O   UNL     1       5.499  -6.623  26.197  0.00  0.00    -0.386 OA
ATOM     26  H   UNL     1       4.957  -6.756  26.998  0.00  0.00    +0.210 HD
ENDBRANCH  18  25
BRANCH  17  27
ATOM     27  C   UNL     1       5.508  -3.792  23.784  0.00  0.00    +0.190 C 
BRANCH  27  28
ATOM     28  O   UNL     1       5.573  -2.627  24.591  0.00  0.00    -0.392 OA
ATOM     29  H   UNL     1       6.288  -2.792  25.250  0.00  0.00    +0.210 HD
ENDBRANCH  27  28
ENDBRANCH  17  27
ENDBRANCH  14  15
ENDBRANCH  13  14
ENDBRANCH   3  13
BRANCH   1  30
ATOM     30  O   UNL     1       7.758   1.138  24.816  0.00  0.00    -0.453 OA
BRANCH  30  41
ATOM     31  C   UNL     1       6.019   2.796  25.217  0.00  0.00    +0.181 A 
ATOM     32  O   UNL     1       4.802   3.212  25.771  0.00  0.00    -0.451 OA
ATOM     33  C   UNL     1       4.004   2.311  26.428  0.00  0.00    +0.147 A 
ATOM     34  C   UNL     1       4.363   0.977  26.548  0.00  0.00    +0.109 A 
ATOM     35  C   UNL     1       3.491   0.054  27.148  0.00  0.00    +0.135 A 
ATOM     36  C   UNL     1       2.300   0.481  27.703  0.00  0.00    +0.091 A 
ATOM     37  C   UNL     1       2.007   1.844  27.689  0.00  0.00    +0.124 A 
ATOM     38  C   UNL     1       5.705   0.586  26.143  0.00  0.00    +0.238 A 
ATOM     39  O   UNL     1       6.125  -0.489  26.566  0.00  0.00    -0.283 OA
ATOM     40  C   UNL     1       2.836   2.759  27.032  0.00  0.00    +0.092 A 
ATOM     41  C   UNL     1       6.514   1.534  25.317  0.00  0.00    +0.214 A 
BRANCH  31  43
ATOM     42  C   UNL     1       6.744   4.231  23.312  0.00  0.00    +0.015 A 
ATOM     43  C   UNL     1       6.753   3.977  24.693  0.00  0.00    +0.025 A 
ATOM     44  C   UNL     1       7.691   4.671  25.486  0.00  0.00    +0.060 A 
ATOM     45  C   UNL     1       8.630   5.507  24.885  0.00  0.00    +0.159 A 
ATOM     46  C   UNL     1       8.663   5.662  23.508  0.00  0.00    +0.158 A 
ATOM     47  C   UNL     1       7.690   5.068  22.715  0.00  0.00    +0.050 A 
BRANCH  46  48
ATOM     48  O   UNL     1       9.696   6.371  22.959  0.00  0.00    -0.503 OA
ATOM     49  H   UNL     1      10.491   5.810  22.995  0.00  0.00    +0.292 HD
ENDBRANCH  46  48
BRANCH  45  50
ATOM     50  O   UNL     1       9.588   6.112  25.651  0.00  0.00    -0.503 OA
ATOM     51  H   UNL     1       9.773   6.957  25.192  0.00  0.00    +0.292 HD
ENDBRANCH  45  50
ENDBRANCH  31  43
BRANCH  37  52
ATOM     52  O   UNL     1       0.922   2.323  28.362  0.00  0.00    -0.507 OA
ATOM     53  H   UNL     1       0.221   2.514  27.715  0.00  0.00    +0.292 HD
ENDBRANCH  37  52
BRANCH  35  54
ATOM     54  O   UNL     1       3.780  -1.280  27.258  0.00  0.00    -0.506 OA
ATOM     55  H   UNL     1       4.653  -1.358  27.708  0.00  0.00    +0.292 HD
ENDBRANCH  35  54
ENDBRANCH  30  41
ENDBRANCH   1  30
TORSDOF 18
ENDMDL
MODEL 7
REMARK VINA RESULT:      -6.9      2.016      5.203
REMARK  Name = 
REMARK  18 active torsions:
REMARK  status: ('A' for Active; 'I' for Inactive)
REMARK    1  A    between atoms: C_3  and  O_54
REMARK    2  A    between atoms: C_4  and  O_53
REMARK    3  A    between atoms: C_6  and  C_7
REMARK    4  A    between atoms: C_8  and  O_20
REMARK    5  A    between atoms: C_12  and  O_19
REMARK    6  A    between atoms: C_14  and  O_18
REMARK    7  A    between atoms: O_20  and  C_21
REMARK    8  A    between atoms: C_23  and  O_52
REMARK    9  A    between atoms: C_25  and  O_51
REMARK   10  A    between atoms: C_27  and  O_50
REMARK   11  A    between atoms: C_29  and  C_32
REMARK   12  A    between atoms: C_32  and  O_33
REMARK   13  A    between atoms: O_33  and  C_34
REMARK   14  A    between atoms: C_36  and  O_49
REMARK   15  A    between atoms: C_38  and  O_48
REMARK   16  A    between atoms: C_40  and  O_47
REMARK   17  A    between atoms: C_42  and  C_45
REMARK   18  A    between atoms: C_45  and  O_46
REMARK                            x       y       z     vdW  Elec       q    Type
REMARK                         _______ _______ _______ _____ _____    ______ ____
ROOT
ATOM      1  C   UNL     1       4.230  -1.408  27.020  0.00  0.00    +0.340 C 
ATOM      2  O   UNL     1       4.323  -0.367  26.042  0.00  0.00    -0.331 OA
ATOM      3  C   UNL     1       4.317   1.030  26.372  0.00  0.00    +0.179 C 
ATOM      4  C   UNL     1       3.846   1.407  27.792  0.00  0.00    +0.177 C 
ATOM      5  C   UNL     1       4.219   0.329  28.814  0.00  0.00    +0.180 C 
ATOM      6  C   UNL     1       3.628  -1.006  28.369  0.00  0.00    +0.214 C 
ENDROOT
BRANCH   6   7
ATOM      7  O   UNL     1       2.192  -0.925  28.278  0.00  0.00    -0.383 OA
ATOM      8  H   UNL     1       1.821  -1.443  29.026  0.00  0.00    +0.210 HD
ENDBRANCH   6   7
BRANCH   5   9
ATOM      9  O   UNL     1       5.631   0.287  29.009  0.00  0.00    -0.386 OA
ATOM     10  H   UNL     1       6.083   0.179  28.148  0.00  0.00    +0.210 HD
ENDBRANCH   5   9
BRANCH   4  11
ATOM     11  O   UNL     1       2.415   1.577  27.744  0.00  0.00    -0.386 OA
ATOM     12  H   UNL     1       2.178   2.368  28.268  0.00  0.00    +0.210 HD
ENDBRANCH   4  11
BRANCH   3  13
ATOM     13  C   UNL     1       5.682   1.659  26.014  0.00  0.00    +0.197 C 
BRANCH  13  14
ATOM     14  O   UNL     1       5.865   1.645  24.586  0.00  0.00    -0.346 OA
BRANCH  14  15
ATOM     15  C   UNL     1       5.394   2.823  23.926  0.00  0.00    +0.282 C 
ATOM     16  O   UNL     1       5.519   2.682  22.503  0.00  0.00    -0.341 OA
ATOM     17  C   UNL     1       6.833   2.789  21.927  0.00  0.00    +0.178 C 
ATOM     18  C   UNL     1       7.685   3.955  22.472  0.00  0.00    +0.177 C 
ATOM     19  C   UNL     1       7.527   4.187  23.981  0.00  0.00    +0.179 C 
ATOM     20  C   UNL     1       6.052   4.137  24.392  0.00  0.00    +0.201 C 
BRANCH  20  21
ATOM     21  O   UNL     1       5.347   5.262  23.838  0.00  0.00    -0.384 OA
ATOM     22  H   UNL     1       4.646   4.897  23.256  0.00  0.00    +0.210 HD
ENDBRANCH  20  21
BRANCH  19  23
ATOM     23  O   UNL     1       8.332   3.310  24.763  0.00  0.00    -0.386 OA
ATOM     24  H   UNL     1       9.269   3.379  24.466  0.00  0.00    +0.210 HD
ENDBRANCH  19  23
BRANCH  18  25
ATOM     25  O   UNL     1       7.259   5.155  21.793  0.00  0.00    -0.386 OA
ATOM     26  H   UNL     1       6.580   5.574  22.356  0.00  0.00    +0.210 HD
ENDBRANCH  18  25
BRANCH  17  27
ATOM     27  C   UNL     1       7.579   1.452  21.944  0.00  0.00    +0.190 C 
BRANCH  27  28
ATOM     28  O   UNL     1       8.735   1.484  21.123  0.00  0.00    -0.392 OA
ATOM     29  H   UNL     1       9.242   0.665  21.333  0.00  0.00    +0.210 HD
ENDBRANCH  27  28
ENDBRANCH  17  27
ENDBRANCH  14  15
ENDBRANCH  13  14
ENDBRANCH   3  13
BRANCH   1  30
ATOM     30  O   UNL     1       5.512  -2.047  27.249  0.00  0.00    -0.453 OA
BRANCH  30  41
ATOM     31  C   UNL     1       6.272  -2.983  25.132  0.00  0.00    +0.181 A 
ATOM     32  O   UNL     1       7.170  -3.068  24.062  0.00  0.00    -0.451 OA
ATOM     33  C   UNL     1       8.213  -2.183  23.969  0.00  0.00    +0.147 A 
ATOM     34  C   UNL     1       8.398  -1.181  24.909  0.00  0.00    +0.109 A 
ATOM     35  C   UNL     1       9.421  -0.232  24.748  0.00  0.00    +0.135 A 
ATOM     36  C   UNL     1      10.309  -0.337  23.695  0.00  0.00    +0.091 A 
ATOM     37  C   UNL     1      10.191  -1.422  22.828  0.00  0.00    +0.124 A 
ATOM     38  C   UNL     1       7.585  -1.209  26.115  0.00  0.00    +0.238 A 
ATOM     39  O   UNL     1       7.983  -0.549  27.073  0.00  0.00    -0.283 OA
ATOM     40  C   UNL     1       9.133  -2.330  22.939  0.00  0.00    +0.092 A 
ATOM     41  C   UNL     1       6.376  -2.088  26.150  0.00  0.00    +0.214 A 
BRANCH  31  43
ATOM     42  C   UNL     1       5.559  -5.243  25.905  0.00  0.00    +0.015 A 
ATOM     43  C   UNL     1       5.330  -4.131  25.080  0.00  0.00    +0.025 A 
ATOM     44  C   UNL     1       4.394  -4.268  24.032  0.00  0.00    +0.060 A 
ATOM     45  C   UNL     1       3.800  -5.504  23.784  0.00  0.00    +0.159 A 
ATOM     46  C   UNL     1       4.121  -6.612  24.552  0.00  0.00    +0.158 A 
ATOM     47  C   UNL     1       4.962  -6.481  25.649  0.00  0.00    +0.050 A 
BRANCH  46  48
ATOM     48  O   UNL     1       3.627  -7.829  24.173  0.00  0.00    -0.503 OA
ATOM     49  H   UNL     1       4.280  -8.505  24.428  0.00  0.00    +0.292 HD
ENDBRANCH  46  48
BRANCH  45  50
ATOM     50  O   UNL     1       2.957  -5.649  22.716  0.00  0.00    -0.503 OA
ATOM     51  H   UNL     1       3.069  -4.824  22.201  0.00  0.00    +0.292 HD
ENDBRANCH  45  50
ENDBRANCH  31  43
BRANCH  37  52
ATOM     52  O   UNL     1      11.137  -1.647  21.872  0.00  0.00    -0.507 OA
ATOM     53  H   UNL     1      11.151  -2.600  21.674  0.00  0.00    +0.292 HD
ENDBRANCH  37  52
BRANCH  35  54
ATOM     54  O   UNL     1       9.624   0.800  25.626  0.00  0.00    -0.506 OA
ATOM     55  H   UNL     1      10.178   1.473  25.168  0.00  0.00    +0.292 HD
ENDBRANCH  35  54
ENDBRANCH  30  41
ENDBRANCH   1  30
TORSDOF 18
ENDMDL
MODEL 8
REMARK VINA RESULT:      -6.9      2.529      8.730
REMARK  Name = 
REMARK  18 active torsions:
REMARK  status: ('A' for Active; 'I' for Inactive)
REMARK    1  A    between atoms: C_3  and  O_54
REMARK    2  A    between atoms: C_4  and  O_53
REMARK    3  A    between atoms: C_6  and  C_7
REMARK    4  A    between atoms: C_8  and  O_20
REMARK    5  A    between atoms: C_12  and  O_19
REMARK    6  A    between atoms: C_14  and  O_18
REMARK    7  A    between atoms: O_20  and  C_21
REMARK    8  A    between atoms: C_23  and  O_52
REMARK    9  A    between atoms: C_25  and  O_51
REMARK   10  A    between atoms: C_27  and  O_50
REMARK   11  A    between atoms: C_29  and  C_32
REMARK   12  A    between atoms: C_32  and  O_33
REMARK   13  A    between atoms: O_33  and  C_34
REMARK   14  A    between atoms: C_36  and  O_49
REMARK   15  A    between atoms: C_38  and  O_48
REMARK   16  A    between atoms: C_40  and  O_47
REMARK   17  A    between atoms: C_42  and  C_45
REMARK   18  A    between atoms: C_45  and  O_46
REMARK                            x       y       z     vdW  Elec       q    Type
REMARK                         _______ _______ _______ _____ _____    ______ ____
ROOT
ATOM      1  C   UNL     1       4.922  -0.952  26.731  0.00  0.00    +0.340 C 
ATOM      2  O   UNL     1       5.508  -2.088  27.374  0.00  0.00    -0.331 OA
ATOM      3  C   UNL     1       4.744  -3.198  27.870  0.00  0.00    +0.179 C 
ATOM      4  C   UNL     1       3.223  -2.984  28.017  0.00  0.00    +0.177 C 
ATOM      5  C   UNL     1       2.681  -2.034  26.944  0.00  0.00    +0.180 C 
ATOM      6  C   UNL     1       3.438  -0.711  27.022  0.00  0.00    +0.214 C 
ENDROOT
BRANCH   6   7
ATOM      7  O   UNL     1       3.269  -0.100  28.315  0.00  0.00    -0.383 OA
ATOM      8  H   UNL     1       3.095   0.856  28.168  0.00  0.00    +0.210 HD
ENDBRANCH   6   7
BRANCH   5   9
ATOM      9  O   UNL     1       2.737  -2.645  25.657  0.00  0.00    -0.386 OA
ATOM     10  H   UNL     1       1.832  -2.744  25.296  0.00  0.00    +0.210 HD
ENDBRANCH   5   9
BRANCH   4  11
ATOM     11  O   UNL     1       2.986  -2.441  29.332  0.00  0.00    -0.386 OA
ATOM     12  H   UNL     1       2.495  -3.103  29.857  0.00  0.00    +0.210 HD
ENDBRANCH   4  11
BRANCH   3  13
ATOM     13  C   UNL     1       5.088  -4.472  27.067  0.00  0.00    +0.197 C 
BRANCH  13  14
ATOM     14  O   UNL     1       3.914  -4.948  26.382  0.00  0.00    -0.346 OA
BRANCH  14  15
ATOM     15  C   UNL     1       3.702  -6.358  26.501  0.00  0.00    +0.282 C 
ATOM     16  O   UNL     1       4.523  -7.067  25.560  0.00  0.00    -0.341 OA
ATOM     17  C   UNL     1       4.137  -7.044  24.175  0.00  0.00    +0.178 C 
ATOM     18  C   UNL     1       2.632  -7.274  23.919  0.00  0.00    +0.177 C 
ATOM     19  C   UNL     1       1.717  -6.590  24.945  0.00  0.00    +0.179 C 
ATOM     20  C   UNL     1       2.233  -6.807  26.371  0.00  0.00    +0.201 C 
BRANCH  20  21
ATOM     21  O   UNL     1       2.111  -8.194  26.734  0.00  0.00    -0.384 OA
ATOM     22  H   UNL     1       1.586  -8.224  27.563  0.00  0.00    +0.210 HD
ENDBRANCH  20  21
BRANCH  19  23
ATOM     23  O   UNL     1       1.497  -5.212  24.658  0.00  0.00    -0.386 OA
ATOM     24  H   UNL     1       1.139  -5.125  23.744  0.00  0.00    +0.210 HD
ENDBRANCH  19  23
BRANCH  18  25
ATOM     25  O   UNL     1       2.394  -8.695  23.992  0.00  0.00    -0.386 OA
ATOM     26  H   UNL     1       2.590  -9.061  23.108  0.00  0.00    +0.210 HD
ENDBRANCH  18  25
BRANCH  17  27
ATOM     27  C   UNL     1       4.680  -5.812  23.446  0.00  0.00    +0.190 C 
BRANCH  27  28
ATOM     28  O   UNL     1       5.461  -6.170  22.317  0.00  0.00    -0.392 OA
ATOM     29  H   UNL     1       6.367  -5.824  22.492  0.00  0.00    +0.210 HD
ENDBRANCH  27  28
ENDBRANCH  17  27
ENDBRANCH  14  15
ENDBRANCH  13  14
ENDBRANCH   3  13
BRANCH   1  30
ATOM     30  O   UNL     1       5.120  -0.987  25.294  0.00  0.00    -0.453 OA
BRANCH  30  41
ATOM     31  C   UNL     1       7.455  -1.023  24.601  0.00  0.00    +0.181 A 
ATOM     32  O   UNL     1       8.639  -0.399  24.191  0.00  0.00    -0.451 OA
ATOM     33  C   UNL     1       8.655   0.950  23.944  0.00  0.00    +0.147 A 
ATOM     34  C   UNL     1       7.511   1.723  24.074  0.00  0.00    +0.109 A 
ATOM     35  C   UNL     1       7.528   3.085  23.732  0.00  0.00    +0.135 A 
ATOM     36  C   UNL     1       8.708   3.691  23.343  0.00  0.00    +0.091 A 
ATOM     37  C   UNL     1       9.878   2.932  23.337  0.00  0.00    +0.124 A 
ATOM     38  C   UNL     1       6.335   1.118  24.680  0.00  0.00    +0.238 A 
ATOM     39  O   UNL     1       5.469   1.880  25.103  0.00  0.00    -0.283 OA
ATOM     40  C   UNL     1       9.856   1.560  23.607  0.00  0.00    +0.092 A 
ATOM     41  C   UNL     1       6.284  -0.370  24.825  0.00  0.00    +0.214 A 
BRANCH  31  43
ATOM     42  C   UNL     1       8.388  -2.744  26.143  0.00  0.00    +0.015 A 
ATOM     43  C   UNL     1       7.735  -2.442  24.938  0.00  0.00    +0.025 A 
ATOM     44  C   UNL     1       7.635  -3.462  23.968  0.00  0.00    +0.060 A 
ATOM     45  C   UNL     1       8.255  -4.692  24.181  0.00  0.00    +0.159 A 
ATOM     46  C   UNL     1       8.980  -4.929  25.338  0.00  0.00    +0.158 A 
ATOM     47  C   UNL     1       9.010  -3.979  26.351  0.00  0.00    +0.050 A 
BRANCH  46  48
ATOM     48  O   UNL     1       9.692  -6.093  25.431  0.00  0.00    -0.503 OA
ATOM     49  H   UNL     1      10.632  -5.875  25.303  0.00  0.00    +0.292 HD
ENDBRANCH  46  48
BRANCH  45  50
ATOM     50  O   UNL     1       8.224  -5.646  23.202  0.00  0.00    -0.503 OA
ATOM     51  H   UNL     1       8.069  -6.486  23.681  0.00  0.00    +0.292 HD
ENDBRANCH  45  50
ENDBRANCH  31  43
BRANCH  37  52
ATOM     52  O   UNL     1      11.083   3.527  23.112  0.00  0.00    -0.507 OA
ATOM     53  H   UNL     1      11.776   2.984  23.528  0.00  0.00    +0.292 HD
ENDBRANCH  37  52
BRANCH  35  54
ATOM     54  O   UNL     1       6.419   3.885  23.806  0.00  0.00    -0.506 OA
ATOM     55  H   UNL     1       6.400   4.442  22.994  0.00  0.00    +0.292 HD
ENDBRANCH  35  54
ENDBRANCH  30  41
ENDBRANCH   1  30
TORSDOF 18
ENDMDL
MODEL 9
REMARK VINA RESULT:      -6.8      1.229      2.029
REMARK  Name = 
REMARK  18 active torsions:
REMARK  status: ('A' for Active; 'I' for Inactive)
REMARK    1  A    between atoms: C_3  and  O_54
REMARK    2  A    between atoms: C_4  and  O_53
REMARK    3  A    between atoms: C_6  and  C_7
REMARK    4  A    between atoms: C_8  and  O_20
REMARK    5  A    between atoms: C_12  and  O_19
REMARK    6  A    between atoms: C_14  and  O_18
REMARK    7  A    between atoms: O_20  and  C_21
REMARK    8  A    between atoms: C_23  and  O_52
REMARK    9  A    between atoms: C_25  and  O_51
REMARK   10  A    between atoms: C_27  and  O_50
REMARK   11  A    between atoms: C_29  and  C_32
REMARK   12  A    between atoms: C_32  and  O_33
REMARK   13  A    between atoms: O_33  and  C_34
REMARK   14  A    between atoms: C_36  and  O_49
REMARK   15  A    between atoms: C_38  and  O_48
REMARK   16  A    between atoms: C_40  and  O_47
REMARK   17  A    between atoms: C_42  and  C_45
REMARK   18  A    between atoms: C_45  and  O_46
REMARK                            x       y       z     vdW  Elec       q    Type
REMARK                         _______ _______ _______ _____ _____    ______ ____
ROOT
ATOM      1  C   UNL     1       5.353   0.130  26.348  0.00  0.00    +0.340 C 
ATOM      2  O   UNL     1       4.711   1.408  26.347  0.00  0.00    -0.331 OA
ATOM      3  C   UNL     1       4.905   2.392  27.375  0.00  0.00    +0.179 C 
ATOM      4  C   UNL     1       5.556   1.906  28.687  0.00  0.00    +0.177 C 
ATOM      5  C   UNL     1       6.563   0.781  28.434  0.00  0.00    +0.180 C 
ATOM      6  C   UNL     1       5.861  -0.362  27.707  0.00  0.00    +0.214 C 
ENDROOT
BRANCH   6   7
ATOM      7  O   UNL     1       4.772  -0.879  28.496  0.00  0.00    -0.383 OA
ATOM      8  H   UNL     1       4.891  -0.546  29.413  0.00  0.00    +0.210 HD
ENDBRANCH   6   7
BRANCH   5   9
ATOM      9  O   UNL     1       7.707   1.276  27.741  0.00  0.00    -0.386 OA
ATOM     10  H   UNL     1       8.078   2.046  28.217  0.00  0.00    +0.210 HD
ENDBRANCH   5   9
BRANCH   4  11
ATOM     11  O   UNL     1       4.499   1.446  29.553  0.00  0.00    -0.386 OA
ATOM     12  H   UNL     1       3.667   1.416  29.040  0.00  0.00    +0.210 HD
ENDBRANCH   4  11
BRANCH   3  13
ATOM     13  C   UNL     1       5.612   3.633  26.786  0.00  0.00    +0.197 C 
BRANCH  13  14
ATOM     14  O   UNL     1       5.784   3.467  25.367  0.00  0.00    -0.346 OA
BRANCH  14  15
ATOM     15  C   UNL     1       5.593   4.668  24.612  0.00  0.00    +0.282 C 
ATOM     16  O   UNL     1       5.161   4.356  23.279  0.00  0.00    -0.341 OA
ATOM     17  C   UNL     1       6.135   3.838  22.357  0.00  0.00    +0.178 C 
ATOM     18  C   UNL     1       7.493   4.572  22.370  0.00  0.00    +0.177 C 
ATOM     19  C   UNL     1       7.961   4.987  23.772  0.00  0.00    +0.179 C 
ATOM     20  C   UNL     1       6.812   5.610  24.571  0.00  0.00    +0.201 C 
BRANCH  20  21
ATOM     21  O   UNL     1       6.436   6.873  23.992  0.00  0.00    -0.384 OA
ATOM     22  H   UNL     1       7.051   7.545  24.357  0.00  0.00    +0.210 HD
ENDBRANCH  20  21
BRANCH  19  23
ATOM     23  O   UNL     1       8.594   3.925  24.480  0.00  0.00    -0.386 OA
ATOM     24  H   UNL     1       9.319   4.293  25.037  0.00  0.00    +0.210 HD
ENDBRANCH  19  23
BRANCH  18  25
ATOM     25  O   UNL     1       7.343   5.770  21.581  0.00  0.00    -0.386 OA
ATOM     26  H   UNL     1       8.226   5.990  21.228  0.00  0.00    +0.210 HD
ENDBRANCH  18  25
BRANCH  17  27
ATOM     27  C   UNL     1       6.283   2.317  22.471  0.00  0.00    +0.190 C 
BRANCH  27  28
ATOM     28  O   UNL     1       5.256   1.747  23.266  0.00  0.00    -0.392 OA
ATOM     29  H   UNL     1       5.707   1.142  23.900  0.00  0.00    +0.210 HD
ENDBRANCH  27  28
ENDBRANCH  17  27
ENDBRANCH  14  15
ENDBRANCH  13  14
ENDBRANCH   3  13
BRANCH   1  30
ATOM     30  O   UNL     1       6.443   0.076  25.392  0.00  0.00    -0.453 OA
BRANCH  30  41
ATOM     31  C   UNL     1       7.791  -1.505  24.119  0.00  0.00    +0.181 A 
ATOM     32  O   UNL     1       7.980  -2.719  23.448  0.00  0.00    -0.451 OA
ATOM     33  C   UNL     1       6.995  -3.673  23.465  0.00  0.00    +0.147 A 
ATOM     34  C   UNL     1       5.806  -3.475  24.151  0.00  0.00    +0.109 A 
ATOM     35  C   UNL     1       4.848  -4.499  24.229  0.00  0.00    +0.135 A 
ATOM     36  C   UNL     1       5.041  -5.686  23.549  0.00  0.00    +0.091 A 
ATOM     37  C   UNL     1       6.181  -5.826  22.760  0.00  0.00    +0.124 A 
ATOM     38  C   UNL     1       5.531  -2.150  24.685  0.00  0.00    +0.238 A 
ATOM     39  O   UNL     1       4.363  -1.894  24.972  0.00  0.00    -0.283 OA
ATOM     40  C   UNL     1       7.174  -4.841  22.734  0.00  0.00    +0.092 A 
ATOM     41  C   UNL     1       6.651  -1.162  24.776  0.00  0.00    +0.214 A 
BRANCH  31  43
ATOM     42  C   UNL     1       9.810  -0.251  24.868  0.00  0.00    +0.015 A 
ATOM     43  C   UNL     1       8.931  -0.597  23.830  0.00  0.00    +0.025 A 
ATOM     44  C   UNL     1       8.989   0.155  22.637  0.00  0.00    +0.060 A 
ATOM     45  C   UNL     1       9.833   1.260  22.549  0.00  0.00    +0.159 A 
ATOM     46  C   UNL     1      10.618   1.641  23.627  0.00  0.00    +0.158 A 
ATOM     47  C   UNL     1      10.652   0.861  24.775  0.00  0.00    +0.050 A 
BRANCH  46  48
ATOM     48  O   UNL     1      11.311   2.816  23.541  0.00  0.00    -0.503 OA
ATOM     49  H   UNL     1      10.670   3.525  23.360  0.00  0.00    +0.292 HD
ENDBRANCH  46  48
BRANCH  45  50
ATOM     50  O   UNL     1       9.824   2.032  21.420  0.00  0.00    -0.503 OA
ATOM     51  H   UNL     1       9.792   2.953  21.752  0.00  0.00    +0.292 HD
ENDBRANCH  45  50
ENDBRANCH  31  43
BRANCH  37  52
ATOM     52  O   UNL     1       6.333  -6.915  21.954  0.00  0.00    -0.507 OA
ATOM     53  H   UNL     1       6.784  -7.612  22.462  0.00  0.00    +0.292 HD
ENDBRANCH  37  52
BRANCH  35  54
ATOM     54  O   UNL     1       3.675  -4.369  24.924  0.00  0.00    -0.506 OA
ATOM     55  H   UNL     1       3.850  -3.781  25.694  0.00  0.00    +0.292 HD
ENDBRANCH  35  54
ENDBRANCH  30  41
ENDBRANCH   1  30
TORSDOF 18
ENDMDL
