MODEL 1
REMARK VINA RESULT:      -7.2      0.000      0.000
REMARK  Name = 
REMARK  22 active torsions:
REMARK  status: ('A' for Active; 'I' for Inactive)
REMARK    1  A    between atoms: C_1  and  C_2
REMARK    2  A    between atoms: C_4  and  O_68
REMARK    3  A    between atoms: C_6  and  O_67
REMARK    4  A    between atoms: C_8  and  O_66
REMARK    5  A    between atoms: C_10  and  O_13
REMARK    6  A    between atoms: O_13  and  C_14
REMARK    7  A    between atoms: C_16  and  O_65
REMARK    8  A    between atoms: C_18  and  O_64
REMARK    9  A    between atoms: C_20  and  C_62
REMARK   10  A    between atoms: C_23  and  O_25
REMARK   11  A    between atoms: O_25  and  C_26
REMARK   12  A    between atoms: C_27  and  C_54
REMARK   13  A    between atoms: C_31  and  O_38
REMARK   14  A    between atoms: C_33  and  O_37
REMARK   15  A    between atoms: O_38  and  C_39
REMARK   16  A    between atoms: C_41  and  O_53
REMARK   17  A    between atoms: C_43  and  O_52
REMARK   18  A    between atoms: C_45  and  O_51
REMARK   19  A    between atoms: C_47  and  C_50
REMARK   20  A    between atoms: C_56  and  O_61
REMARK   21  A    between atoms: C_57  and  O_60
REMARK   22  A    between atoms: C_62  and  O_63
REMARK                            x       y       z     vdW  Elec       q    Type
REMARK                         _______ _______ _______ _____ _____    ______ ____
ROOT
ATOM      1  C   UNL     1       6.037  -2.220  25.871  0.00  0.00    +0.214 A 
ATOM      2  C   UNL     1       7.409  -2.624  25.387  0.00  0.00    +0.238 A 
ATOM      3  O   UNL     1       7.692  -3.799  25.173  0.00  0.00    -0.283 OA
ATOM      4  C   UNL     1       8.355  -1.520  25.124  0.00  0.00    +0.109 A 
ATOM      5  C   UNL     1       8.061  -0.291  25.695  0.00  0.00    +0.147 A 
ATOM      6  C   UNL     1       8.840   0.837  25.423  0.00  0.00    +0.093 A 
ATOM      7  C   UNL     1       9.967   0.737  24.609  0.00  0.00    +0.131 A 
ATOM      8  C   UNL     1      10.296  -0.505  24.057  0.00  0.00    +0.092 A 
ATOM      9  O   UNL     1       7.011  -0.119  26.557  0.00  0.00    -0.451 OA
ATOM     10  C   UNL     1       9.494  -1.631  24.318  0.00  0.00    +0.135 A 
ATOM     11  C   UNL     1       5.961  -1.027  26.511  0.00  0.00    +0.181 A 
ENDROOT
BRANCH  11  12
ATOM     12  C   UNL     1       4.788  -0.440  27.215  0.00  0.00    +0.025 A 
ATOM     13  C   UNL     1       4.884  -0.176  28.595  0.00  0.00    +0.015 A 
ATOM     14  C   UNL     1       3.741   0.089  29.362  0.00  0.00    +0.050 A 
ATOM     15  C   UNL     1       2.496   0.098  28.755  0.00  0.00    +0.158 A 
ATOM     16  C   UNL     1       2.380  -0.126  27.386  0.00  0.00    +0.159 A 
ATOM     17  C   UNL     1       3.513  -0.407  26.610  0.00  0.00    +0.060 A 
BRANCH  16  18
ATOM     18  O   UNL     1       1.116  -0.084  26.860  0.00  0.00    -0.503 OA
ATOM     19  H   UNL     1       1.167   0.304  25.971  0.00  0.00    +0.292 HD
ENDBRANCH  16  18
BRANCH  15  20
ATOM     20  O   UNL     1       1.380   0.299  29.518  0.00  0.00    -0.503 OA
ATOM     21  H   UNL     1       1.719   0.560  30.399  0.00  0.00    +0.292 HD
ENDBRANCH  15  20
ENDBRANCH  11  12
BRANCH  10  22
ATOM     22  O   UNL     1       9.827  -2.835  23.763  0.00  0.00    -0.506 OA
ATOM     23  H   UNL     1      10.280  -2.713  22.914  0.00  0.00    +0.292 HD
ENDBRANCH  10  22
BRANCH   7  24
ATOM     24  O   UNL     1      10.773   1.804  24.274  0.00  0.00    -0.461 OA
BRANCH  24  25
ATOM     25  C   UNL     1      10.351   2.560  23.120  0.00  0.00    +0.339 C 
ATOM     26  O   UNL     1      11.359   3.449  22.614  0.00  0.00    -0.334 OA
ATOM     27  C   UNL     1      11.707   4.513  23.498  0.00  0.00    +0.150 C 
ATOM     28  C   UNL     1      12.813   5.326  22.826  0.00  0.00    +0.041 C 
ATOM     29  C   UNL     1      10.501   5.413  23.802  0.00  0.00    +0.174 C 
ATOM     30  C   UNL     1       9.309   4.579  24.299  0.00  0.00    +0.180 C 
ATOM     31  C   UNL     1       9.050   3.342  23.418  0.00  0.00    +0.214 C 
BRANCH  31  32
ATOM     32  O   UNL     1       8.420   3.720  22.181  0.00  0.00    -0.383 OA
ATOM     33  H   UNL     1       7.979   2.936  21.805  0.00  0.00    +0.210 HD
ENDBRANCH  31  32
BRANCH  30  34
ATOM     34  O   UNL     1       8.146   5.422  24.325  0.00  0.00    -0.386 OA
ATOM     35  H   UNL     1       7.731   5.403  23.445  0.00  0.00    +0.210 HD
ENDBRANCH  30  34
BRANCH  29  36
ATOM     36  O   UNL     1      10.858   6.423  24.756  0.00  0.00    -0.387 OA
ATOM     37  H   UNL     1      11.149   5.994  25.577  0.00  0.00    +0.210 HD
ENDBRANCH  29  36
ENDBRANCH  24  25
ENDBRANCH   7  24
BRANCH   1  38
ATOM     38  O   UNL     1       4.934  -3.042  25.706  0.00  0.00    -0.453 OA
BRANCH  38  40
ATOM     39  C   UNL     1       5.185  -5.465  26.572  0.00  0.00    +0.221 C 
ATOM     40  C   UNL     1       4.563  -4.027  26.708  0.00  0.00    +0.340 C 
ATOM     41  O   UNL     1       4.629  -3.497  28.052  0.00  0.00    -0.331 OA
ATOM     42  C   UNL     1       4.025  -4.381  29.018  0.00  0.00    +0.179 C 
ATOM     43  C   UNL     1       4.838  -5.684  29.103  0.00  0.00    +0.177 C 
ATOM     44  C   UNL     1       4.721  -6.359  27.744  0.00  0.00    +0.180 C 
BRANCH  44  45
ATOM     45  O   UNL     1       5.373  -7.628  27.700  0.00  0.00    -0.386 OA
ATOM     46  H   UNL     1       6.132  -7.508  27.098  0.00  0.00    +0.210 HD
ENDBRANCH  44  45
BRANCH  43  47
ATOM     47  O   UNL     1       6.189  -5.435  29.484  0.00  0.00    -0.386 OA
ATOM     48  H   UNL     1       6.379  -4.485  29.326  0.00  0.00    +0.210 HD
ENDBRANCH  43  47
BRANCH  42  49
ATOM     49  C   UNL     1       3.900  -3.733  30.398  0.00  0.00    +0.190 C 
BRANCH  49  50
ATOM     50  O   UNL     1       2.671  -3.005  30.485  0.00  0.00    -0.392 OA
ATOM     51  H   UNL     1       2.470  -2.878  31.430  0.00  0.00    +0.210 HD
ENDBRANCH  49  50
ENDBRANCH  42  49
BRANCH  39  52
ATOM     52  O   UNL     1       4.993  -6.133  25.294  0.00  0.00    -0.337 OA
BRANCH  52  56
ATOM     53  C   UNL     1       0.999  -7.211  25.941  0.00  0.00    +0.041 C 
ATOM     54  C   UNL     1       1.803  -7.785  24.779  0.00  0.00    +0.149 C 
ATOM     55  O   UNL     1       3.199  -7.565  24.958  0.00  0.00    -0.343 OA
ATOM     56  C   UNL     1       3.643  -6.222  24.843  0.00  0.00    +0.282 C 
ATOM     57  C   UNL     1       3.488  -5.813  23.367  0.00  0.00    +0.201 C 
ATOM     58  C   UNL     1       2.000  -5.963  22.975  0.00  0.00    +0.179 C 
ATOM     59  C   UNL     1       1.417  -7.337  23.365  0.00  0.00    +0.174 C 
BRANCH  59  60
ATOM     60  O   UNL     1       1.953  -8.312  22.445  0.00  0.00    -0.387 OA
ATOM     61  H   UNL     1       2.760  -8.701  22.833  0.00  0.00    +0.210 HD
ENDBRANCH  59  60
BRANCH  58  62
ATOM     62  O   UNL     1       1.236  -4.876  23.524  0.00  0.00    -0.386 OA
ATOM     63  H   UNL     1       1.598  -4.589  24.378  0.00  0.00    +0.210 HD
ENDBRANCH  58  62
BRANCH  57  64
ATOM     64  O   UNL     1       3.926  -4.468  23.144  0.00  0.00    -0.384 OA
ATOM     65  H   UNL     1       4.855  -4.515  22.845  0.00  0.00    +0.210 HD
ENDBRANCH  57  64
ENDBRANCH  52  56
ENDBRANCH  39  52
ENDBRANCH  38  40
ENDBRANCH   1  38
TORSDOF 20
ENDMDL
MODEL 2
REMARK VINA RESULT:      -7.2      1.950      3.919
REMARK  Name = 
REMARK  22 active torsions:
REMARK  status: ('A' for Active; 'I' for Inactive)
REMARK    1  A    between atoms: C_1  and  C_2
REMARK    2  A    between atoms: C_4  and  O_68
REMARK    3  A    between atoms: C_6  and  O_67
REMARK    4  A    between atoms: C_8  and  O_66
REMARK    5  A    between atoms: C_10  and  O_13
REMARK    6  A    between atoms: O_13  and  C_14
REMARK    7  A    between atoms: C_16  and  O_65
REMARK    8  A    between atoms: C_18  and  O_64
REMARK    9  A    between atoms: C_20  and  C_62
REMARK   10  A    between atoms: C_23  and  O_25
REMARK   11  A    between atoms: O_25  and  C_26
REMARK   12  A    between atoms: C_27  and  C_54
REMARK   13  A    between atoms: C_31  and  O_38
REMARK   14  A    between atoms: C_33  and  O_37
REMARK   15  A    between atoms: O_38  and  C_39
REMARK   16  A    between atoms: C_41  and  O_53
REMARK   17  A    between atoms: C_43  and  O_52
REMARK   18  A    between atoms: C_45  and  O_51
REMARK   19  A    between atoms: C_47  and  C_50
REMARK   20  A    between atoms: C_56  and  O_61
REMARK   21  A    between atoms: C_57  and  O_60
REMARK   22  A    between atoms: C_62  and  O_63
REMARK                            x       y       z     vdW  Elec       q    Type
REMARK                         _______ _______ _______ _____ _____    ______ ____
ROOT
ATOM      1  C   UNL     1       6.370  -2.966  26.691  0.00  0.00    +0.214 A 
ATOM      2  C   UNL     1       7.797  -2.764  26.242  0.00  0.00    +0.238 A 
ATOM      3  O   UNL     1       8.606  -3.687  26.247  0.00  0.00    -0.283 OA
ATOM      4  C   UNL     1       8.135  -1.418  25.736  0.00  0.00    +0.109 A 
ATOM      5  C   UNL     1       7.270  -0.386  26.071  0.00  0.00    +0.147 A 
ATOM      6  C   UNL     1       7.448   0.902  25.557  0.00  0.00    +0.093 A 
ATOM      7  C   UNL     1       8.537   1.189  24.735  0.00  0.00    +0.131 A 
ATOM      8  C   UNL     1       9.437   0.166  24.421  0.00  0.00    +0.092 A 
ATOM      9  O   UNL     1       6.213  -0.566  26.923  0.00  0.00    -0.451 OA
ATOM     10  C   UNL     1       9.238  -1.133  24.923  0.00  0.00    +0.135 A 
ATOM     11  C   UNL     1       5.711  -1.850  27.092  0.00  0.00    +0.181 A 
ENDROOT
BRANCH  11  12
ATOM     12  C   UNL     1       4.362  -1.760  27.715  0.00  0.00    +0.025 A 
ATOM     13  C   UNL     1       4.250  -1.850  29.115  0.00  0.00    +0.015 A 
ATOM     14  C   UNL     1       3.010  -2.070  29.730  0.00  0.00    +0.050 A 
ATOM     15  C   UNL     1       1.872  -2.195  28.949  0.00  0.00    +0.158 A 
ATOM     16  C   UNL     1       1.952  -2.072  27.565  0.00  0.00    +0.159 A 
ATOM     17  C   UNL     1       3.189  -1.868  26.937  0.00  0.00    +0.060 A 
BRANCH  16  18
ATOM     18  O   UNL     1       0.780  -2.192  26.867  0.00  0.00    -0.503 OA
ATOM     19  H   UNL     1       0.069  -2.399  27.497  0.00  0.00    +0.292 HD
ENDBRANCH  16  18
BRANCH  15  20
ATOM     20  O   UNL     1       0.675  -2.466  29.550  0.00  0.00    -0.503 OA
ATOM     21  H   UNL     1       0.777  -3.364  29.925  0.00  0.00    +0.292 HD
ENDBRANCH  15  20
ENDBRANCH  11  12
BRANCH  10  22
ATOM     22  O   UNL     1      10.124  -2.122  24.598  0.00  0.00    -0.506 OA
ATOM     23  H   UNL     1      10.997  -1.945  24.983  0.00  0.00    +0.292 HD
ENDBRANCH  10  22
BRANCH   7  24
ATOM     24  O   UNL     1       8.771   2.425  24.171  0.00  0.00    -0.461 OA
BRANCH  24  25
ATOM     25  C   UNL     1       8.162   3.541  24.853  0.00  0.00    +0.339 C 
ATOM     26  O   UNL     1       6.840   3.849  24.385  0.00  0.00    -0.334 OA
ATOM     27  C   UNL     1       6.783   4.315  23.038  0.00  0.00    +0.150 C 
ATOM     28  C   UNL     1       5.312   4.549  22.695  0.00  0.00    +0.041 C 
ATOM     29  C   UNL     1       7.580   5.614  22.854  0.00  0.00    +0.174 C 
ATOM     30  C   UNL     1       9.018   5.450  23.378  0.00  0.00    +0.180 C 
ATOM     31  C   UNL     1       9.064   4.795  24.771  0.00  0.00    +0.214 C 
BRANCH  31  32
ATOM     32  O   UNL     1       8.675   5.736  25.790  0.00  0.00    -0.383 OA
ATOM     33  H   UNL     1       8.600   6.619  25.384  0.00  0.00    +0.210 HD
ENDBRANCH  31  32
BRANCH  30  34
ATOM     34  O   UNL     1       9.635   6.747  23.418  0.00  0.00    -0.386 OA
ATOM     35  H   UNL     1       8.958   7.417  23.222  0.00  0.00    +0.210 HD
ENDBRANCH  30  34
BRANCH  29  36
ATOM     36  O   UNL     1       7.575   6.014  21.477  0.00  0.00    -0.387 OA
ATOM     37  H   UNL     1       8.482   6.240  21.210  0.00  0.00    +0.210 HD
ENDBRANCH  29  36
ENDBRANCH  24  25
ENDBRANCH   7  24
BRANCH   1  38
ATOM     38  O   UNL     1       5.788  -4.222  26.730  0.00  0.00    -0.453 OA
BRANCH  38  40
ATOM     39  C   UNL     1       4.553  -6.146  25.523  0.00  0.00    +0.221 C 
ATOM     40  C   UNL     1       5.678  -5.047  25.539  0.00  0.00    +0.340 C 
ATOM     41  O   UNL     1       5.739  -4.269  24.322  0.00  0.00    -0.331 OA
ATOM     42  C   UNL     1       5.885  -5.096  23.150  0.00  0.00    +0.179 C 
ATOM     43  C   UNL     1       4.623  -5.957  22.967  0.00  0.00    +0.177 C 
ATOM     44  C   UNL     1       4.553  -6.889  24.167  0.00  0.00    +0.180 C 
BRANCH  44  45
ATOM     45  O   UNL     1       3.460  -7.804  24.094  0.00  0.00    -0.386 OA
ATOM     46  H   UNL     1       3.792  -8.562  23.575  0.00  0.00    +0.210 HD
ENDBRANCH  44  45
BRANCH  43  47
ATOM     47  O   UNL     1       3.456  -5.151  22.822  0.00  0.00    -0.386 OA
ATOM     48  H   UNL     1       3.230  -4.781  23.703  0.00  0.00    +0.210 HD
ENDBRANCH  43  47
BRANCH  42  49
ATOM     49  C   UNL     1       6.165  -4.274  21.891  0.00  0.00    +0.190 C 
BRANCH  49  50
ATOM     50  O   UNL     1       5.307  -3.129  21.857  0.00  0.00    -0.392 OA
ATOM     51  H   UNL     1       5.621  -2.505  22.536  0.00  0.00    +0.210 HD
ENDBRANCH  49  50
ENDBRANCH  42  49
BRANCH  39  52
ATOM     52  O   UNL     1       4.550  -7.083  26.636  0.00  0.00    -0.337 OA
BRANCH  52  56
ATOM     53  C   UNL     1       0.984  -8.677  28.143  0.00  0.00    +0.041 C 
ATOM     54  C   UNL     1       1.029  -7.302  27.485  0.00  0.00    +0.149 C 
ATOM     55  O   UNL     1       2.232  -7.122  26.746  0.00  0.00    -0.343 OA
ATOM     56  C   UNL     1       3.424  -7.000  27.507  0.00  0.00    +0.282 C 
ATOM     57  C   UNL     1       3.355  -5.655  28.252  0.00  0.00    +0.201 C 
ATOM     58  C   UNL     1       2.096  -5.660  29.150  0.00  0.00    +0.179 C 
ATOM     59  C   UNL     1       0.823  -6.081  28.387  0.00  0.00    +0.174 C 
BRANCH  59  60
ATOM     60  O   UNL     1       0.443  -4.978  27.537  0.00  0.00    -0.387 OA
ATOM     61  H   UNL     1      -0.196  -4.417  28.016  0.00  0.00    +0.210 HD
ENDBRANCH  59  60
BRANCH  58  62
ATOM     62  O   UNL     1       2.326  -6.476  30.311  0.00  0.00    -0.386 OA
ATOM     63  H   UNL     1       1.897  -6.099  31.096  0.00  0.00    +0.210 HD
ENDBRANCH  58  62
BRANCH  57  64
ATOM     64  O   UNL     1       4.528  -5.430  29.044  0.00  0.00    -0.384 OA
ATOM     65  H   UNL     1       5.267  -5.886  28.597  0.00  0.00    +0.210 HD
ENDBRANCH  57  64
ENDBRANCH  52  56
ENDBRANCH  39  52
ENDBRANCH  38  40
ENDBRANCH   1  38
TORSDOF 20
ENDMDL
MODEL 3
REMARK VINA RESULT:      -7.1      3.690      6.508
REMARK  Name = 
REMARK  22 active torsions:
REMARK  status: ('A' for Active; 'I' for Inactive)
REMARK    1  A    between atoms: C_1  and  C_2
REMARK    2  A    between atoms: C_4  and  O_68
REMARK    3  A    between atoms: C_6  and  O_67
REMARK    4  A    between atoms: C_8  and  O_66
REMARK    5  A    between atoms: C_10  and  O_13
REMARK    6  A    between atoms: O_13  and  C_14
REMARK    7  A    between atoms: C_16  and  O_65
REMARK    8  A    between atoms: C_18  and  O_64
REMARK    9  A    between atoms: C_20  and  C_62
REMARK   10  A    between atoms: C_23  and  O_25
REMARK   11  A    between atoms: O_25  and  C_26
REMARK   12  A    between atoms: C_27  and  C_54
REMARK   13  A    between atoms: C_31  and  O_38
REMARK   14  A    between atoms: C_33  and  O_37
REMARK   15  A    between atoms: O_38  and  C_39
REMARK   16  A    between atoms: C_41  and  O_53
REMARK   17  A    between atoms: C_43  and  O_52
REMARK   18  A    between atoms: C_45  and  O_51
REMARK   19  A    between atoms: C_47  and  C_50
REMARK   20  A    between atoms: C_56  and  O_61
REMARK   21  A    between atoms: C_57  and  O_60
REMARK   22  A    between atoms: C_62  and  O_63
REMARK                            x       y       z     vdW  Elec       q    Type
REMARK                         _______ _______ _______ _____ _____    ______ ____
ROOT
ATOM      1  C   UNL     1       5.880  -0.619  27.054  0.00  0.00    +0.214 A 
ATOM      2  C   UNL     1       6.640   0.673  26.867  0.00  0.00    +0.238 A 
ATOM      3  O   UNL     1       7.707   0.876  27.440  0.00  0.00    -0.283 OA
ATOM      4  C   UNL     1       6.059   1.635  25.908  0.00  0.00    +0.109 A 
ATOM      5  C   UNL     1       4.724   1.461  25.576  0.00  0.00    +0.147 A 
ATOM      6  C   UNL     1       4.112   2.257  24.604  0.00  0.00    +0.093 A 
ATOM      7  C   UNL     1       4.822   3.284  23.982  0.00  0.00    +0.131 A 
ATOM      8  C   UNL     1       6.158   3.493  24.336  0.00  0.00    +0.092 A 
ATOM      9  O   UNL     1       3.936   0.520  26.183  0.00  0.00    -0.451 OA
ATOM     10  C   UNL     1       6.774   2.672  25.300  0.00  0.00    +0.135 A 
ATOM     11  C   UNL     1       4.552  -0.570  26.786  0.00  0.00    +0.181 A 
ENDROOT
BRANCH  11  12
ATOM     12  C   UNL     1       3.533  -1.631  27.014  0.00  0.00    +0.025 A 
ATOM     13  C   UNL     1       3.131  -1.917  28.333  0.00  0.00    +0.015 A 
ATOM     14  C   UNL     1       2.415  -3.084  28.634  0.00  0.00    +0.050 A 
ATOM     15  C   UNL     1       2.091  -3.970  27.619  0.00  0.00    +0.158 A 
ATOM     16  C   UNL     1       2.447  -3.690  26.302  0.00  0.00    +0.159 A 
ATOM     17  C   UNL     1       3.176  -2.534  25.990  0.00  0.00    +0.060 A 
BRANCH  16  18
ATOM     18  O   UNL     1       2.074  -4.608  25.356  0.00  0.00    -0.503 OA
ATOM     19  H   UNL     1       1.797  -4.128  24.558  0.00  0.00    +0.292 HD
ENDBRANCH  16  18
BRANCH  15  20
ATOM     20  O   UNL     1       1.444  -5.133  27.927  0.00  0.00    -0.503 OA
ATOM     21  H   UNL     1       0.763  -4.879  28.582  0.00  0.00    +0.292 HD
ENDBRANCH  15  20
ENDBRANCH  11  12
BRANCH  10  22
ATOM     22  O   UNL     1       8.084   2.888  25.626  0.00  0.00    -0.506 OA
ATOM     23  H   UNL     1       8.158   3.462  26.405  0.00  0.00    +0.292 HD
ENDBRANCH  10  22
BRANCH   7  24
ATOM     24  O   UNL     1       4.300   4.097  22.999  0.00  0.00    -0.461 OA
BRANCH  24  25
ATOM     25  C   UNL     1       2.879   4.335  23.085  0.00  0.00    +0.339 C 
ATOM     26  O   UNL     1       2.089   3.361  22.387  0.00  0.00    -0.334 OA
ATOM     27  C   UNL     1       2.260   3.365  20.971  0.00  0.00    +0.150 C 
ATOM     28  C   UNL     1       1.387   2.248  20.399  0.00  0.00    +0.041 C 
ATOM     29  C   UNL     1       1.859   4.713  20.356  0.00  0.00    +0.174 C 
ATOM     30  C   UNL     1       2.590   5.871  21.058  0.00  0.00    +0.180 C 
ATOM     31  C   UNL     1       2.529   5.759  22.593  0.00  0.00    +0.214 C 
BRANCH  31  32
ATOM     32  O   UNL     1       1.226   6.131  23.080  0.00  0.00    -0.383 OA
ATOM     33  H   UNL     1       1.329   6.539  23.960  0.00  0.00    +0.210 HD
ENDBRANCH  31  32
BRANCH  30  34
ATOM     34  O   UNL     1       1.998   7.107  20.626  0.00  0.00    -0.386 OA
ATOM     35  H   UNL     1       1.420   6.924  19.866  0.00  0.00    +0.210 HD
ENDBRANCH  30  34
BRANCH  29  36
ATOM     36  O   UNL     1       2.119   4.719  18.946  0.00  0.00    -0.387 OA
ATOM     37  H   UNL     1       2.933   5.220  18.776  0.00  0.00    +0.210 HD
ENDBRANCH  29  36
ENDBRANCH  24  25
ENDBRANCH   7  24
BRANCH   1  38
ATOM     38  O   UNL     1       6.499  -1.770  27.514  0.00  0.00    -0.453 OA
BRANCH  38  40
ATOM     39  C   UNL     1       8.378  -3.148  26.393  0.00  0.00    +0.221 C 
ATOM     40  C   UNL     1       6.848  -2.857  26.615  0.00  0.00    +0.340 C 
ATOM     41  O   UNL     1       6.066  -4.048  26.862  0.00  0.00    -0.331 OA
ATOM     42  C   UNL     1       6.227  -5.033  25.822  0.00  0.00    +0.179 C 
ATOM     43  C   UNL     1       7.677  -5.546  25.818  0.00  0.00    +0.177 C 
ATOM     44  C   UNL     1       8.557  -4.361  25.452  0.00  0.00    +0.180 C 
BRANCH  44  45
ATOM     45  O   UNL     1       9.937  -4.711  25.339  0.00  0.00    -0.386 OA
ATOM     46  H   UNL     1       9.957  -5.687  25.332  0.00  0.00    +0.210 HD
ENDBRANCH  44  45
BRANCH  43  47
ATOM     47  O   UNL     1       8.028  -6.133  27.069  0.00  0.00    -0.386 OA
ATOM     48  H   UNL     1       7.930  -5.447  27.765  0.00  0.00    +0.210 HD
ENDBRANCH  43  47
BRANCH  42  49
ATOM     49  C   UNL     1       5.243  -6.196  25.967  0.00  0.00    +0.190 C 
BRANCH  49  50
ATOM     50  O   UNL     1       5.422  -6.828  27.238  0.00  0.00    -0.392 OA
ATOM     51  H   UNL     1       5.545  -7.782  27.079  0.00  0.00    +0.210 HD
ENDBRANCH  49  50
ENDBRANCH  42  49
BRANCH  39  52
ATOM     52  O   UNL     1       9.193  -2.023  25.962  0.00  0.00    -0.337 OA
BRANCH  52  56
ATOM     53  C   UNL     1       6.831  -2.007  22.505  0.00  0.00    +0.041 C 
ATOM     54  C   UNL     1       8.350  -2.121  22.434  0.00  0.00    +0.149 C 
ATOM     55  O   UNL     1       8.903  -2.460  23.702  0.00  0.00    -0.343 OA
ATOM     56  C   UNL     1       8.841  -1.455  24.703  0.00  0.00    +0.282 C 
ATOM     57  C   UNL     1       9.798  -0.326  24.279  0.00  0.00    +0.201 C 
ATOM     58  C   UNL     1       9.343   0.205  22.900  0.00  0.00    +0.179 C 
ATOM     59  C   UNL     1       9.122  -0.922  21.871  0.00  0.00    +0.174 C 
BRANCH  59  60
ATOM     60  O   UNL     1      10.423  -1.401  21.467  0.00  0.00    -0.387 OA
ATOM     61  H   UNL     1      10.320  -2.278  21.050  0.00  0.00    +0.210 HD
ENDBRANCH  59  60
BRANCH  58  62
ATOM     62  O   UNL     1       8.177   1.032  23.054  0.00  0.00    -0.386 OA
ATOM     63  H   UNL     1       7.495   0.804  22.403  0.00  0.00    +0.210 HD
ENDBRANCH  58  62
BRANCH  57  64
ATOM     64  O   UNL     1       9.817   0.737  25.238  0.00  0.00    -0.384 OA
ATOM     65  H   UNL     1      10.753   0.906  25.459  0.00  0.00    +0.210 HD
ENDBRANCH  57  64
ENDBRANCH  52  56
ENDBRANCH  39  52
ENDBRANCH  38  40
ENDBRANCH   1  38
TORSDOF 20
ENDMDL
MODEL 4
REMARK VINA RESULT:      -6.8      3.404      6.828
REMARK  Name = 
REMARK  22 active torsions:
REMARK  status: ('A' for Active; 'I' for Inactive)
REMARK    1  A    between atoms: C_1  and  C_2
REMARK    2  A    between atoms: C_4  and  O_68
REMARK    3  A    between atoms: C_6  and  O_67
REMARK    4  A    between atoms: C_8  and  O_66
REMARK    5  A    between atoms: C_10  and  O_13
REMARK    6  A    between atoms: O_13  and  C_14
REMARK    7  A    between atoms: C_16  and  O_65
REMARK    8  A    between atoms: C_18  and  O_64
REMARK    9  A    between atoms: C_20  and  C_62
REMARK   10  A    between atoms: C_23  and  O_25
REMARK   11  A    between atoms: O_25  and  C_26
REMARK   12  A    between atoms: C_27  and  C_54
REMARK   13  A    between atoms: C_31  and  O_38
REMARK   14  A    between atoms: C_33  and  O_37
REMARK   15  A    between atoms: O_38  and  C_39
REMARK   16  A    between atoms: C_41  and  O_53
REMARK   17  A    between atoms: C_43  and  O_52
REMARK   18  A    between atoms: C_45  and  O_51
REMARK   19  A    between atoms: C_47  and  C_50
REMARK   20  A    between atoms: C_56  and  O_61
REMARK   21  A    between atoms: C_57  and  O_60
REMARK   22  A    between atoms: C_62  and  O_63
REMARK                            x       y       z     vdW  Elec       q    Type
REMARK                         _______ _______ _______ _____ _____    ______ ____
ROOT
ATOM      1  C   UNL     1       5.887  -1.081  26.629  0.00  0.00    +0.214 A 
ATOM      2  C   UNL     1       6.743   0.162  26.688  0.00  0.00    +0.238 A 
ATOM      3  O   UNL     1       7.962   0.094  26.815  0.00  0.00    -0.283 OA
ATOM      4  C   UNL     1       6.034   1.447  26.515  0.00  0.00    +0.109 A 
ATOM      5  C   UNL     1       4.661   1.437  26.706  0.00  0.00    +0.147 A 
ATOM      6  C   UNL     1       3.890   2.578  26.467  0.00  0.00    +0.093 A 
ATOM      7  C   UNL     1       4.497   3.772  26.082  0.00  0.00    +0.131 A 
ATOM      8  C   UNL     1       5.886   3.805  25.923  0.00  0.00    +0.092 A 
ATOM      9  O   UNL     1       3.992   0.325  27.144  0.00  0.00    -0.451 OA
ATOM     10  C   UNL     1       6.652   2.645  26.143  0.00  0.00    +0.135 A 
ATOM     11  C   UNL     1       4.582  -0.919  26.959  0.00  0.00    +0.181 A 
ENDROOT
BRANCH  11  12
ATOM     12  C   UNL     1       3.544  -1.972  27.129  0.00  0.00    +0.025 A 
ATOM     13  C   UNL     1       3.662  -2.876  28.202  0.00  0.00    +0.015 A 
ATOM     14  C   UNL     1       2.901  -4.053  28.244  0.00  0.00    +0.050 A 
ATOM     15  C   UNL     1       2.013  -4.331  27.216  0.00  0.00    +0.158 A 
ATOM     16  C   UNL     1       1.854  -3.433  26.164  0.00  0.00    +0.159 A 
ATOM     17  C   UNL     1       2.619  -2.261  26.102  0.00  0.00    +0.060 A 
BRANCH  16  18
ATOM     18  O   UNL     1       0.944  -3.774  25.198  0.00  0.00    -0.503 OA
ATOM     19  H   UNL     1       0.947  -3.080  24.517  0.00  0.00    +0.292 HD
ENDBRANCH  16  18
BRANCH  15  20
ATOM     20  O   UNL     1       1.316  -5.506  27.233  0.00  0.00    -0.503 OA
ATOM     21  H   UNL     1       1.972  -6.187  27.486  0.00  0.00    +0.292 HD
ENDBRANCH  15  20
ENDBRANCH  11  12
BRANCH  10  22
ATOM     22  O   UNL     1       8.008   2.695  25.975  0.00  0.00    -0.506 OA
ATOM     23  H   UNL     1       8.296   3.591  25.734  0.00  0.00    +0.292 HD
ENDBRANCH  10  22
BRANCH   7  24
ATOM     24  O   UNL     1       3.808   4.933  25.806  0.00  0.00    -0.461 OA
BRANCH  24  25
ATOM     25  C   UNL     1       4.054   5.505  24.504  0.00  0.00    +0.339 C 
ATOM     26  O   UNL     1       3.071   6.473  24.106  0.00  0.00    -0.334 OA
ATOM     27  C   UNL     1       1.763   5.940  23.903  0.00  0.00    +0.150 C 
ATOM     28  C   UNL     1       0.846   7.104  23.531  0.00  0.00    +0.041 C 
ATOM     29  C   UNL     1       1.750   4.881  22.793  0.00  0.00    +0.174 C 
ATOM     30  C   UNL     1       2.810   3.799  23.057  0.00  0.00    +0.180 C 
ATOM     31  C   UNL     1       4.179   4.398  23.432  0.00  0.00    +0.214 C 
BRANCH  31  32
ATOM     32  O   UNL     1       4.840   4.927  22.267  0.00  0.00    -0.383 OA
ATOM     33  H   UNL     1       5.417   4.234  21.896  0.00  0.00    +0.210 HD
ENDBRANCH  31  32
BRANCH  30  34
ATOM     34  O   UNL     1       2.930   2.985  21.878  0.00  0.00    -0.386 OA
ATOM     35  H   UNL     1       2.960   3.569  21.102  0.00  0.00    +0.210 HD
ENDBRANCH  30  34
BRANCH  29  36
ATOM     36  O   UNL     1       0.443   4.303  22.667  0.00  0.00    -0.387 OA
ATOM     37  H   UNL     1      -0.216   5.016  22.635  0.00  0.00    +0.210 HD
ENDBRANCH  29  36
ENDBRANCH  24  25
ENDBRANCH   7  24
BRANCH   1  38
ATOM     38  O   UNL     1       6.418  -2.318  26.299  0.00  0.00    -0.453 OA
BRANCH  38  40
ATOM     39  C   UNL     1       6.435  -2.765  23.753  0.00  0.00    +0.221 C 
ATOM     40  C   UNL     1       5.895  -3.100  25.192  0.00  0.00    +0.340 C 
ATOM     41  O   UNL     1       5.870  -4.516  25.481  0.00  0.00    -0.331 OA
ATOM     42  C   UNL     1       5.125  -5.262  24.498  0.00  0.00    +0.179 C 
ATOM     43  C   UNL     1       5.842  -5.183  23.140  0.00  0.00    +0.177 C 
ATOM     44  C   UNL     1       5.809  -3.723  22.714  0.00  0.00    +0.180 C 
BRANCH  44  45
ATOM     45  O   UNL     1       6.380  -3.510  21.423  0.00  0.00    -0.386 OA
ATOM     46  H   UNL     1       6.576  -4.401  21.077  0.00  0.00    +0.210 HD
ENDBRANCH  44  45
BRANCH  43  47
ATOM     47  O   UNL     1       7.165  -5.709  23.215  0.00  0.00    -0.386 OA
ATOM     48  H   UNL     1       7.794  -4.979  23.025  0.00  0.00    +0.210 HD
ENDBRANCH  43  47
BRANCH  42  49
ATOM     49  C   UNL     1       4.914  -6.720  24.913  0.00  0.00    +0.190 C 
BRANCH  49  50
ATOM     50  O   UNL     1       4.632  -7.518  23.759  0.00  0.00    -0.392 OA
ATOM     51  H   UNL     1       4.844  -6.983  22.972  0.00  0.00    +0.210 HD
ENDBRANCH  49  50
ENDBRANCH  42  49
BRANCH  39  52
ATOM     52  O   UNL     1       6.319  -1.379  23.327  0.00  0.00    -0.337 OA
BRANCH  52  56
ATOM     53  C   UNL     1      10.375  -1.574  22.305  0.00  0.00    +0.041 C 
ATOM     54  C   UNL     1       9.897  -0.808  23.534  0.00  0.00    +0.149 C 
ATOM     55  O   UNL     1       8.563  -1.166  23.880  0.00  0.00    -0.343 OA
ATOM     56  C   UNL     1       7.546  -0.735  22.988  0.00  0.00    +0.282 C 
ATOM     57  C   UNL     1       7.457   0.797  23.100  0.00  0.00    +0.201 C 
ATOM     58  C   UNL     1       8.835   1.393  22.733  0.00  0.00    +0.179 C 
ATOM     59  C   UNL     1       9.996   0.721  23.494  0.00  0.00    +0.174 C 
BRANCH  59  60
ATOM     60  O   UNL     1       9.948   1.190  24.860  0.00  0.00    -0.387 OA
ATOM     61  H   UNL     1       9.034   1.465  25.065  0.00  0.00    +0.210 HD
ENDBRANCH  59  60
BRANCH  58  62
ATOM     62  O   UNL     1       9.024   1.347  21.308  0.00  0.00    -0.386 OA
ATOM     63  H   UNL     1       8.326   0.829  20.878  0.00  0.00    +0.210 HD
ENDBRANCH  58  62
BRANCH  57  64
ATOM     64  O   UNL     1       6.441   1.331  22.243  0.00  0.00    -0.384 OA
ATOM     65  H   UNL     1       5.701   1.609  22.815  0.00  0.00    +0.210 HD
ENDBRANCH  57  64
ENDBRANCH  52  56
ENDBRANCH  39  52
ENDBRANCH  38  40
ENDBRANCH   1  38
TORSDOF 20
ENDMDL
MODEL 5
REMARK VINA RESULT:      -6.7      2.530     10.657
REMARK  Name = 
REMARK  22 active torsions:
REMARK  status: ('A' for Active; 'I' for Inactive)
REMARK    1  A    between atoms: C_1  and  C_2
REMARK    2  A    between atoms: C_4  and  O_68
REMARK    3  A    between atoms: C_6  and  O_67
REMARK    4  A    between atoms: C_8  and  O_66
REMARK    5  A    between atoms: C_10  and  O_13
REMARK    6  A    between atoms: O_13  and  C_14
REMARK    7  A    between atoms: C_16  and  O_65
REMARK    8  A    between atoms: C_18  and  O_64
REMARK    9  A    between atoms: C_20  and  C_62
REMARK   10  A    between atoms: C_23  and  O_25
REMARK   11  A    between atoms: O_25  and  C_26
REMARK   12  A    between atoms: C_27  and  C_54
REMARK   13  A    between atoms: C_31  and  O_38
REMARK   14  A    between atoms: C_33  and  O_37
REMARK   15  A    between atoms: O_38  and  C_39
REMARK   16  A    between atoms: C_41  and  O_53
REMARK   17  A    between atoms: C_43  and  O_52
REMARK   18  A    between atoms: C_45  and  O_51
REMARK   19  A    between atoms: C_47  and  C_50
REMARK   20  A    between atoms: C_56  and  O_61
REMARK   21  A    between atoms: C_57  and  O_60
REMARK   22  A    between atoms: C_62  and  O_63
REMARK                            x       y       z     vdW  Elec       q    Type
REMARK                         _______ _______ _______ _____ _____    ______ ____
ROOT
ATOM      1  C   UNL     1       5.210   0.718  26.568  0.00  0.00    +0.214 A 
ATOM      2  C   UNL     1       4.113   0.210  27.473  0.00  0.00    +0.238 A 
ATOM      3  O   UNL     1       3.735   0.858  28.445  0.00  0.00    -0.283 OA
ATOM      4  C   UNL     1       3.483  -1.066  27.077  0.00  0.00    +0.109 A 
ATOM      5  C   UNL     1       4.182  -1.859  26.180  0.00  0.00    +0.147 A 
ATOM      6  C   UNL     1       3.626  -3.035  25.668  0.00  0.00    +0.093 A 
ATOM      7  C   UNL     1       2.368  -3.463  26.093  0.00  0.00    +0.131 A 
ATOM      8  C   UNL     1       1.670  -2.691  27.026  0.00  0.00    +0.092 A 
ATOM      9  O   UNL     1       5.448  -1.546  25.759  0.00  0.00    -0.451 OA
ATOM     10  C   UNL     1       2.228  -1.498  27.519  0.00  0.00    +0.135 A 
ATOM     11  C   UNL     1       5.865  -0.224  25.844  0.00  0.00    +0.181 A 
ENDROOT
BRANCH  11  12
ATOM     12  C   UNL     1       7.069  -0.045  24.988  0.00  0.00    +0.025 A 
ATOM     13  C   UNL     1       7.037  -0.512  23.661  0.00  0.00    +0.015 A 
ATOM     14  C   UNL     1       8.215  -0.644  22.911  0.00  0.00    +0.050 A 
ATOM     15  C   UNL     1       9.431  -0.303  23.481  0.00  0.00    +0.158 A 
ATOM     16  C   UNL     1       9.483   0.196  24.780  0.00  0.00    +0.159 A 
ATOM     17  C   UNL     1       8.315   0.317  25.546  0.00  0.00    +0.060 A 
BRANCH  16  18
ATOM     18  O   UNL     1      10.722   0.524  25.264  0.00  0.00    -0.503 OA
ATOM     19  H   UNL     1      10.676   0.539  26.234  0.00  0.00    +0.292 HD
ENDBRANCH  16  18
BRANCH  15  20
ATOM     20  O   UNL     1      10.580  -0.488  22.766  0.00  0.00    -0.503 OA
ATOM     21  H   UNL     1      11.180  -0.972  23.369  0.00  0.00    +0.292 HD
ENDBRANCH  15  20
ENDBRANCH  11  12
BRANCH  10  22
ATOM     22  O   UNL     1       1.525  -0.752  28.425  0.00  0.00    -0.506 OA
ATOM     23  H   UNL     1       0.693  -1.190  28.663  0.00  0.00    +0.292 HD
ENDBRANCH  10  22
BRANCH   7  24
ATOM     24  O   UNL     1       1.741  -4.597  25.621  0.00  0.00    -0.461 OA
BRANCH  24  25
ATOM     25  C   UNL     1       2.024  -5.809  26.350  0.00  0.00    +0.339 C 
ATOM     26  O   UNL     1       3.399  -5.934  26.748  0.00  0.00    -0.334 OA
ATOM     27  C   UNL     1       4.318  -6.070  25.666  0.00  0.00    +0.150 C 
ATOM     28  C   UNL     1       5.722  -6.145  26.262  0.00  0.00    +0.041 C 
ATOM     29  C   UNL     1       4.030  -7.328  24.834  0.00  0.00    +0.174 C 
ATOM     30  C   UNL     1       2.559  -7.363  24.387  0.00  0.00    +0.180 C 
ATOM     31  C   UNL     1       1.587  -7.053  25.542  0.00  0.00    +0.214 C 
BRANCH  31  32
ATOM     32  O   UNL     1       1.467  -8.184  26.424  0.00  0.00    -0.383 OA
ATOM     33  H   UNL     1       0.821  -7.966  27.121  0.00  0.00    +0.210 HD
ENDBRANCH  31  32
BRANCH  30  34
ATOM     34  O   UNL     1       2.282  -8.662  23.840  0.00  0.00    -0.386 OA
ATOM     35  H   UNL     1       3.042  -8.938  23.301  0.00  0.00    +0.210 HD
ENDBRANCH  30  34
BRANCH  29  36
ATOM     36  O   UNL     1       4.913  -7.397  23.707  0.00  0.00    -0.387 OA
ATOM     37  H   UNL     1       4.424  -7.741  22.942  0.00  0.00    +0.210 HD
ENDBRANCH  29  36
ENDBRANCH  24  25
ENDBRANCH   7  24
BRANCH   1  38
ATOM     38  O   UNL     1       5.553   2.059  26.518  0.00  0.00    -0.453 OA
BRANCH  38  40
ATOM     39  C   UNL     1       5.319   2.898  24.084  0.00  0.00    +0.221 C 
ATOM     40  C   UNL     1       4.902   2.977  25.599  0.00  0.00    +0.340 C 
ATOM     41  O   UNL     1       3.471   3.034  25.798  0.00  0.00    -0.331 OA
ATOM     42  C   UNL     1       2.861   4.118  25.070  0.00  0.00    +0.179 C 
ATOM     43  C   UNL     1       3.005   3.869  23.559  0.00  0.00    +0.177 C 
ATOM     44  C   UNL     1       4.494   3.906  23.252  0.00  0.00    +0.180 C 
BRANCH  44  45
ATOM     45  O   UNL     1       4.776   3.761  21.860  0.00  0.00    -0.386 OA
ATOM     46  H   UNL     1       3.983   4.094  21.399  0.00  0.00    +0.210 HD
ENDBRANCH  44  45
BRANCH  43  47
ATOM     47  O   UNL     1       2.389   2.644  23.169  0.00  0.00    -0.386 OA
ATOM     48  H   UNL     1       1.609   2.499  23.747  0.00  0.00    +0.210 HD
ENDBRANCH  43  47
BRANCH  42  49
ATOM     49  C   UNL     1       1.390   4.314  25.446  0.00  0.00    +0.190 C 
BRANCH  49  50
ATOM     50  O   UNL     1       0.665   3.102  25.219  0.00  0.00    -0.392 OA
ATOM     51  H   UNL     1       1.315   2.391  25.076  0.00  0.00    +0.210 HD
ENDBRANCH  49  50
ENDBRANCH  42  49
BRANCH  39  52
ATOM     52  O   UNL     1       6.740   3.019  23.799  0.00  0.00    -0.337 OA
BRANCH  52  56
ATOM     53  C   UNL     1       6.846   7.108  22.903  0.00  0.00    +0.041 C 
ATOM     54  C   UNL     1       8.069   6.217  22.715  0.00  0.00    +0.149 C 
ATOM     55  O   UNL     1       7.713   4.838  22.737  0.00  0.00    -0.343 OA
ATOM     56  C   UNL     1       7.298   4.317  23.991  0.00  0.00    +0.282 C 
ATOM     57  C   UNL     1       8.532   4.297  24.910  0.00  0.00    +0.201 C 
ATOM     58  C   UNL     1       9.069   5.742  25.036  0.00  0.00    +0.179 C 
ATOM     59  C   UNL     1       9.251   6.431  23.668  0.00  0.00    +0.174 C 
BRANCH  59  60
ATOM     60  O   UNL     1      10.416   5.852  23.043  0.00  0.00    -0.387 OA
ATOM     61  H   UNL     1      10.890   5.310  23.702  0.00  0.00    +0.210 HD
ENDBRANCH  59  60
BRANCH  58  62
ATOM     62  O   UNL     1       8.225   6.503  25.917  0.00  0.00    -0.386 OA
ATOM     63  H   UNL     1       8.565   6.492  26.826  0.00  0.00    +0.210 HD
ENDBRANCH  58  62
BRANCH  57  64
ATOM     64  O   UNL     1       8.217   3.771  26.204  0.00  0.00    -0.384 OA
ATOM     65  H   UNL     1       7.788   2.905  26.064  0.00  0.00    +0.210 HD
ENDBRANCH  57  64
ENDBRANCH  52  56
ENDBRANCH  39  52
ENDBRANCH  38  40
ENDBRANCH   1  38
TORSDOF 20
ENDMDL
MODEL 6
REMARK VINA RESULT:      -6.6      2.016      2.811
REMARK  Name = 
REMARK  22 active torsions:
REMARK  status: ('A' for Active; 'I' for Inactive)
REMARK    1  A    between atoms: C_1  and  C_2
REMARK    2  A    between atoms: C_4  and  O_68
REMARK    3  A    between atoms: C_6  and  O_67
REMARK    4  A    between atoms: C_8  and  O_66
REMARK    5  A    between atoms: C_10  and  O_13
REMARK    6  A    between atoms: O_13  and  C_14
REMARK    7  A    between atoms: C_16  and  O_65
REMARK    8  A    between atoms: C_18  and  O_64
REMARK    9  A    between atoms: C_20  and  C_62
REMARK   10  A    between atoms: C_23  and  O_25
REMARK   11  A    between atoms: O_25  and  C_26
REMARK   12  A    between atoms: C_27  and  C_54
REMARK   13  A    between atoms: C_31  and  O_38
REMARK   14  A    between atoms: C_33  and  O_37
REMARK   15  A    between atoms: O_38  and  C_39
REMARK   16  A    between atoms: C_41  and  O_53
REMARK   17  A    between atoms: C_43  and  O_52
REMARK   18  A    between atoms: C_45  and  O_51
REMARK   19  A    between atoms: C_47  and  C_50
REMARK   20  A    between atoms: C_56  and  O_61
REMARK   21  A    between atoms: C_57  and  O_60
REMARK   22  A    between atoms: C_62  and  O_63
REMARK                            x       y       z     vdW  Elec       q    Type
REMARK                         _______ _______ _______ _____ _____    ______ ____
ROOT
ATOM      1  C   UNL     1       5.683  -0.894  25.766  0.00  0.00    +0.214 A 
ATOM      2  C   UNL     1       7.042  -1.491  25.485  0.00  0.00    +0.238 A 
ATOM      3  O   UNL     1       7.215  -2.706  25.466  0.00  0.00    -0.283 OA
ATOM      4  C   UNL     1       8.120  -0.531  25.170  0.00  0.00    +0.109 A 
ATOM      5  C   UNL     1       7.910   0.791  25.532  0.00  0.00    +0.147 A 
ATOM      6  C   UNL     1       8.825   1.789  25.187  0.00  0.00    +0.093 A 
ATOM      7  C   UNL     1      10.003   1.465  24.514  0.00  0.00    +0.131 A 
ATOM      8  C   UNL     1      10.244   0.130  24.176  0.00  0.00    +0.092 A 
ATOM      9  O   UNL     1       6.812   1.186  26.250  0.00  0.00    -0.451 OA
ATOM     10  C   UNL     1       9.306  -0.866  24.507  0.00  0.00    +0.135 A 
ATOM     11  C   UNL     1       5.679   0.383  26.223  0.00  0.00    +0.181 A 
ENDROOT
BRANCH  11  12
ATOM     12  C   UNL     1       4.519   1.174  26.716  0.00  0.00    +0.025 A 
ATOM     13  C   UNL     1       4.039   2.240  25.933  0.00  0.00    +0.015 A 
ATOM     14  C   UNL     1       3.162   3.194  26.467  0.00  0.00    +0.050 A 
ATOM     15  C   UNL     1       2.753   3.084  27.787  0.00  0.00    +0.158 A 
ATOM     16  C   UNL     1       3.186   2.018  28.570  0.00  0.00    +0.159 A 
ATOM     17  C   UNL     1       4.075   1.066  28.053  0.00  0.00    +0.060 A 
BRANCH  16  18
ATOM     18  O   UNL     1       2.723   1.973  29.859  0.00  0.00    -0.503 OA
ATOM     19  H   UNL     1       1.752   1.946  29.834  0.00  0.00    +0.292 HD
ENDBRANCH  16  18
BRANCH  15  20
ATOM     20  O   UNL     1       1.944   4.048  28.319  0.00  0.00    -0.503 OA
ATOM     21  H   UNL     1       1.954   3.884  29.284  0.00  0.00    +0.292 HD
ENDBRANCH  15  20
ENDBRANCH  11  12
BRANCH  10  22
ATOM     22  O   UNL     1       9.556  -2.165  24.161  0.00  0.00    -0.506 OA
ATOM     23  H   UNL     1       8.734  -2.628  23.934  0.00  0.00    +0.292 HD
ENDBRANCH  10  22
BRANCH   7  24
ATOM     24  O   UNL     1      10.944   2.391  24.119  0.00  0.00    -0.461 OA
BRANCH  24  25
ATOM     25  C   UNL     1      10.487   3.368  23.160  0.00  0.00    +0.339 C 
ATOM     26  O   UNL     1      11.552   4.030  22.460  0.00  0.00    -0.334 OA
ATOM     27  C   UNL     1      12.379   4.852  23.282  0.00  0.00    +0.150 C 
ATOM     28  C   UNL     1      13.474   5.436  22.391  0.00  0.00    +0.041 C 
ATOM     29  C   UNL     1      11.576   5.981  23.942  0.00  0.00    +0.174 C 
ATOM     30  C   UNL     1      10.352   5.419  24.685  0.00  0.00    +0.180 C 
ATOM     31  C   UNL     1       9.561   4.409  23.833  0.00  0.00    +0.214 C 
BRANCH  31  32
ATOM     32  O   UNL     1       8.786   5.086  22.827  0.00  0.00    -0.383 OA
ATOM     33  H   UNL     1       9.366   5.282  22.068  0.00  0.00    +0.210 HD
ENDBRANCH  31  32
BRANCH  30  34
ATOM     34  O   UNL     1       9.508   6.519  25.062  0.00  0.00    -0.386 OA
ATOM     35  H   UNL     1       9.363   6.482  26.022  0.00  0.00    +0.210 HD
ENDBRANCH  30  34
BRANCH  29  36
ATOM     36  O   UNL     1      12.412   6.740  24.825  0.00  0.00    -0.387 OA
ATOM     37  H   UNL     1      13.109   7.175  24.306  0.00  0.00    +0.210 HD
ENDBRANCH  29  36
ENDBRANCH  24  25
ENDBRANCH   7  24
BRANCH   1  38
ATOM     38  O   UNL     1       4.518  -1.625  25.605  0.00  0.00    -0.453 OA
BRANCH  38  40
ATOM     39  C   UNL     1       4.525  -4.080  26.415  0.00  0.00    +0.221 C 
ATOM     40  C   UNL     1       4.077  -2.583  26.604  0.00  0.00    +0.340 C 
ATOM     41  O   UNL     1       4.258  -2.096  27.953  0.00  0.00    -0.331 OA
ATOM     42  C   UNL     1       3.596  -2.927  28.928  0.00  0.00    +0.179 C 
ATOM     43  C   UNL     1       4.258  -4.316  28.954  0.00  0.00    +0.177 C 
ATOM     44  C   UNL     1       4.009  -4.942  27.590  0.00  0.00    +0.180 C 
BRANCH  44  45
ATOM     45  O   UNL     1       4.509  -6.275  27.494  0.00  0.00    -0.386 OA
ATOM     46  H   UNL     1       4.913  -6.464  28.362  0.00  0.00    +0.210 HD
ENDBRANCH  44  45
BRANCH  43  47
ATOM     47  O   UNL     1       5.643  -4.231  29.281  0.00  0.00    -0.386 OA
ATOM     48  H   UNL     1       5.847  -4.943  29.925  0.00  0.00    +0.210 HD
ENDBRANCH  43  47
BRANCH  42  49
ATOM     49  C   UNL     1       3.603  -2.301  30.324  0.00  0.00    +0.190 C 
BRANCH  49  50
ATOM     50  O   UNL     1       2.799  -1.117  30.329  0.00  0.00    -0.392 OA
ATOM     51  H   UNL     1       2.748  -0.799  31.249  0.00  0.00    +0.210 HD
ENDBRANCH  49  50
ENDBRANCH  42  49
BRANCH  39  52
ATOM     52  O   UNL     1       4.206  -4.692  25.134  0.00  0.00    -0.337 OA
BRANCH  52  56
ATOM     53  C   UNL     1       5.913  -2.726  21.855  0.00  0.00    +0.041 C 
ATOM     54  C   UNL     1       5.466  -4.182  21.770  0.00  0.00    +0.149 C 
ATOM     55  O   UNL     1       4.611  -4.525  22.856  0.00  0.00    -0.343 OA
ATOM     56  C   UNL     1       5.219  -4.594  24.136  0.00  0.00    +0.282 C 
ATOM     57  C   UNL     1       6.159  -5.813  24.132  0.00  0.00    +0.201 C 
ATOM     58  C   UNL     1       7.203  -5.618  23.008  0.00  0.00    +0.179 C 
ATOM     59  C   UNL     1       6.560  -5.250  21.655  0.00  0.00    +0.174 C 
BRANCH  59  60
ATOM     60  O   UNL     1       5.940  -6.444  21.131  0.00  0.00    -0.387 OA
ATOM     61  H   UNL     1       5.294  -6.776  21.783  0.00  0.00    +0.210 HD
ENDBRANCH  59  60
BRANCH  58  62
ATOM     62  O   UNL     1       8.190  -4.656  23.417  0.00  0.00    -0.386 OA
ATOM     63  H   UNL     1       9.074  -5.055  23.460  0.00  0.00    +0.210 HD
ENDBRANCH  58  62
BRANCH  57  64
ATOM     64  O   UNL     1       6.815  -5.978  25.394  0.00  0.00    -0.384 OA
ATOM     65  H   UNL     1       6.380  -6.726  25.847  0.00  0.00    +0.210 HD
ENDBRANCH  57  64
ENDBRANCH  52  56
ENDBRANCH  39  52
ENDBRANCH  38  40
ENDBRANCH   1  38
TORSDOF 20
ENDMDL
MODEL 7
REMARK VINA RESULT:      -6.5      2.436     10.209
REMARK  Name = 
REMARK  22 active torsions:
REMARK  status: ('A' for Active; 'I' for Inactive)
REMARK    1  A    between atoms: C_1  and  C_2
REMARK    2  A    between atoms: C_4  and  O_68
REMARK    3  A    between atoms: C_6  and  O_67
REMARK    4  A    between atoms: C_8  and  O_66
REMARK    5  A    between atoms: C_10  and  O_13
REMARK    6  A    between atoms: O_13  and  C_14
REMARK    7  A    between atoms: C_16  and  O_65
REMARK    8  A    between atoms: C_18  and  O_64
REMARK    9  A    between atoms: C_20  and  C_62
REMARK   10  A    between atoms: C_23  and  O_25
REMARK   11  A    between atoms: O_25  and  C_26
REMARK   12  A    between atoms: C_27  and  C_54
REMARK   13  A    between atoms: C_31  and  O_38
REMARK   14  A    between atoms: C_33  and  O_37
REMARK   15  A    between atoms: O_38  and  C_39
REMARK   16  A    between atoms: C_41  and  O_53
REMARK   17  A    between atoms: C_43  and  O_52
REMARK   18  A    between atoms: C_45  and  O_51
REMARK   19  A    between atoms: C_47  and  C_50
REMARK   20  A    between atoms: C_56  and  O_61
REMARK   21  A    between atoms: C_57  and  O_60
REMARK   22  A    between atoms: C_62  and  O_63
REMARK                            x       y       z     vdW  Elec       q    Type
REMARK                         _______ _______ _______ _____ _____    ______ ____
ROOT
ATOM      1  C   UNL     1       6.693  -0.031  26.274  0.00  0.00    +0.214 A 
ATOM      2  C   UNL     1       5.809  -0.927  27.107  0.00  0.00    +0.238 A 
ATOM      3  O   UNL     1       5.734  -0.798  28.326  0.00  0.00    -0.283 OA
ATOM      4  C   UNL     1       4.996  -1.912  26.363  0.00  0.00    +0.109 A 
ATOM      5  C   UNL     1       5.388  -2.194  25.063  0.00  0.00    +0.147 A 
ATOM      6  C   UNL     1       4.627  -3.034  24.245  0.00  0.00    +0.093 A 
ATOM      7  C   UNL     1       3.478  -3.651  24.742  0.00  0.00    +0.131 A 
ATOM      8  C   UNL     1       3.094  -3.404  26.063  0.00  0.00    +0.092 A 
ATOM      9  O   UNL     1       6.535  -1.682  24.518  0.00  0.00    -0.451 OA
ATOM     10  C   UNL     1       3.854  -2.539  26.872  0.00  0.00    +0.135 A 
ATOM     11  C   UNL     1       7.070  -0.525  25.069  0.00  0.00    +0.181 A 
ENDROOT
BRANCH  11  12
ATOM     12  C   UNL     1       8.042   0.060  24.105  0.00  0.00    +0.025 A 
ATOM     13  C   UNL     1       9.314   0.445  24.569  0.00  0.00    +0.015 A 
ATOM     14  C   UNL     1      10.150   1.262  23.795  0.00  0.00    +0.050 A 
ATOM     15  C   UNL     1       9.724   1.693  22.549  0.00  0.00    +0.158 A 
ATOM     16  C   UNL     1       8.485   1.295  22.054  0.00  0.00    +0.159 A 
ATOM     17  C   UNL     1       7.633   0.491  22.824  0.00  0.00    +0.060 A 
BRANCH  16  18
ATOM     18  O   UNL     1       8.145   1.751  20.808  0.00  0.00    -0.503 OA
ATOM     19  H   UNL     1       8.301   2.710  20.781  0.00  0.00    +0.292 HD
ENDBRANCH  16  18
BRANCH  15  20
ATOM     20  O   UNL     1      10.518   2.536  21.825  0.00  0.00    -0.503 OA
ATOM     21  H   UNL     1      10.269   2.381  20.891  0.00  0.00    +0.292 HD
ENDBRANCH  15  20
ENDBRANCH  11  12
BRANCH  10  22
ATOM     22  O   UNL     1       3.457  -2.303  28.159  0.00  0.00    -0.506 OA
ATOM     23  H   UNL     1       3.791  -2.990  28.757  0.00  0.00    +0.292 HD
ENDBRANCH  10  22
BRANCH   7  24
ATOM     24  O   UNL     1       2.662  -4.474  23.995  0.00  0.00    -0.461 OA
BRANCH  24  25
ATOM     25  C   UNL     1       3.324  -5.583  23.352  0.00  0.00    +0.339 C 
ATOM     26  O   UNL     1       2.547  -6.189  22.307  0.00  0.00    -0.334 OA
ATOM     27  C   UNL     1       1.355  -6.832  22.753  0.00  0.00    +0.150 C 
ATOM     28  C   UNL     1       0.637  -7.377  21.519  0.00  0.00    +0.041 C 
ATOM     29  C   UNL     1       1.660  -7.974  23.732  0.00  0.00    +0.174 C 
ATOM     30  C   UNL     1       2.550  -7.480  24.886  0.00  0.00    +0.180 C 
ATOM     31  C   UNL     1       3.748  -6.649  24.389  0.00  0.00    +0.214 C 
BRANCH  31  32
ATOM     32  O   UNL     1       4.758  -7.501  23.820  0.00  0.00    -0.383 OA
ATOM     33  H   UNL     1       4.430  -7.845  22.968  0.00  0.00    +0.210 HD
ENDBRANCH  31  32
BRANCH  30  34
ATOM     34  O   UNL     1       3.010  -8.624  25.624  0.00  0.00    -0.386 OA
ATOM     35  H   UNL     1       2.958  -9.405  25.047  0.00  0.00    +0.210 HD
ENDBRANCH  30  34
BRANCH  29  36
ATOM     36  O   UNL     1       0.443  -8.547  24.229  0.00  0.00    -0.387 OA
ATOM     37  H   UNL     1      -0.215  -8.559  23.515  0.00  0.00    +0.210 HD
ENDBRANCH  29  36
ENDBRANCH  24  25
ENDBRANCH   7  24
BRANCH   1  38
ATOM     38  O   UNL     1       7.125   1.202  26.736  0.00  0.00    -0.453 OA
BRANCH  38  40
ATOM     39  C   UNL     1       4.964   2.409  25.988  0.00  0.00    +0.221 C 
ATOM     40  C   UNL     1       6.198   2.298  26.958  0.00  0.00    +0.340 C 
ATOM     41  O   UNL     1       5.847   2.450  28.352  0.00  0.00    -0.331 OA
ATOM     42  C   UNL     1       5.138   3.678  28.608  0.00  0.00    +0.179 C 
ATOM     43  C   UNL     1       3.775   3.643  27.894  0.00  0.00    +0.177 C 
ATOM     44  C   UNL     1       4.067   3.597  26.402  0.00  0.00    +0.180 C 
BRANCH  44  45
ATOM     45  O   UNL     1       2.882   3.635  25.606  0.00  0.00    -0.386 OA
ATOM     46  H   UNL     1       3.113   4.171  24.824  0.00  0.00    +0.210 HD
ENDBRANCH  44  45
BRANCH  43  47
ATOM     47  O   UNL     1       2.979   2.548  28.339  0.00  0.00    -0.386 OA
ATOM     48  H   UNL     1       2.458   2.847  29.116  0.00  0.00    +0.210 HD
ENDBRANCH  43  47
BRANCH  42  49
ATOM     49  C   UNL     1       4.956   3.943  30.104  0.00  0.00    +0.190 C 
BRANCH  49  50
ATOM     50  O   UNL     1       3.726   4.638  30.329  0.00  0.00    -0.392 OA
ATOM     51  H   UNL     1       3.738   4.971  31.244  0.00  0.00    +0.210 HD
ENDBRANCH  49  50
ENDBRANCH  42  49
BRANCH  39  52
ATOM     52  O   UNL     1       5.264   2.447  24.565  0.00  0.00    -0.337 OA
BRANCH  52  56
ATOM     53  C   UNL     1       8.727   4.694  25.261  0.00  0.00    +0.041 C 
ATOM     54  C   UNL     1       7.373   5.361  25.041  0.00  0.00    +0.149 C 
ATOM     55  O   UNL     1       6.308   4.425  25.180  0.00  0.00    -0.343 OA
ATOM     56  C   UNL     1       6.197   3.445  24.159  0.00  0.00    +0.282 C 
ATOM     57  C   UNL     1       5.761   4.170  22.873  0.00  0.00    +0.201 C 
ATOM     58  C   UNL     1       6.826   5.239  22.532  0.00  0.00    +0.179 C 
ATOM     59  C   UNL     1       7.172   6.138  23.736  0.00  0.00    +0.174 C 
BRANCH  59  60
ATOM     60  O   UNL     1       6.061   7.038  23.939  0.00  0.00    -0.387 OA
ATOM     61  H   UNL     1       6.245   7.593  24.721  0.00  0.00    +0.210 HD
ENDBRANCH  59  60
BRANCH  58  62
ATOM     62  O   UNL     1       7.991   4.608  21.974  0.00  0.00    -0.386 OA
ATOM     63  H   UNL     1       8.718   5.243  21.869  0.00  0.00    +0.210 HD
ENDBRANCH  58  62
BRANCH  57  64
ATOM     64  O   UNL     1       5.607   3.257  21.780  0.00  0.00    -0.384 OA
ATOM     65  H   UNL     1       4.652   3.076  21.691  0.00  0.00    +0.210 HD
ENDBRANCH  57  64
ENDBRANCH  52  56
ENDBRANCH  39  52
ENDBRANCH  38  40
ENDBRANCH   1  38
TORSDOF 20
ENDMDL
MODEL 8
REMARK VINA RESULT:      -6.4      2.664      9.417
REMARK  Name = 
REMARK  22 active torsions:
REMARK  status: ('A' for Active; 'I' for Inactive)
REMARK    1  A    between atoms: C_1  and  C_2
REMARK    2  A    between atoms: C_4  and  O_68
REMARK    3  A    between atoms: C_6  and  O_67
REMARK    4  A    between atoms: C_8  and  O_66
REMARK    5  A    between atoms: C_10  and  O_13
REMARK    6  A    between atoms: O_13  and  C_14
REMARK    7  A    between atoms: C_16  and  O_65
REMARK    8  A    between atoms: C_18  and  O_64
REMARK    9  A    between atoms: C_20  and  C_62
REMARK   10  A    between atoms: C_23  and  O_25
REMARK   11  A    between atoms: O_25  and  C_26
REMARK   12  A    between atoms: C_27  and  C_54
REMARK   13  A    between atoms: C_31  and  O_38
REMARK   14  A    between atoms: C_33  and  O_37
REMARK   15  A    between atoms: O_38  and  C_39
REMARK   16  A    between atoms: C_41  and  O_53
REMARK   17  A    between atoms: C_43  and  O_52
REMARK   18  A    between atoms: C_45  and  O_51
REMARK   19  A    between atoms: C_47  and  C_50
REMARK   20  A    between atoms: C_56  and  O_61
REMARK   21  A    between atoms: C_57  and  O_60
REMARK   22  A    between atoms: C_62  and  O_63
REMARK                            x       y       z     vdW  Elec       q    Type
REMARK                         _______ _______ _______ _____ _____    ______ ____
ROOT
ATOM      1  C   UNL     1       6.395   0.622  26.880  0.00  0.00    +0.214 A 
ATOM      2  C   UNL     1       7.328  -0.537  26.625  0.00  0.00    +0.238 A 
ATOM      3  O   UNL     1       8.505  -0.500  26.972  0.00  0.00    -0.283 OA
ATOM      4  C   UNL     1       6.723  -1.732  26.002  0.00  0.00    +0.109 A 
ATOM      5  C   UNL     1       5.504  -1.559  25.365  0.00  0.00    +0.147 A 
ATOM      6  C   UNL     1       4.805  -2.646  24.833  0.00  0.00    +0.093 A 
ATOM      7  C   UNL     1       5.349  -3.929  24.887  0.00  0.00    +0.131 A 
ATOM      8  C   UNL     1       6.595  -4.111  25.493  0.00  0.00    +0.092 A 
ATOM      9  O   UNL     1       4.928  -0.325  25.211  0.00  0.00    -0.451 OA
ATOM     10  C   UNL     1       7.282  -3.015  26.046  0.00  0.00    +0.135 A 
ATOM     11  C   UNL     1       5.303   0.692  26.079  0.00  0.00    +0.181 A 
ENDROOT
BRANCH  11  12
ATOM     12  C   UNL     1       4.296   1.786  26.000  0.00  0.00    +0.025 A 
ATOM     13  C   UNL     1       3.293   1.861  26.984  0.00  0.00    +0.015 A 
ATOM     14  C   UNL     1       2.161   2.667  26.804  0.00  0.00    +0.050 A 
ATOM     15  C   UNL     1       2.026   3.409  25.641  0.00  0.00    +0.158 A 
ATOM     16  C   UNL     1       3.023   3.378  24.669  0.00  0.00    +0.159 A 
ATOM     17  C   UNL     1       4.153   2.564  24.830  0.00  0.00    +0.060 A 
BRANCH  16  18
ATOM     18  O   UNL     1       2.822   4.151  23.557  0.00  0.00    -0.503 OA
ATOM     19  H   UNL     1       3.676   4.533  23.292  0.00  0.00    +0.292 HD
ENDBRANCH  16  18
BRANCH  15  20
ATOM     20  O   UNL     1       0.894   4.147  25.445  0.00  0.00    -0.503 OA
ATOM     21  H   UNL     1       1.038   4.972  25.951  0.00  0.00    +0.292 HD
ENDBRANCH  15  20
ENDBRANCH  11  12
BRANCH  10  22
ATOM     22  O   UNL     1       8.496  -3.214  26.642  0.00  0.00    -0.506 OA
ATOM     23  H   UNL     1       8.808  -4.122  26.500  0.00  0.00    +0.292 HD
ENDBRANCH  10  22
BRANCH   7  24
ATOM     24  O   UNL     1       4.715  -5.055  24.407  0.00  0.00    -0.461 OA
BRANCH  24  25
ATOM     25  C   UNL     1       3.273  -4.999  24.403  0.00  0.00    +0.339 C 
ATOM     26  O   UNL     1       2.679  -5.396  25.649  0.00  0.00    -0.334 OA
ATOM     27  C   UNL     1       2.876  -6.767  25.989  0.00  0.00    +0.150 C 
ATOM     28  C   UNL     1       2.223  -7.001  27.351  0.00  0.00    +0.041 C 
ATOM     29  C   UNL     1       2.261  -7.704  24.941  0.00  0.00    +0.174 C 
ATOM     30  C   UNL     1       2.765  -7.351  23.531  0.00  0.00    +0.180 C 
ATOM     31  C   UNL     1       2.692  -5.840  23.243  0.00  0.00    +0.214 C 
BRANCH  31  32
ATOM     32  O   UNL     1       1.335  -5.435  22.986  0.00  0.00    -0.383 OA
ATOM     33  H   UNL     1       1.345  -4.720  22.323  0.00  0.00    +0.210 HD
ENDBRANCH  31  32
BRANCH  30  34
ATOM     34  O   UNL     1       1.977  -8.078  22.574  0.00  0.00    -0.386 OA
ATOM     35  H   UNL     1       2.364  -8.963  22.464  0.00  0.00    +0.210 HD
ENDBRANCH  30  34
BRANCH  29  36
ATOM     36  O   UNL     1       2.546  -9.072  25.263  0.00  0.00    -0.387 OA
ATOM     37  H   UNL     1       3.210  -9.098  25.971  0.00  0.00    +0.210 HD
ENDBRANCH  29  36
ENDBRANCH  24  25
ENDBRANCH   7  24
BRANCH   1  38
ATOM     38  O   UNL     1       6.666   1.578  27.846  0.00  0.00    -0.453 OA
BRANCH  38  40
ATOM     39  C   UNL     1       7.583   3.157  26.016  0.00  0.00    +0.221 C 
ATOM     40  C   UNL     1       7.082   2.924  27.489  0.00  0.00    +0.340 C 
ATOM     41  O   UNL     1       6.148   3.928  27.944  0.00  0.00    -0.331 OA
ATOM     42  C   UNL     1       6.676   5.264  27.817  0.00  0.00    +0.179 C 
ATOM     43  C   UNL     1       6.872   5.601  26.329  0.00  0.00    +0.177 C 
ATOM     44  C   UNL     1       7.935   4.647  25.804  0.00  0.00    +0.180 C 
BRANCH  44  45
ATOM     45  O   UNL     1       8.275   4.896  24.440  0.00  0.00    -0.386 OA
ATOM     46  H   UNL     1       9.135   5.357  24.467  0.00  0.00    +0.210 HD
ENDBRANCH  44  45
BRANCH  43  47
ATOM     47  O   UNL     1       5.646   5.517  25.607  0.00  0.00    -0.386 OA
ATOM     48  H   UNL     1       5.478   6.391  25.191  0.00  0.00    +0.210 HD
ENDBRANCH  43  47
BRANCH  42  49
ATOM     49  C   UNL     1       5.783   6.307  28.493  0.00  0.00    +0.190 C 
BRANCH  49  50
ATOM     50  O   UNL     1       4.407   6.000  28.251  0.00  0.00    -0.392 OA
ATOM     51  H   UNL     1       4.218   6.207  27.318  0.00  0.00    +0.210 HD
ENDBRANCH  49  50
ENDBRANCH  42  49
BRANCH  39  52
ATOM     52  O   UNL     1       8.658   2.292  25.555  0.00  0.00    -0.337 OA
BRANCH  52  56
ATOM     53  C   UNL     1       6.953   2.623  21.745  0.00  0.00    +0.041 C 
ATOM     54  C   UNL     1       7.365   1.272  22.322  0.00  0.00    +0.149 C 
ATOM     55  O   UNL     1       7.580   1.354  23.727  0.00  0.00    -0.343 OA
ATOM     56  C   UNL     1       8.721   2.087  24.146  0.00  0.00    +0.282 C 
ATOM     57  C   UNL     1       9.963   1.282  23.724  0.00  0.00    +0.201 C 
ATOM     58  C   UNL     1       9.927   1.100  22.189  0.00  0.00    +0.179 C 
ATOM     59  C   UNL     1       8.569   0.570  21.684  0.00  0.00    +0.174 C 
BRANCH  59  60
ATOM     60  O   UNL     1       8.489  -0.827  22.041  0.00  0.00    -0.387 OA
ATOM     61  H   UNL     1       8.278  -0.898  22.992  0.00  0.00    +0.210 HD
ENDBRANCH  59  60
BRANCH  58  62
ATOM     62  O   UNL     1      10.303   2.327  21.541  0.00  0.00    -0.386 OA
ATOM     63  H   UNL     1      10.366   3.056  22.178  0.00  0.00    +0.210 HD
ENDBRANCH  58  62
BRANCH  57  64
ATOM     64  O   UNL     1      11.175   1.937  24.117  0.00  0.00    -0.384 OA
ATOM     65  H   UNL     1      11.087   2.877  23.867  0.00  0.00    +0.210 HD
ENDBRANCH  57  64
ENDBRANCH  52  56
ENDBRANCH  39  52
ENDBRANCH  38  40
ENDBRANCH   1  38
TORSDOF 20
ENDMDL
MODEL 9
REMARK VINA RESULT:      -6.4      2.948      7.033
REMARK  Name = 
REMARK  22 active torsions:
REMARK  status: ('A' for Active; 'I' for Inactive)
REMARK    1  A    between atoms: C_1  and  C_2
REMARK    2  A    between atoms: C_4  and  O_68
REMARK    3  A    between atoms: C_6  and  O_67
REMARK    4  A    between atoms: C_8  and  O_66
REMARK    5  A    between atoms: C_10  and  O_13
REMARK    6  A    between atoms: O_13  and  C_14
REMARK    7  A    between atoms: C_16  and  O_65
REMARK    8  A    between atoms: C_18  and  O_64
REMARK    9  A    between atoms: C_20  and  C_62
REMARK   10  A    between atoms: C_23  and  O_25
REMARK   11  A    between atoms: O_25  and  C_26
REMARK   12  A    between atoms: C_27  and  C_54
REMARK   13  A    between atoms: C_31  and  O_38
REMARK   14  A    between atoms: C_33  and  O_37
REMARK   15  A    between atoms: O_38  and  C_39
REMARK   16  A    between atoms: C_41  and  O_53
REMARK   17  A    between atoms: C_43  and  O_52
REMARK   18  A    between atoms: C_45  and  O_51
REMARK   19  A    between atoms: C_47  and  C_50
REMARK   20  A    between atoms: C_56  and  O_61
REMARK   21  A    between atoms: C_57  and  O_60
REMARK   22  A    between atoms: C_62  and  O_63
REMARK                            x       y       z     vdW  Elec       q    Type
REMARK                         _______ _______ _______ _____ _____    ______ ____
ROOT
ATOM      1  C   UNL     1       6.451  -2.203  26.724  0.00  0.00    +0.214 A 
ATOM      2  C   UNL     1       7.190  -0.890  26.826  0.00  0.00    +0.238 A 
ATOM      3  O   UNL     1       8.373  -0.796  26.512  0.00  0.00    -0.283 OA
ATOM      4  C   UNL     1       6.389   0.274  27.257  0.00  0.00    +0.109 A 
ATOM      5  C   UNL     1       5.183   0.007  27.887  0.00  0.00    +0.147 A 
ATOM      6  C   UNL     1       4.308   1.039  28.241  0.00  0.00    +0.093 A 
ATOM      7  C   UNL     1       4.658   2.369  28.012  0.00  0.00    +0.131 A 
ATOM      8  C   UNL     1       5.887   2.653  27.411  0.00  0.00    +0.092 A 
ATOM      9  O   UNL     1       4.791  -1.266  28.207  0.00  0.00    -0.451 OA
ATOM     10  C   UNL     1       6.752   1.607  27.038  0.00  0.00    +0.135 A 
ATOM     11  C   UNL     1       5.349  -2.326  27.504  0.00  0.00    +0.181 A 
ENDROOT
BRANCH  11  12
ATOM     12  C   UNL     1       4.513  -3.538  27.722  0.00  0.00    +0.025 A 
ATOM     13  C   UNL     1       4.950  -4.511  28.641  0.00  0.00    +0.015 A 
ATOM     14  C   UNL     1       4.376  -5.790  28.670  0.00  0.00    +0.050 A 
ATOM     15  C   UNL     1       3.356  -6.102  27.785  0.00  0.00    +0.158 A 
ATOM     16  C   UNL     1       2.883  -5.145  26.892  0.00  0.00    +0.159 A 
ATOM     17  C   UNL     1       3.459  -3.868  26.842  0.00  0.00    +0.060 A 
BRANCH  16  18
ATOM     18  O   UNL     1       1.863  -5.528  26.062  0.00  0.00    -0.503 OA
ATOM     19  H   UNL     1       1.033  -5.504  26.567  0.00  0.00    +0.292 HD
ENDBRANCH  16  18
BRANCH  15  20
ATOM     20  O   UNL     1       2.840  -7.367  27.778  0.00  0.00    -0.503 OA
ATOM     21  H   UNL     1       1.912  -7.265  28.071  0.00  0.00    +0.292 HD
ENDBRANCH  15  20
ENDBRANCH  11  12
BRANCH  10  22
ATOM     22  O   UNL     1       7.947   1.904  26.443  0.00  0.00    -0.506 OA
ATOM     23  H   UNL     1       8.672   1.874  27.088  0.00  0.00    +0.292 HD
ENDBRANCH  10  22
BRANCH   7  24
ATOM     24  O   UNL     1       3.844   3.441  28.310  0.00  0.00    -0.461 OA
BRANCH  24  25
ATOM     25  C   UNL     1       2.553   3.436  27.665  0.00  0.00    +0.339 C 
ATOM     26  O   UNL     1       2.603   3.055  26.281  0.00  0.00    -0.334 OA
ATOM     27  C   UNL     1       3.300   3.971  25.440  0.00  0.00    +0.150 C 
ATOM     28  C   UNL     1       3.294   3.392  24.025  0.00  0.00    +0.041 C 
ATOM     29  C   UNL     1       2.642   5.358  25.445  0.00  0.00    +0.174 C 
ATOM     30  C   UNL     1       2.465   5.872  26.884  0.00  0.00    +0.180 C 
ATOM     31  C   UNL     1       1.856   4.808  27.816  0.00  0.00    +0.214 C 
BRANCH  31  32
ATOM     32  O   UNL     1       0.445   4.662  27.570  0.00  0.00    -0.383 OA
ATOM     33  H   UNL     1       0.031   4.270  28.361  0.00  0.00    +0.210 HD
ENDBRANCH  31  32
BRANCH  30  34
ATOM     34  O   UNL     1       1.627   7.039  26.847  0.00  0.00    -0.386 OA
ATOM     35  H   UNL     1       1.333   7.179  25.931  0.00  0.00    +0.210 HD
ENDBRANCH  30  34
BRANCH  29  36
ATOM     36  O   UNL     1       3.410   6.280  24.659  0.00  0.00    -0.387 OA
ATOM     37  H   UNL     1       4.260   5.869  24.430  0.00  0.00    +0.210 HD
ENDBRANCH  29  36
ENDBRANCH  24  25
ENDBRANCH   7  24
BRANCH   1  38
ATOM     38  O   UNL     1       6.902  -3.233  25.914  0.00  0.00    -0.453 OA
BRANCH  38  40
ATOM     39  C   UNL     1       6.363  -3.009  23.395  0.00  0.00    +0.221 C 
ATOM     40  C   UNL     1       6.122  -3.708  24.784  0.00  0.00    +0.340 C 
ATOM     41  O   UNL     1       6.091  -5.151  24.703  0.00  0.00    -0.331 OA
ATOM     42  C   UNL     1       5.122  -5.625  23.746  0.00  0.00    +0.179 C 
ATOM     43  C   UNL     1       5.542  -5.192  22.331  0.00  0.00    +0.177 C 
ATOM     44  C   UNL     1       5.489  -3.673  22.307  0.00  0.00    +0.180 C 
BRANCH  44  45
ATOM     45  O   UNL     1       5.787  -3.129  21.020  0.00  0.00    -0.386 OA
ATOM     46  H   UNL     1       6.751  -3.234  20.912  0.00  0.00    +0.210 HD
ENDBRANCH  44  45
BRANCH  43  47
ATOM     47  O   UNL     1       6.825  -5.708  21.984  0.00  0.00    -0.386 OA
ATOM     48  H   UNL     1       7.506  -5.117  22.372  0.00  0.00    +0.210 HD
ENDBRANCH  43  47
BRANCH  42  49
ATOM     49  C   UNL     1       4.935  -7.142  23.813  0.00  0.00    +0.190 C 
BRANCH  49  50
ATOM     50  O   UNL     1       4.163  -7.487  24.968  0.00  0.00    -0.392 OA
ATOM     51  H   UNL     1       4.401  -6.863  25.678  0.00  0.00    +0.210 HD
ENDBRANCH  49  50
ENDBRANCH  42  49
BRANCH  39  52
ATOM     52  O   UNL     1       6.226  -1.561  23.369  0.00  0.00    -0.337 OA
BRANCH  52  56
ATOM     53  C   UNL     1      10.131  -1.495  21.860  0.00  0.00    +0.041 C 
ATOM     54  C   UNL     1       9.790  -0.895  23.220  0.00  0.00    +0.149 C 
ATOM     55  O   UNL     1       8.515  -1.338  23.675  0.00  0.00    -0.343 OA
ATOM     56  C   UNL     1       7.389  -0.841  22.968  0.00  0.00    +0.282 C 
ATOM     57  C   UNL     1       7.284   0.664  23.274  0.00  0.00    +0.201 C 
ATOM     58  C   UNL     1       8.595   1.346  22.821  0.00  0.00    +0.179 C 
ATOM     59  C   UNL     1       9.853   0.630  23.354  0.00  0.00    +0.174 C 
BRANCH  59  60
ATOM     60  O   UNL     1       9.961   0.933  24.762  0.00  0.00    -0.387 OA
ATOM     61  H   UNL     1      10.097   0.101  25.253  0.00  0.00    +0.210 HD
ENDBRANCH  59  60
BRANCH  58  62
ATOM     62  O   UNL     1       8.612   1.474  21.389  0.00  0.00    -0.386 OA
ATOM     63  H   UNL     1       8.262   2.335  21.109  0.00  0.00    +0.210 HD
ENDBRANCH  58  62
BRANCH  57  64
ATOM     64  O   UNL     1       6.161   1.259  22.612  0.00  0.00    -0.384 OA
ATOM     65  H   UNL     1       5.974   2.102  23.069  0.00  0.00    +0.210 HD
ENDBRANCH  57  64
ENDBRANCH  52  56
ENDBRANCH  39  52
ENDBRANCH  38  40
ENDBRANCH   1  38
TORSDOF 20
ENDMDL
