MODEL 1
REMARK VINA RESULT:      -6.6      0.000      0.000
REMARK  Name = 
REMARK  20 active torsions:
REMARK  status: ('A' for Active; 'I' for Inactive)
REMARK    1  A    between atoms: C_1  and  O_2
REMARK    2  A    between atoms: O_2  and  C_3
REMARK    3  A    between atoms: C_4  and  O_50
REMARK    4  A    between atoms: C_6  and  C_9
REMARK    5  A    between atoms: C_10  and  O_36
REMARK    6  A    between atoms: C_14  and  O_35
REMARK    7  A    between atoms: C_16  and  O_20
REMARK    8  A    between atoms: O_20  and  C_21
REMARK    9  A    between atoms: C_23  and  O_34
REMARK   10  A    between atoms: C_24  and  O_33
REMARK   11  A    between atoms: C_26  and  O_32
REMARK   12  A    between atoms: C_28  and  C_30
REMARK   13  A    between atoms: C_30  and  O_31
REMARK   14  A    between atoms: O_36  and  C_37
REMARK   15  A    between atoms: C_39  and  O_49
REMARK   16  A    between atoms: C_40  and  O_48
REMARK   17  A    between atoms: C_41  and  O_47
REMARK   18  A    between atoms: C_43  and  C_45
REMARK   19  A    between atoms: C_45  and  O_46
REMARK   20  A    between atoms: O_50  and  C_51
REMARK                            x       y       z     vdW  Elec       q    Type
REMARK                         _______ _______ _______ _____ _____    ______ ____
ROOT
ATOM      1  C   UNL     1       6.758   1.197  23.341  0.00  0.00    +0.181 A 
ATOM      2  O   UNL     1       6.128  -0.048  23.360  0.00  0.00    -0.451 OA
ATOM      3  C   UNL     1       6.839  -1.199  23.427  0.00  0.00    +0.147 A 
ATOM      4  C   UNL     1       8.207  -1.229  23.270  0.00  0.00    +0.109 A 
ATOM      5  C   UNL     1       8.843  -2.475  23.254  0.00  0.00    +0.135 A 
ATOM      6  C   UNL     1       8.118  -3.666  23.439  0.00  0.00    +0.092 A 
ATOM      7  C   UNL     1       6.747  -3.616  23.684  0.00  0.00    +0.131 A 
ATOM      8  C   UNL     1       8.913   0.065  23.132  0.00  0.00    +0.238 A 
ATOM      9  O   UNL     1      10.129   0.016  22.977  0.00  0.00    -0.283 OA
ATOM     10  C   UNL     1       6.101  -2.376  23.649  0.00  0.00    +0.093 A 
ATOM     11  C   UNL     1       8.108   1.355  23.225  0.00  0.00    +0.214 A 
ENDROOT
BRANCH   1  15
ATOM     12  C   UNL     1       3.266   3.623  24.200  0.00  0.00    +0.162 A 
ATOM     13  C   UNL     1       3.881   2.823  25.153  0.00  0.00    +0.050 A 
ATOM     14  C   UNL     1       5.061   2.144  24.842  0.00  0.00    +0.015 A 
ATOM     15  C   UNL     1       5.673   2.220  23.570  0.00  0.00    +0.025 A 
ATOM     16  C   UNL     1       5.052   3.023  22.602  0.00  0.00    +0.061 A 
ATOM     17  C   UNL     1       3.835   3.689  22.904  0.00  0.00    +0.162 A 
BRANCH  17  18
ATOM     18  O   UNL     1       3.137   4.451  21.995  0.00  0.00    -0.491 OA
ATOM     19  C   UNL     1       2.401   3.735  21.012  0.00  0.00    +0.277 C 
ENDBRANCH  17  18
BRANCH  12  21
ATOM     20  C   UNL     1       0.933   3.392  24.653  0.00  0.00    +0.277 C 
ATOM     21  O   UNL     1       2.058   4.239  24.414  0.00  0.00    -0.491 OA
ENDBRANCH  12  21
ENDBRANCH   1  15
BRANCH   5  22
ATOM     22  O   UNL     1      10.192  -2.614  23.062  0.00  0.00    -0.506 OA
ATOM     23  H   UNL     1      10.339  -3.112  22.226  0.00  0.00    +0.292 HD
ENDBRANCH   5  22
BRANCH  11  24
ATOM     24  O   UNL     1       8.686   2.623  23.197  0.00  0.00    -0.453 OA
BRANCH  24  25
ATOM     25  C   UNL     1       9.194   3.258  24.414  0.00  0.00    +0.340 C 
ATOM     26  O   UNL     1       8.238   4.130  25.038  0.00  0.00    -0.331 OA
ATOM     27  C   UNL     1       7.746   5.144  24.149  0.00  0.00    +0.179 C 
ATOM     28  C   UNL     1       8.871   6.048  23.579  0.00  0.00    +0.177 C 
ATOM     29  C   UNL     1      10.120   5.249  23.134  0.00  0.00    +0.180 C 
ATOM     30  C   UNL     1      10.460   4.086  24.088  0.00  0.00    +0.214 C 
BRANCH  30  31
ATOM     31  O   UNL     1      11.473   3.241  23.518  0.00  0.00    -0.383 OA
ATOM     32  H   UNL     1      11.486   2.413  24.031  0.00  0.00    +0.210 HD
ENDBRANCH  30  31
BRANCH  29  33
ATOM     33  O   UNL     1      11.238   6.135  22.999  0.00  0.00    -0.386 OA
ATOM     34  H   UNL     1      11.691   5.881  22.167  0.00  0.00    +0.210 HD
ENDBRANCH  29  33
BRANCH  28  35
ATOM     35  O   UNL     1       9.334   7.106  24.438  0.00  0.00    -0.386 OA
ATOM     36  H   UNL     1       9.746   6.755  25.243  0.00  0.00    +0.210 HD
ENDBRANCH  28  35
BRANCH  27  37
ATOM     37  C   UNL     1       6.612   5.935  24.839  0.00  0.00    +0.190 C 
BRANCH  37  38
ATOM     38  O   UNL     1       7.003   6.494  26.093  0.00  0.00    -0.392 OA
ATOM     39  H   UNL     1       6.243   6.466  26.696  0.00  0.00    +0.210 HD
ENDBRANCH  37  38
ENDBRANCH  27  37
ENDBRANCH  24  25
ENDBRANCH  11  24
BRANCH   7  40
ATOM     40  O   UNL     1       5.952  -4.715  23.897  0.00  0.00    -0.461 OA
BRANCH  40  41
ATOM     41  C   UNL     1       4.804  -4.502  24.749  0.00  0.00    +0.339 C 
ATOM     42  O   UNL     1       5.087  -4.784  26.122  0.00  0.00    -0.331 OA
ATOM     43  C   UNL     1       5.318  -6.174  26.427  0.00  0.00    +0.179 C 
ATOM     44  C   UNL     1       4.178  -7.107  25.952  0.00  0.00    +0.177 C 
ATOM     45  C   UNL     1       3.881  -6.864  24.472  0.00  0.00    +0.180 C 
ATOM     46  C   UNL     1       3.615  -5.364  24.248  0.00  0.00    +0.214 C 
BRANCH  46  47
ATOM     47  O   UNL     1       3.280  -5.139  22.875  0.00  0.00    -0.383 OA
ATOM     48  H   UNL     1       2.931  -5.962  22.499  0.00  0.00    +0.210 HD
ENDBRANCH  46  47
BRANCH  45  49
ATOM     49  O   UNL     1       4.954  -7.381  23.678  0.00  0.00    -0.386 OA
ATOM     50  H   UNL     1       5.502  -7.968  24.231  0.00  0.00    +0.210 HD
ENDBRANCH  45  49
BRANCH  44  51
ATOM     51  O   UNL     1       2.987  -6.890  26.715  0.00  0.00    -0.386 OA
ATOM     52  H   UNL     1       3.203  -6.278  27.440  0.00  0.00    +0.210 HD
ENDBRANCH  44  51
BRANCH  43  53
ATOM     53  C   UNL     1       5.511  -6.306  27.950  0.00  0.00    +0.190 C 
BRANCH  53  54
ATOM     54  O   UNL     1       5.347  -7.646  28.411  0.00  0.00    -0.392 OA
ATOM     55  H   UNL     1       4.560  -7.683  28.977  0.00  0.00    +0.210 HD
ENDBRANCH  53  54
ENDBRANCH  43  53
ENDBRANCH  40  41
ENDBRANCH   7  40
TORSDOF 18
ENDMDL
MODEL 2
REMARK VINA RESULT:      -6.5      1.415      2.142
REMARK  Name = 
REMARK  20 active torsions:
REMARK  status: ('A' for Active; 'I' for Inactive)
REMARK    1  A    between atoms: C_1  and  O_2
REMARK    2  A    between atoms: O_2  and  C_3
REMARK    3  A    between atoms: C_4  and  O_50
REMARK    4  A    between atoms: C_6  and  C_9
REMARK    5  A    between atoms: C_10  and  O_36
REMARK    6  A    between atoms: C_14  and  O_35
REMARK    7  A    between atoms: C_16  and  O_20
REMARK    8  A    between atoms: O_20  and  C_21
REMARK    9  A    between atoms: C_23  and  O_34
REMARK   10  A    between atoms: C_24  and  O_33
REMARK   11  A    between atoms: C_26  and  O_32
REMARK   12  A    between atoms: C_28  and  C_30
REMARK   13  A    between atoms: C_30  and  O_31
REMARK   14  A    between atoms: O_36  and  C_37
REMARK   15  A    between atoms: C_39  and  O_49
REMARK   16  A    between atoms: C_40  and  O_48
REMARK   17  A    between atoms: C_41  and  O_47
REMARK   18  A    between atoms: C_43  and  C_45
REMARK   19  A    between atoms: C_45  and  O_46
REMARK   20  A    between atoms: O_50  and  C_51
REMARK                            x       y       z     vdW  Elec       q    Type
REMARK                         _______ _______ _______ _____ _____    ______ ____
ROOT
ATOM      1  C   UNL     1       6.296   1.283  24.163  0.00  0.00    +0.181 A 
ATOM      2  O   UNL     1       5.711   0.016  24.161  0.00  0.00    -0.451 OA
ATOM      3  C   UNL     1       6.386  -1.073  23.722  0.00  0.00    +0.147 A 
ATOM      4  C   UNL     1       7.592  -0.975  23.063  0.00  0.00    +0.109 A 
ATOM      5  C   UNL     1       8.165  -2.147  22.557  0.00  0.00    +0.135 A 
ATOM      6  C   UNL     1       7.556  -3.400  22.752  0.00  0.00    +0.092 A 
ATOM      7  C   UNL     1       6.380  -3.495  23.495  0.00  0.00    +0.131 A 
ATOM      8  C   UNL     1       8.202   0.367  22.940  0.00  0.00    +0.238 A 
ATOM      9  O   UNL     1       9.267   0.435  22.336  0.00  0.00    -0.283 OA
ATOM     10  C   UNL     1       5.779  -2.320  23.958  0.00  0.00    +0.093 A 
ATOM     11  C   UNL     1       7.502   1.555  23.587  0.00  0.00    +0.214 A 
ENDROOT
BRANCH   1  15
ATOM     12  C   UNL     1       3.969   4.325  26.200  0.00  0.00    +0.162 A 
ATOM     13  C   UNL     1       3.981   4.183  24.819  0.00  0.00    +0.050 A 
ATOM     14  C   UNL     1       4.670   3.122  24.230  0.00  0.00    +0.015 A 
ATOM     15  C   UNL     1       5.386   2.164  24.983  0.00  0.00    +0.025 A 
ATOM     16  C   UNL     1       5.381   2.306  26.379  0.00  0.00    +0.061 A 
ATOM     17  C   UNL     1       4.709   3.402  26.980  0.00  0.00    +0.162 A 
BRANCH  17  18
ATOM     18  O   UNL     1       4.701   3.641  28.335  0.00  0.00    -0.491 OA
ATOM     19  C   UNL     1       5.974   3.776  28.955  0.00  0.00    +0.277 C 
ENDBRANCH  17  18
BRANCH  12  21
ATOM     20  C   UNL     1       3.543   6.674  26.211  0.00  0.00    +0.277 C 
ATOM     21  O   UNL     1       3.390   5.397  26.832  0.00  0.00    -0.491 OA
ENDBRANCH  12  21
ENDBRANCH   1  15
BRANCH   5  22
ATOM     22  O   UNL     1       9.339  -2.151  21.852  0.00  0.00    -0.506 OA
ATOM     23  H   UNL     1       9.160  -2.498  20.949  0.00  0.00    +0.292 HD
ENDBRANCH   5  22
BRANCH  11  24
ATOM     24  O   UNL     1       8.035   2.843  23.605  0.00  0.00    -0.453 OA
BRANCH  24  25
ATOM     25  C   UNL     1       9.049   3.237  24.586  0.00  0.00    +0.340 C 
ATOM     26  O   UNL     1       8.532   4.080  25.626  0.00  0.00    -0.331 OA
ATOM     27  C   UNL     1       7.887   5.258  25.119  0.00  0.00    +0.179 C 
ATOM     28  C   UNL     1       8.827   6.139  24.254  0.00  0.00    +0.177 C 
ATOM     29  C   UNL     1       9.690   5.314  23.269  0.00  0.00    +0.180 C 
ATOM     30  C   UNL     1      10.200   3.993  23.879  0.00  0.00    +0.214 C 
BRANCH  30  31
ATOM     31  O   UNL     1      10.794   3.161  22.868  0.00  0.00    -0.383 OA
ATOM     32  H   UNL     1      10.439   3.448  22.007  0.00  0.00    +0.210 HD
ENDBRANCH  30  31
BRANCH  29  33
ATOM     33  O   UNL     1      10.786   6.110  22.802  0.00  0.00    -0.386 OA
ATOM     34  H   UNL     1      10.775   6.933  23.336  0.00  0.00    +0.210 HD
ENDBRANCH  29  33
BRANCH  28  35
ATOM     35  O   UNL     1       9.723   7.007  24.970  0.00  0.00    -0.386 OA
ATOM     36  H   UNL     1      10.517   7.208  24.450  0.00  0.00    +0.210 HD
ENDBRANCH  28  35
BRANCH  27  37
ATOM     37  C   UNL     1       7.220   6.028  26.280  0.00  0.00    +0.190 C 
BRANCH  37  38
ATOM     38  O   UNL     1       8.092   6.225  27.394  0.00  0.00    -0.392 OA
ATOM     39  H   UNL     1       7.941   7.114  27.753  0.00  0.00    +0.210 HD
ENDBRANCH  37  38
ENDBRANCH  27  37
ENDBRANCH  24  25
ENDBRANCH  11  24
BRANCH   7  40
ATOM     40  O   UNL     1       5.718  -4.668  23.760  0.00  0.00    -0.461 OA
BRANCH  40  41
ATOM     41  C   UNL     1       4.608  -4.567  24.682  0.00  0.00    +0.339 C 
ATOM     42  O   UNL     1       4.999  -4.825  26.032  0.00  0.00    -0.331 OA
ATOM     43  C   UNL     1       5.378  -6.188  26.311  0.00  0.00    +0.179 C 
ATOM     44  C   UNL     1       4.304  -7.222  25.897  0.00  0.00    +0.177 C 
ATOM     45  C   UNL     1       3.896  -7.004  24.440  0.00  0.00    +0.180 C 
ATOM     46  C   UNL     1       3.478  -5.535  24.245  0.00  0.00    +0.214 C 
BRANCH  46  47
ATOM     47  O   UNL     1       3.040  -5.339  22.897  0.00  0.00    -0.383 OA
ATOM     48  H   UNL     1       3.044  -4.390  22.700  0.00  0.00    +0.210 HD
ENDBRANCH  46  47
BRANCH  45  49
ATOM     49  O   UNL     1       4.963  -7.416  23.579  0.00  0.00    -0.386 OA
ATOM     50  H   UNL     1       4.713  -7.233  22.654  0.00  0.00    +0.210 HD
ENDBRANCH  45  49
BRANCH  44  51
ATOM     51  O   UNL     1       3.146  -7.121  26.732  0.00  0.00    -0.386 OA
ATOM     52  H   UNL     1       2.496  -6.558  26.276  0.00  0.00    +0.210 HD
ENDBRANCH  44  51
BRANCH  43  53
ATOM     53  C   UNL     1       5.674  -6.305  27.819  0.00  0.00    +0.190 C 
BRANCH  53  54
ATOM     54  O   UNL     1       5.478  -7.628  28.316  0.00  0.00    -0.392 OA
ATOM     55  H   UNL     1       4.578  -7.691  28.676  0.00  0.00    +0.210 HD
ENDBRANCH  53  54
ENDBRANCH  43  53
ENDBRANCH  40  41
ENDBRANCH   7  40
TORSDOF 18
ENDMDL
MODEL 3
REMARK VINA RESULT:      -6.4      2.897      9.793
REMARK  Name = 
REMARK  20 active torsions:
REMARK  status: ('A' for Active; 'I' for Inactive)
REMARK    1  A    between atoms: C_1  and  O_2
REMARK    2  A    between atoms: O_2  and  C_3
REMARK    3  A    between atoms: C_4  and  O_50
REMARK    4  A    between atoms: C_6  and  C_9
REMARK    5  A    between atoms: C_10  and  O_36
REMARK    6  A    between atoms: C_14  and  O_35
REMARK    7  A    between atoms: C_16  and  O_20
REMARK    8  A    between atoms: O_20  and  C_21
REMARK    9  A    between atoms: C_23  and  O_34
REMARK   10  A    between atoms: C_24  and  O_33
REMARK   11  A    between atoms: C_26  and  O_32
REMARK   12  A    between atoms: C_28  and  C_30
REMARK   13  A    between atoms: C_30  and  O_31
REMARK   14  A    between atoms: O_36  and  C_37
REMARK   15  A    between atoms: C_39  and  O_49
REMARK   16  A    between atoms: C_40  and  O_48
REMARK   17  A    between atoms: C_41  and  O_47
REMARK   18  A    between atoms: C_43  and  C_45
REMARK   19  A    between atoms: C_45  and  O_46
REMARK   20  A    between atoms: O_50  and  C_51
REMARK                            x       y       z     vdW  Elec       q    Type
REMARK                         _______ _______ _______ _____ _____    ______ ____
ROOT
ATOM      1  C   UNL     1       6.473  -2.504  25.557  0.00  0.00    +0.181 A 
ATOM      2  O   UNL     1       7.283  -1.376  25.688  0.00  0.00    -0.451 OA
ATOM      3  C   UNL     1       8.140  -1.003  24.707  0.00  0.00    +0.147 A 
ATOM      4  C   UNL     1       8.420  -1.813  23.628  0.00  0.00    +0.109 A 
ATOM      5  C   UNL     1       9.394  -1.387  22.718  0.00  0.00    +0.135 A 
ATOM      6  C   UNL     1      10.040  -0.146  22.869  0.00  0.00    +0.092 A 
ATOM      7  C   UNL     1       9.684   0.702  23.916  0.00  0.00    +0.131 A 
ATOM      8  C   UNL     1       7.666  -3.080  23.504  0.00  0.00    +0.238 A 
ATOM      9  O   UNL     1       7.942  -3.794  22.546  0.00  0.00    -0.283 OA
ATOM     10  C   UNL     1       8.748   0.256  24.855  0.00  0.00    +0.093 A 
ATOM     11  C   UNL     1       6.589  -3.398  24.533  0.00  0.00    +0.214 A 
ENDROOT
BRANCH   1  15
ATOM     12  C   UNL     1       3.946  -1.789  29.009  0.00  0.00    +0.162 A 
ATOM     13  C   UNL     1       4.237  -0.807  28.072  0.00  0.00    +0.050 A 
ATOM     14  C   UNL     1       4.974  -1.127  26.929  0.00  0.00    +0.015 A 
ATOM     15  C   UNL     1       5.464  -2.428  26.675  0.00  0.00    +0.025 A 
ATOM     16  C   UNL     1       5.176  -3.422  27.623  0.00  0.00    +0.061 A 
ATOM     17  C   UNL     1       4.455  -3.094  28.801  0.00  0.00    +0.162 A 
BRANCH  17  18
ATOM     18  O   UNL     1       4.179  -3.998  29.801  0.00  0.00    -0.491 OA
ATOM     19  C   UNL     1       3.288  -5.054  29.462  0.00  0.00    +0.277 C 
ENDBRANCH  17  18
BRANCH  12  21
ATOM     20  C   UNL     1       2.056  -0.836  30.115  0.00  0.00    +0.277 C 
ATOM     21  O   UNL     1       3.309  -1.518  30.194  0.00  0.00    -0.491 OA
ENDBRANCH  12  21
ENDBRANCH   1  15
BRANCH   5  22
ATOM     22  O   UNL     1       9.774  -2.138  21.638  0.00  0.00    -0.506 OA
ATOM     23  H   UNL     1       9.060  -2.095  20.962  0.00  0.00    +0.292 HD
ENDBRANCH   5  22
BRANCH  11  24
ATOM     24  O   UNL     1       5.764  -4.520  24.458  0.00  0.00    -0.453 OA
BRANCH  24  25
ATOM     25  C   UNL     1       4.671  -4.599  23.486  0.00  0.00    +0.340 C 
ATOM     26  O   UNL     1       3.462  -3.973  23.943  0.00  0.00    -0.331 OA
ATOM     27  C   UNL     1       3.009  -4.490  25.203  0.00  0.00    +0.179 C 
ATOM     28  C   UNL     1       2.737  -6.018  25.170  0.00  0.00    +0.177 C 
ATOM     29  C   UNL     1       3.838  -6.810  24.423  0.00  0.00    +0.180 C 
ATOM     30  C   UNL     1       4.356  -6.081  23.167  0.00  0.00    +0.214 C 
BRANCH  30  31
ATOM     31  O   UNL     1       5.525  -6.736  22.645  0.00  0.00    -0.383 OA
ATOM     32  H   UNL     1       5.463  -6.713  21.673  0.00  0.00    +0.210 HD
ENDBRANCH  30  31
BRANCH  29  33
ATOM     33  O   UNL     1       3.351  -8.114  24.085  0.00  0.00    -0.386 OA
ATOM     34  H   UNL     1       3.262  -8.603  24.931  0.00  0.00    +0.210 HD
ENDBRANCH  29  33
BRANCH  28  35
ATOM     35  O   UNL     1       1.475  -6.428  24.612  0.00  0.00    -0.386 OA
ATOM     36  H   UNL     1       1.261  -7.343  24.850  0.00  0.00    +0.210 HD
ENDBRANCH  28  35
BRANCH  27  37
ATOM     37  C   UNL     1       1.804  -3.663  25.702  0.00  0.00    +0.190 C 
BRANCH  37  38
ATOM     38  O   UNL     1       0.676  -3.735  24.829  0.00  0.00    -0.392 OA
ATOM     39  H   UNL     1       0.167  -4.534  25.043  0.00  0.00    +0.210 HD
ENDBRANCH  37  38
ENDBRANCH  27  37
ENDBRANCH  24  25
ENDBRANCH  11  24
BRANCH   7  40
ATOM     40  O   UNL     1      10.237   1.938  24.141  0.00  0.00    -0.461 OA
BRANCH  40  41
ATOM     41  C   UNL     1      10.244   2.837  23.008  0.00  0.00    +0.339 C 
ATOM     42  O   UNL     1      11.330   3.765  23.059  0.00  0.00    -0.331 OA
ATOM     43  C   UNL     1      11.244   4.752  24.107  0.00  0.00    +0.179 C 
ATOM     44  C   UNL     1       9.913   5.541  24.102  0.00  0.00    +0.177 C 
ATOM     45  C   UNL     1       8.728   4.576  24.095  0.00  0.00    +0.180 C 
ATOM     46  C   UNL     1       8.888   3.585  22.927  0.00  0.00    +0.214 C 
BRANCH  46  47
ATOM     47  O   UNL     1       7.751   2.716  22.881  0.00  0.00    -0.383 OA
ATOM     48  H   UNL     1       7.666   2.360  21.983  0.00  0.00    +0.210 HD
ENDBRANCH  46  47
BRANCH  45  49
ATOM     49  O   UNL     1       8.620   3.943  25.374  0.00  0.00    -0.386 OA
ATOM     50  H   UNL     1       7.762   3.484  25.430  0.00  0.00    +0.210 HD
ENDBRANCH  45  49
BRANCH  44  51
ATOM     51  O   UNL     1       9.831   6.399  22.960  0.00  0.00    -0.386 OA
ATOM     52  H   UNL     1       8.960   6.264  22.546  0.00  0.00    +0.210 HD
ENDBRANCH  44  51
BRANCH  43  53
ATOM     53  C   UNL     1      12.435   5.718  23.956  0.00  0.00    +0.190 C 
BRANCH  53  54
ATOM     54  O   UNL     1      13.615   5.066  23.487  0.00  0.00    -0.392 OA
ATOM     55  H   UNL     1      13.611   4.152  23.812  0.00  0.00    +0.210 HD
ENDBRANCH  53  54
ENDBRANCH  43  53
ENDBRANCH  40  41
ENDBRANCH   7  40
TORSDOF 18
ENDMDL
MODEL 4
REMARK VINA RESULT:      -6.3      1.374      1.966
REMARK  Name = 
REMARK  20 active torsions:
REMARK  status: ('A' for Active; 'I' for Inactive)
REMARK    1  A    between atoms: C_1  and  O_2
REMARK    2  A    between atoms: O_2  and  C_3
REMARK    3  A    between atoms: C_4  and  O_50
REMARK    4  A    between atoms: C_6  and  C_9
REMARK    5  A    between atoms: C_10  and  O_36
REMARK    6  A    between atoms: C_14  and  O_35
REMARK    7  A    between atoms: C_16  and  O_20
REMARK    8  A    between atoms: O_20  and  C_21
REMARK    9  A    between atoms: C_23  and  O_34
REMARK   10  A    between atoms: C_24  and  O_33
REMARK   11  A    between atoms: C_26  and  O_32
REMARK   12  A    between atoms: C_28  and  C_30
REMARK   13  A    between atoms: C_30  and  O_31
REMARK   14  A    between atoms: O_36  and  C_37
REMARK   15  A    between atoms: C_39  and  O_49
REMARK   16  A    between atoms: C_40  and  O_48
REMARK   17  A    between atoms: C_41  and  O_47
REMARK   18  A    between atoms: C_43  and  C_45
REMARK   19  A    between atoms: C_45  and  O_46
REMARK   20  A    between atoms: O_50  and  C_51
REMARK                            x       y       z     vdW  Elec       q    Type
REMARK                         _______ _______ _______ _____ _____    ______ ____
ROOT
ATOM      1  C   UNL     1       6.975   0.834  24.552  0.00  0.00    +0.181 A 
ATOM      2  O   UNL     1       6.293  -0.380  24.472  0.00  0.00    -0.451 OA
ATOM      3  C   UNL     1       6.955  -1.560  24.409  0.00  0.00    +0.147 A 
ATOM      4  C   UNL     1       8.316  -1.630  24.210  0.00  0.00    +0.109 A 
ATOM      5  C   UNL     1       8.897  -2.894  24.058  0.00  0.00    +0.135 A 
ATOM      6  C   UNL     1       8.127  -4.067  24.151  0.00  0.00    +0.092 A 
ATOM      7  C   UNL     1       6.766  -3.985  24.440  0.00  0.00    +0.131 A 
ATOM      8  C   UNL     1       9.073  -0.359  24.174  0.00  0.00    +0.238 A 
ATOM      9  O   UNL     1      10.281  -0.442  23.979  0.00  0.00    -0.283 OA
ATOM     10  C   UNL     1       6.173  -2.723  24.541  0.00  0.00    +0.093 A 
ATOM     11  C   UNL     1       8.327   0.948  24.411  0.00  0.00    +0.214 A 
ENDROOT
BRANCH   1  15
ATOM     12  C   UNL     1       3.814   3.397  26.053  0.00  0.00    +0.162 A 
ATOM     13  C   UNL     1       4.858   2.945  26.848  0.00  0.00    +0.050 A 
ATOM     14  C   UNL     1       5.899   2.205  26.282  0.00  0.00    +0.015 A 
ATOM     15  C   UNL     1       5.941   1.873  24.908  0.00  0.00    +0.025 A 
ATOM     16  C   UNL     1       4.884   2.324  24.103  0.00  0.00    +0.061 A 
ATOM     17  C   UNL     1       3.809   3.048  24.680  0.00  0.00    +0.162 A 
BRANCH  17  18
ATOM     18  O   UNL     1       2.712   3.479  23.970  0.00  0.00    -0.491 OA
ATOM     19  C   UNL     1       2.795   3.358  22.556  0.00  0.00    +0.277 C 
ENDBRANCH  17  18
BRANCH  12  21
ATOM     20  C   UNL     1       1.866   3.293  27.431  0.00  0.00    +0.277 C 
ATOM     21  O   UNL     1       2.718   4.045  26.566  0.00  0.00    -0.491 OA
ENDBRANCH  12  21
ENDBRANCH   1  15
BRANCH   5  22
ATOM     22  O   UNL     1      10.234  -3.068  23.814  0.00  0.00    -0.506 OA
ATOM     23  H   UNL     1      10.740  -2.682  24.564  0.00  0.00    +0.292 HD
ENDBRANCH   5  22
BRANCH  11  24
ATOM     24  O   UNL     1       8.958   2.189  24.486  0.00  0.00    -0.453 OA
BRANCH  24  25
ATOM     25  C   UNL     1       9.614   2.783  23.319  0.00  0.00    +0.340 C 
ATOM     26  O   UNL     1      10.353   3.974  23.631  0.00  0.00    -0.331 OA
ATOM     27  C   UNL     1       9.551   4.973  24.279  0.00  0.00    +0.179 C 
ATOM     28  C   UNL     1       8.329   5.414  23.430  0.00  0.00    +0.177 C 
ATOM     29  C   UNL     1       7.594   4.224  22.767  0.00  0.00    +0.180 C 
ATOM     30  C   UNL     1       8.558   3.138  22.245  0.00  0.00    +0.214 C 
BRANCH  30  31
ATOM     31  O   UNL     1       7.832   1.961  21.853  0.00  0.00    -0.383 OA
ATOM     32  H   UNL     1       7.444   2.135  20.976  0.00  0.00    +0.210 HD
ENDBRANCH  30  31
BRANCH  29  33
ATOM     33  O   UNL     1       6.754   4.703  21.710  0.00  0.00    -0.386 OA
ATOM     34  H   UNL     1       6.286   5.489  22.066  0.00  0.00    +0.210 HD
ENDBRANCH  29  33
BRANCH  28  35
ATOM     35  O   UNL     1       8.590   6.376  22.392  0.00  0.00    -0.386 OA
ATOM     36  H   UNL     1       8.360   7.275  22.675  0.00  0.00    +0.210 HD
ENDBRANCH  28  35
BRANCH  27  37
ATOM     37  C   UNL     1      10.446   6.150  24.725  0.00  0.00    +0.190 C 
BRANCH  37  38
ATOM     38  O   UNL     1      11.751   6.112  24.145  0.00  0.00    -0.392 OA
ATOM     39  H   UNL     1      11.666   5.895  23.203  0.00  0.00    +0.210 HD
ENDBRANCH  37  38
ENDBRANCH  27  37
ENDBRANCH  24  25
ENDBRANCH  11  24
BRANCH   7  40
ATOM     40  O   UNL     1       5.930  -5.066  24.572  0.00  0.00    -0.461 OA
BRANCH  40  41
ATOM     41  C   UNL     1       4.649  -4.798  25.185  0.00  0.00    +0.339 C 
ATOM     42  O   UNL     1       4.562  -5.322  26.512  0.00  0.00    -0.331 OA
ATOM     43  C   UNL     1       4.539  -6.761  26.603  0.00  0.00    +0.179 C 
ATOM     44  C   UNL     1       3.436  -7.414  25.736  0.00  0.00    +0.177 C 
ATOM     45  C   UNL     1       3.529  -6.910  24.296  0.00  0.00    +0.180 C 
ATOM     46  C   UNL     1       3.514  -5.370  24.296  0.00  0.00    +0.214 C 
BRANCH  46  47
ATOM     47  O   UNL     1       3.544  -4.894  22.947  0.00  0.00    -0.383 OA
ATOM     48  H   UNL     1       2.693  -5.091  22.526  0.00  0.00    +0.210 HD
ENDBRANCH  46  47
BRANCH  45  49
ATOM     49  O   UNL     1       4.686  -7.473  23.668  0.00  0.00    -0.386 OA
ATOM     50  H   UNL     1       5.208  -6.755  23.264  0.00  0.00    +0.210 HD
ENDBRANCH  45  49
BRANCH  44  51
ATOM     51  O   UNL     1       2.135  -7.121  26.255  0.00  0.00    -0.386 OA
ATOM     52  H   UNL     1       1.508  -7.760  25.871  0.00  0.00    +0.210 HD
ENDBRANCH  44  51
BRANCH  43  53
ATOM     53  C   UNL     1       4.348  -7.146  28.083  0.00  0.00    +0.190 C 
BRANCH  53  54
ATOM     54  O   UNL     1       5.553  -7.610  28.690  0.00  0.00    -0.392 OA
ATOM     55  H   UNL     1       5.323  -8.094  29.499  0.00  0.00    +0.210 HD
ENDBRANCH  53  54
ENDBRANCH  43  53
ENDBRANCH  40  41
ENDBRANCH   7  40
TORSDOF 18
ENDMDL
MODEL 5
REMARK VINA RESULT:      -6.3      2.531      9.567
REMARK  Name = 
REMARK  20 active torsions:
REMARK  status: ('A' for Active; 'I' for Inactive)
REMARK    1  A    between atoms: C_1  and  O_2
REMARK    2  A    between atoms: O_2  and  C_3
REMARK    3  A    between atoms: C_4  and  O_50
REMARK    4  A    between atoms: C_6  and  C_9
REMARK    5  A    between atoms: C_10  and  O_36
REMARK    6  A    between atoms: C_14  and  O_35
REMARK    7  A    between atoms: C_16  and  O_20
REMARK    8  A    between atoms: O_20  and  C_21
REMARK    9  A    between atoms: C_23  and  O_34
REMARK   10  A    between atoms: C_24  and  O_33
REMARK   11  A    between atoms: C_26  and  O_32
REMARK   12  A    between atoms: C_28  and  C_30
REMARK   13  A    between atoms: C_30  and  O_31
REMARK   14  A    between atoms: O_36  and  C_37
REMARK   15  A    between atoms: C_39  and  O_49
REMARK   16  A    between atoms: C_40  and  O_48
REMARK   17  A    between atoms: C_41  and  O_47
REMARK   18  A    between atoms: C_43  and  C_45
REMARK   19  A    between atoms: C_45  and  O_46
REMARK   20  A    between atoms: O_50  and  C_51
REMARK                            x       y       z     vdW  Elec       q    Type
REMARK                         _______ _______ _______ _____ _____    ______ ____
ROOT
ATOM      1  C   UNL     1       6.467  -1.222  25.182  0.00  0.00    +0.181 A 
ATOM      2  O   UNL     1       7.009   0.060  25.089  0.00  0.00    -0.451 OA
ATOM      3  C   UNL     1       7.814   0.414  24.059  0.00  0.00    +0.147 A 
ATOM      4  C   UNL     1       8.314  -0.507  23.165  0.00  0.00    +0.109 A 
ATOM      5  C   UNL     1       9.218  -0.062  22.194  0.00  0.00    +0.135 A 
ATOM      6  C   UNL     1       9.576   1.295  22.098  0.00  0.00    +0.092 A 
ATOM      7  C   UNL     1       8.996   2.230  22.953  0.00  0.00    +0.131 A 
ATOM      8  C   UNL     1       7.854  -1.908  23.291  0.00  0.00    +0.238 A 
ATOM      9  O   UNL     1       8.323  -2.716  22.496  0.00  0.00    -0.283 OA
ATOM     10  C   UNL     1       8.132   1.781  23.957  0.00  0.00    +0.093 A 
ATOM     11  C   UNL     1       6.821  -2.249  24.357  0.00  0.00    +0.214 A 
ENDROOT
BRANCH   1  15
ATOM     12  C   UNL     1       3.737  -0.469  28.467  0.00  0.00    +0.162 A 
ATOM     13  C   UNL     1       3.954   0.443  27.444  0.00  0.00    +0.050 A 
ATOM     14  C   UNL     1       4.768   0.101  26.362  0.00  0.00    +0.015 A 
ATOM     15  C   UNL     1       5.410  -1.154  26.256  0.00  0.00    +0.025 A 
ATOM     16  C   UNL     1       5.198  -2.077  27.292  0.00  0.00    +0.061 A 
ATOM     17  C   UNL     1       4.398  -1.721  28.409  0.00  0.00    +0.162 A 
BRANCH  17  18
ATOM     18  O   UNL     1       4.184  -2.548  29.488  0.00  0.00    -0.491 OA
ATOM     19  C   UNL     1       3.487  -3.758  29.220  0.00  0.00    +0.277 C 
ENDBRANCH  17  18
BRANCH  12  21
ATOM     20  C   UNL     1       3.583   0.834  30.463  0.00  0.00    +0.277 C 
ATOM     21  O   UNL     1       3.026  -0.159  29.600  0.00  0.00    -0.491 OA
ENDBRANCH  12  21
ENDBRANCH   1  15
BRANCH   5  22
ATOM     22  O   UNL     1       9.802  -0.906  21.287  0.00  0.00    -0.506 OA
ATOM     23  H   UNL     1       9.091  -1.377  20.796  0.00  0.00    +0.292 HD
ENDBRANCH   5  22
BRANCH  11  24
ATOM     24  O   UNL     1       6.259  -3.517  24.502  0.00  0.00    -0.453 OA
BRANCH  24  25
ATOM     25  C   UNL     1       4.881  -3.792  24.092  0.00  0.00    +0.340 C 
ATOM     26  O   UNL     1       4.151  -4.577  25.048  0.00  0.00    -0.331 OA
ATOM     27  C   UNL     1       4.804  -5.816  25.365  0.00  0.00    +0.179 C 
ATOM     28  C   UNL     1       5.027  -6.719  24.123  0.00  0.00    +0.177 C 
ATOM     29  C   UNL     1       5.539  -5.934  22.891  0.00  0.00    +0.180 C 
ATOM     30  C   UNL     1       4.874  -4.550  22.742  0.00  0.00    +0.214 C 
BRANCH  30  31
ATOM     31  O   UNL     1       5.540  -3.772  21.732  0.00  0.00    -0.383 OA
ATOM     32  H   UNL     1       6.428  -4.154  21.607  0.00  0.00    +0.210 HD
ENDBRANCH  30  31
BRANCH  29  33
ATOM     33  O   UNL     1       5.347  -6.716  21.705  0.00  0.00    -0.386 OA
ATOM     34  H   UNL     1       6.241  -6.993  21.412  0.00  0.00    +0.210 HD
ENDBRANCH  29  33
BRANCH  28  35
ATOM     35  O   UNL     1       3.894  -7.492  23.686  0.00  0.00    -0.386 OA
ATOM     36  H   UNL     1       3.966  -8.418  23.967  0.00  0.00    +0.210 HD
ENDBRANCH  28  35
BRANCH  27  37
ATOM     37  C   UNL     1       4.048  -6.524  26.511  0.00  0.00    +0.190 C 
BRANCH  37  38
ATOM     38  O   UNL     1       4.885  -7.383  27.287  0.00  0.00    -0.392 OA
ATOM     39  H   UNL     1       4.728  -7.204  28.227  0.00  0.00    +0.210 HD
ENDBRANCH  37  38
ENDBRANCH  27  37
ENDBRANCH  24  25
ENDBRANCH  11  24
BRANCH   7  40
ATOM     40  O   UNL     1       9.260   3.577  22.929  0.00  0.00    -0.461 OA
BRANCH  40  41
ATOM     41  C   UNL     1       9.924   4.107  24.099  0.00  0.00    +0.339 C 
ATOM     42  O   UNL     1       9.059   4.159  25.236  0.00  0.00    -0.331 OA
ATOM     43  C   UNL     1       7.989   5.122  25.150  0.00  0.00    +0.179 C 
ATOM     44  C   UNL     1       8.477   6.555  24.829  0.00  0.00    +0.177 C 
ATOM     45  C   UNL     1       9.368   6.543  23.587  0.00  0.00    +0.180 C 
ATOM     46  C   UNL     1      10.496   5.513  23.783  0.00  0.00    +0.214 C 
BRANCH  46  47
ATOM     47  O   UNL     1      11.367   5.539  22.648  0.00  0.00    -0.383 OA
ATOM     48  H   UNL     1      12.127   6.106  22.849  0.00  0.00    +0.210 HD
ENDBRANCH  46  47
BRANCH  45  49
ATOM     49  O   UNL     1       8.566   6.302  22.426  0.00  0.00    -0.386 OA
ATOM     50  H   UNL     1       8.764   6.983  21.757  0.00  0.00    +0.210 HD
ENDBRANCH  45  49
BRANCH  44  51
ATOM     51  O   UNL     1       9.206   7.108  25.929  0.00  0.00    -0.386 OA
ATOM     52  H   UNL     1      10.134   6.825  25.845  0.00  0.00    +0.210 HD
ENDBRANCH  44  51
BRANCH  43  53
ATOM     53  C   UNL     1       7.223   5.110  26.487  0.00  0.00    +0.190 C 
BRANCH  53  54
ATOM     54  O   UNL     1       7.475   3.933  27.254  0.00  0.00    -0.392 OA
ATOM     55  H   UNL     1       6.936   3.210  26.895  0.00  0.00    +0.210 HD
ENDBRANCH  53  54
ENDBRANCH  43  53
ENDBRANCH  40  41
ENDBRANCH   7  40
TORSDOF 18
ENDMDL
MODEL 6
REMARK VINA RESULT:      -6.3      2.485     10.020
REMARK  Name = 
REMARK  20 active torsions:
REMARK  status: ('A' for Active; 'I' for Inactive)
REMARK    1  A    between atoms: C_1  and  O_2
REMARK    2  A    between atoms: O_2  and  C_3
REMARK    3  A    between atoms: C_4  and  O_50
REMARK    4  A    between atoms: C_6  and  C_9
REMARK    5  A    between atoms: C_10  and  O_36
REMARK    6  A    between atoms: C_14  and  O_35
REMARK    7  A    between atoms: C_16  and  O_20
REMARK    8  A    between atoms: O_20  and  C_21
REMARK    9  A    between atoms: C_23  and  O_34
REMARK   10  A    between atoms: C_24  and  O_33
REMARK   11  A    between atoms: C_26  and  O_32
REMARK   12  A    between atoms: C_28  and  C_30
REMARK   13  A    between atoms: C_30  and  O_31
REMARK   14  A    between atoms: O_36  and  C_37
REMARK   15  A    between atoms: C_39  and  O_49
REMARK   16  A    between atoms: C_40  and  O_48
REMARK   17  A    between atoms: C_41  and  O_47
REMARK   18  A    between atoms: C_43  and  C_45
REMARK   19  A    between atoms: C_45  and  O_46
REMARK   20  A    between atoms: O_50  and  C_51
REMARK                            x       y       z     vdW  Elec       q    Type
REMARK                         _______ _______ _______ _____ _____    ______ ____
ROOT
ATOM      1  C   UNL     1       4.509  -2.139  25.945  0.00  0.00    +0.181 A 
ATOM      2  O   UNL     1       4.975  -1.000  25.287  0.00  0.00    -0.451 OA
ATOM      3  C   UNL     1       5.228   0.149  25.958  0.00  0.00    +0.147 A 
ATOM      4  C   UNL     1       4.849   0.334  27.270  0.00  0.00    +0.109 A 
ATOM      5  C   UNL     1       5.063   1.590  27.848  0.00  0.00    +0.135 A 
ATOM      6  C   UNL     1       5.688   2.626  27.131  0.00  0.00    +0.092 A 
ATOM      7  C   UNL     1       6.144   2.399  25.834  0.00  0.00    +0.131 A 
ATOM      8  C   UNL     1       4.245  -0.815  27.981  0.00  0.00    +0.238 A 
ATOM      9  O   UNL     1       3.900  -0.625  29.142  0.00  0.00    -0.283 OA
ATOM     10  C   UNL     1       5.887   1.161  25.236  0.00  0.00    +0.093 A 
ATOM     11  C   UNL     1       4.122  -2.147  27.252  0.00  0.00    +0.214 A 
ENDROOT
BRANCH   1  15
ATOM     12  C   UNL     1       5.054  -4.933  22.671  0.00  0.00    +0.162 A 
ATOM     13  C   UNL     1       6.066  -4.099  23.127  0.00  0.00    +0.050 A 
ATOM     14  C   UNL     1       5.858  -3.294  24.249  0.00  0.00    +0.015 A 
ATOM     15  C   UNL     1       4.636  -3.274  24.959  0.00  0.00    +0.025 A 
ATOM     16  C   UNL     1       3.609  -4.112  24.499  0.00  0.00    +0.061 A 
ATOM     17  C   UNL     1       3.805  -4.907  23.339  0.00  0.00    +0.162 A 
BRANCH  17  18
ATOM     18  O   UNL     1       2.832  -5.713  22.794  0.00  0.00    -0.491 OA
ATOM     19  C   UNL     1       1.489  -5.382  23.122  0.00  0.00    +0.277 C 
ENDBRANCH  17  18
BRANCH  12  21
ATOM     20  C   UNL     1       6.486  -5.978  21.071  0.00  0.00    +0.277 C 
ATOM     21  O   UNL     1       5.165  -5.675  21.522  0.00  0.00    -0.491 OA
ENDBRANCH  12  21
ENDBRANCH   1  15
BRANCH   5  22
ATOM     22  O   UNL     1       4.685   1.887  29.130  0.00  0.00    -0.506 OA
ATOM     23  H   UNL     1       4.891   2.833  29.306  0.00  0.00    +0.292 HD
ENDBRANCH   5  22
BRANCH  11  24
ATOM     24  O   UNL     1       3.649  -3.311  27.858  0.00  0.00    -0.453 OA
BRANCH  24  25
ATOM     25  C   UNL     1       4.417  -3.995  28.901  0.00  0.00    +0.340 C 
ATOM     26  O   UNL     1       5.691  -4.474  28.443  0.00  0.00    -0.331 OA
ATOM     27  C   UNL     1       5.584  -5.333  27.298  0.00  0.00    +0.179 C 
ATOM     28  C   UNL     1       4.703  -6.584  27.559  0.00  0.00    +0.177 C 
ATOM     29  C   UNL     1       3.403  -6.255  28.333  0.00  0.00    +0.180 C 
ATOM     30  C   UNL     1       3.613  -5.203  29.440  0.00  0.00    +0.214 C 
BRANCH  30  31
ATOM     31  O   UNL     1       2.351  -4.762  29.970  0.00  0.00    -0.383 OA
ATOM     32  H   UNL     1       2.159  -5.303  30.757  0.00  0.00    +0.210 HD
ENDBRANCH  30  31
BRANCH  29  33
ATOM     33  O   UNL     1       2.848  -7.458  28.879  0.00  0.00    -0.386 OA
ATOM     34  H   UNL     1       2.460  -7.212  29.746  0.00  0.00    +0.210 HD
ENDBRANCH  29  33
BRANCH  28  35
ATOM     35  O   UNL     1       5.337  -7.676  28.250  0.00  0.00    -0.386 OA
ATOM     36  H   UNL     1       5.934  -7.359  28.945  0.00  0.00    +0.210 HD
ENDBRANCH  28  35
BRANCH  27  37
ATOM     37  C   UNL     1       6.995  -5.676  26.771  0.00  0.00    +0.190 C 
BRANCH  37  38
ATOM     38  O   UNL     1       7.897  -6.074  27.804  0.00  0.00    -0.392 OA
ATOM     39  H   UNL     1       7.969  -7.042  27.797  0.00  0.00    +0.210 HD
ENDBRANCH  37  38
ENDBRANCH  27  37
ENDBRANCH  24  25
ENDBRANCH  11  24
BRANCH   7  40
ATOM     40  O   UNL     1       6.783   3.333  25.057  0.00  0.00    -0.461 OA
BRANCH  40  41
ATOM     41  C   UNL     1       7.266   2.861  23.778  0.00  0.00    +0.339 C 
ATOM     42  O   UNL     1       8.260   1.844  23.916  0.00  0.00    -0.331 OA
ATOM     43  C   UNL     1       9.519   2.286  24.463  0.00  0.00    +0.179 C 
ATOM     44  C   UNL     1      10.134   3.484  23.701  0.00  0.00    +0.177 C 
ATOM     45  C   UNL     1       9.110   4.612  23.577  0.00  0.00    +0.180 C 
ATOM     46  C   UNL     1       7.816   4.055  22.955  0.00  0.00    +0.214 C 
BRANCH  46  47
ATOM     47  O   UNL     1       6.874   5.119  22.783  0.00  0.00    -0.383 OA
ATOM     48  H   UNL     1       7.351   5.921  22.521  0.00  0.00    +0.210 HD
ENDBRANCH  46  47
BRANCH  45  49
ATOM     49  O   UNL     1       8.915   5.223  24.857  0.00  0.00    -0.386 OA
ATOM     50  H   UNL     1       9.715   5.087  25.398  0.00  0.00    +0.210 HD
ENDBRANCH  45  49
BRANCH  44  51
ATOM     51  O   UNL     1      10.567   3.093  22.394  0.00  0.00    -0.386 OA
ATOM     52  H   UNL     1      11.450   2.692  22.479  0.00  0.00    +0.210 HD
ENDBRANCH  44  51
BRANCH  43  53
ATOM     53  C   UNL     1      10.494   1.093  24.451  0.00  0.00    +0.190 C 
BRANCH  53  54
ATOM     54  O   UNL     1      10.304   0.239  23.323  0.00  0.00    -0.392 OA
ATOM     55  H   UNL     1      11.170  -0.093  23.039  0.00  0.00    +0.210 HD
ENDBRANCH  53  54
ENDBRANCH  43  53
ENDBRANCH  40  41
ENDBRANCH   7  40
TORSDOF 18
ENDMDL
MODEL 7
REMARK VINA RESULT:      -6.0      2.097      3.729
REMARK  Name = 
REMARK  20 active torsions:
REMARK  status: ('A' for Active; 'I' for Inactive)
REMARK    1  A    between atoms: C_1  and  O_2
REMARK    2  A    between atoms: O_2  and  C_3
REMARK    3  A    between atoms: C_4  and  O_50
REMARK    4  A    between atoms: C_6  and  C_9
REMARK    5  A    between atoms: C_10  and  O_36
REMARK    6  A    between atoms: C_14  and  O_35
REMARK    7  A    between atoms: C_16  and  O_20
REMARK    8  A    between atoms: O_20  and  C_21
REMARK    9  A    between atoms: C_23  and  O_34
REMARK   10  A    between atoms: C_24  and  O_33
REMARK   11  A    between atoms: C_26  and  O_32
REMARK   12  A    between atoms: C_28  and  C_30
REMARK   13  A    between atoms: C_30  and  O_31
REMARK   14  A    between atoms: O_36  and  C_37
REMARK   15  A    between atoms: C_39  and  O_49
REMARK   16  A    between atoms: C_40  and  O_48
REMARK   17  A    between atoms: C_41  and  O_47
REMARK   18  A    between atoms: C_43  and  C_45
REMARK   19  A    between atoms: C_45  and  O_46
REMARK   20  A    between atoms: O_50  and  C_51
REMARK                            x       y       z     vdW  Elec       q    Type
REMARK                         _______ _______ _______ _____ _____    ______ ____
ROOT
ATOM      1  C   UNL     1       7.249   0.842  25.765  0.00  0.00    +0.181 A 
ATOM      2  O   UNL     1       6.549  -0.312  26.117  0.00  0.00    -0.451 OA
ATOM      3  C   UNL     1       7.086  -1.544  25.951  0.00  0.00    +0.147 A 
ATOM      4  C   UNL     1       8.250  -1.749  25.242  0.00  0.00    +0.109 A 
ATOM      5  C   UNL     1       8.674  -3.067  25.038  0.00  0.00    +0.135 A 
ATOM      6  C   UNL     1       7.963  -4.154  25.577  0.00  0.00    +0.092 A 
ATOM      7  C   UNL     1       6.837  -3.927  26.366  0.00  0.00    +0.131 A 
ATOM      8  C   UNL     1       8.975  -0.558  24.748  0.00  0.00    +0.238 A 
ATOM      9  O   UNL     1       9.999  -0.763  24.105  0.00  0.00    -0.283 OA
ATOM     10  C   UNL     1       6.381  -2.615  26.529  0.00  0.00    +0.093 A 
ATOM     11  C   UNL     1       8.435   0.825  25.090  0.00  0.00    +0.214 A 
ENDROOT
BRANCH   1  15
ATOM     12  C   UNL     1       5.050   4.415  26.864  0.00  0.00    +0.162 A 
ATOM     13  C   UNL     1       4.608   3.527  25.894  0.00  0.00    +0.050 A 
ATOM     14  C   UNL     1       5.310   2.343  25.657  0.00  0.00    +0.015 A 
ATOM     15  C   UNL     1       6.484   1.997  26.362  0.00  0.00    +0.025 A 
ATOM     16  C   UNL     1       6.937   2.895  27.340  0.00  0.00    +0.061 A 
ATOM     17  C   UNL     1       6.246   4.114  27.562  0.00  0.00    +0.162 A 
BRANCH  17  18
ATOM     18  O   UNL     1       6.654   5.070  28.464  0.00  0.00    -0.491 OA
ATOM     19  C   UNL     1       6.831   4.630  29.805  0.00  0.00    +0.277 C 
ENDBRANCH  17  18
BRANCH  12  21
ATOM     20  C   UNL     1       3.282   5.926  26.323  0.00  0.00    +0.277 C 
ATOM     21  O   UNL     1       4.459   5.635  27.078  0.00  0.00    -0.491 OA
ENDBRANCH  12  21
ENDBRANCH   1  15
BRANCH   5  22
ATOM     22  O   UNL     1       9.793  -3.378  24.312  0.00  0.00    -0.506 OA
ATOM     23  H   UNL     1       9.522  -3.561  23.384  0.00  0.00    +0.292 HD
ENDBRANCH   5  22
BRANCH  11  24
ATOM     24  O   UNL     1       9.088   2.009  24.749  0.00  0.00    -0.453 OA
BRANCH  24  25
ATOM     25  C   UNL     1       9.389   2.341  23.355  0.00  0.00    +0.340 C 
ATOM     26  O   UNL     1      10.305   3.439  23.220  0.00  0.00    -0.331 OA
ATOM     27  C   UNL     1       9.859   4.622  23.899  0.00  0.00    +0.179 C 
ATOM     28  C   UNL     1       8.479   5.125  23.397  0.00  0.00    +0.177 C 
ATOM     29  C   UNL     1       7.454   3.982  23.201  0.00  0.00    +0.180 C 
ATOM     30  C   UNL     1       8.084   2.706  22.607  0.00  0.00    +0.214 C 
BRANCH  30  31
ATOM     31  O   UNL     1       7.157   1.608  22.660  0.00  0.00    -0.383 OA
ATOM     32  H   UNL     1       7.644   0.802  22.410  0.00  0.00    +0.210 HD
ENDBRANCH  30  31
BRANCH  29  33
ATOM     33  O   UNL     1       6.370   4.438  22.383  0.00  0.00    -0.386 OA
ATOM     34  H   UNL     1       5.748   4.901  22.984  0.00  0.00    +0.210 HD
ENDBRANCH  29  33
BRANCH  28  35
ATOM     35  O   UNL     1       8.486   5.894  22.180  0.00  0.00    -0.386 OA
ATOM     36  H   UNL     1       7.930   5.486  21.498  0.00  0.00    +0.210 HD
ENDBRANCH  28  35
BRANCH  27  37
ATOM     37  C   UNL     1      10.963   5.701  23.844  0.00  0.00    +0.190 C 
BRANCH  37  38
ATOM     38  O   UNL     1      11.655   5.731  22.595  0.00  0.00    -0.392 OA
ATOM     39  H   UNL     1      11.003   5.684  21.878  0.00  0.00    +0.210 HD
ENDBRANCH  37  38
ENDBRANCH  27  37
ENDBRANCH  24  25
ENDBRANCH  11  24
BRANCH   7  40
ATOM     40  O   UNL     1       6.085  -4.914  26.955  0.00  0.00    -0.461 OA
BRANCH  40  41
ATOM     41  C   UNL     1       5.821  -6.075  26.135  0.00  0.00    +0.339 C 
ATOM     42  O   UNL     1       5.273  -5.726  24.862  0.00  0.00    -0.331 OA
ATOM     43  C   UNL     1       3.936  -5.188  24.897  0.00  0.00    +0.179 C 
ATOM     44  C   UNL     1       2.927  -6.094  25.643  0.00  0.00    +0.177 C 
ATOM     45  C   UNL     1       3.463  -6.449  27.030  0.00  0.00    +0.180 C 
ATOM     46  C   UNL     1       4.876  -7.044  26.891  0.00  0.00    +0.214 C 
BRANCH  46  47
ATOM     47  O   UNL     1       5.359  -7.431  28.181  0.00  0.00    -0.383 OA
ATOM     48  H   UNL     1       6.225  -7.854  28.078  0.00  0.00    +0.210 HD
ENDBRANCH  46  47
BRANCH  45  49
ATOM     49  O   UNL     1       3.408  -5.293  27.873  0.00  0.00    -0.386 OA
ATOM     50  H   UNL     1       4.261  -4.823  27.822  0.00  0.00    +0.210 HD
ENDBRANCH  45  49
BRANCH  44  51
ATOM     51  O   UNL     1       2.680  -7.298  24.910  0.00  0.00    -0.386 OA
ATOM     52  H   UNL     1       3.525  -7.596  24.529  0.00  0.00    +0.210 HD
ENDBRANCH  44  51
BRANCH  43  53
ATOM     53  C   UNL     1       3.472  -4.961  23.445  0.00  0.00    +0.190 C 
BRANCH  53  54
ATOM     54  O   UNL     1       3.886  -6.005  22.565  0.00  0.00    -0.392 OA
ATOM     55  H   UNL     1       4.851  -6.091  22.624  0.00  0.00    +0.210 HD
ENDBRANCH  53  54
ENDBRANCH  43  53
ENDBRANCH  40  41
ENDBRANCH   7  40
TORSDOF 18
ENDMDL
MODEL 8
REMARK VINA RESULT:      -6.0      2.886      9.746
REMARK  Name = 
REMARK  20 active torsions:
REMARK  status: ('A' for Active; 'I' for Inactive)
REMARK    1  A    between atoms: C_1  and  O_2
REMARK    2  A    between atoms: O_2  and  C_3
REMARK    3  A    between atoms: C_4  and  O_50
REMARK    4  A    between atoms: C_6  and  C_9
REMARK    5  A    between atoms: C_10  and  O_36
REMARK    6  A    between atoms: C_14  and  O_35
REMARK    7  A    between atoms: C_16  and  O_20
REMARK    8  A    between atoms: O_20  and  C_21
REMARK    9  A    between atoms: C_23  and  O_34
REMARK   10  A    between atoms: C_24  and  O_33
REMARK   11  A    between atoms: C_26  and  O_32
REMARK   12  A    between atoms: C_28  and  C_30
REMARK   13  A    between atoms: C_30  and  O_31
REMARK   14  A    between atoms: O_36  and  C_37
REMARK   15  A    between atoms: C_39  and  O_49
REMARK   16  A    between atoms: C_40  and  O_48
REMARK   17  A    between atoms: C_41  and  O_47
REMARK   18  A    between atoms: C_43  and  C_45
REMARK   19  A    between atoms: C_45  and  O_46
REMARK   20  A    between atoms: O_50  and  C_51
REMARK                            x       y       z     vdW  Elec       q    Type
REMARK                         _______ _______ _______ _____ _____    ______ ____
ROOT
ATOM      1  C   UNL     1       6.205  -2.047  25.942  0.00  0.00    +0.181 A 
ATOM      2  O   UNL     1       6.973  -0.883  25.973  0.00  0.00    -0.451 OA
ATOM      3  C   UNL     1       8.061  -0.732  25.179  0.00  0.00    +0.147 A 
ATOM      4  C   UNL     1       8.595  -1.777  24.457  0.00  0.00    +0.109 A 
ATOM      5  C   UNL     1       9.778  -1.550  23.745  0.00  0.00    +0.135 A 
ATOM      6  C   UNL     1      10.386  -0.282  23.725  0.00  0.00    +0.092 A 
ATOM      7  C   UNL     1       9.787   0.788  24.389  0.00  0.00    +0.131 A 
ATOM      8  C   UNL     1       7.876  -3.070  24.482  0.00  0.00    +0.238 A 
ATOM      9  O   UNL     1       8.377  -3.991  23.846  0.00  0.00    -0.283 OA
ATOM     10  C   UNL     1       8.633   0.552  25.142  0.00  0.00    +0.093 A 
ATOM     11  C   UNL     1       6.565  -3.167  25.251  0.00  0.00    +0.214 A 
ENDROOT
BRANCH   1  15
ATOM     12  C   UNL     1       2.923  -1.327  28.685  0.00  0.00    +0.162 A 
ATOM     13  C   UNL     1       4.149  -0.685  28.792  0.00  0.00    +0.050 A 
ATOM     14  C   UNL     1       5.131  -0.884  27.818  0.00  0.00    +0.015 A 
ATOM     15  C   UNL     1       4.943  -1.737  26.707  0.00  0.00    +0.025 A 
ATOM     16  C   UNL     1       3.707  -2.392  26.599  0.00  0.00    +0.061 A 
ATOM     17  C   UNL     1       2.719  -2.218  27.603  0.00  0.00    +0.162 A 
BRANCH  17  18
ATOM     18  O   UNL     1       1.504  -2.864  27.597  0.00  0.00    -0.491 OA
ATOM     19  C   UNL     1       1.427  -4.046  26.809  0.00  0.00    +0.277 C 
ENDBRANCH  17  18
BRANCH  12  21
ATOM     20  C   UNL     1       1.509   0.061  30.017  0.00  0.00    +0.277 C 
ATOM     21  O   UNL     1       1.956  -1.246  29.656  0.00  0.00    -0.491 OA
ENDBRANCH  12  21
ENDBRANCH   1  15
BRANCH   5  22
ATOM     22  O   UNL     1      10.411  -2.534  23.032  0.00  0.00    -0.506 OA
ATOM     23  H   UNL     1      10.033  -2.551  22.123  0.00  0.00    +0.292 HD
ENDBRANCH   5  22
BRANCH  11  24
ATOM     24  O   UNL     1       5.767  -4.310  25.265  0.00  0.00    -0.453 OA
BRANCH  24  25
ATOM     25  C   UNL     1       6.307  -5.614  25.656  0.00  0.00    +0.340 C 
ATOM     26  O   UNL     1       5.360  -6.684  25.515  0.00  0.00    -0.331 OA
ATOM     27  C   UNL     1       4.140  -6.446  26.234  0.00  0.00    +0.179 C 
ATOM     28  C   UNL     1       4.363  -6.242  27.756  0.00  0.00    +0.177 C 
ATOM     29  C   UNL     1       5.571  -5.328  28.072  0.00  0.00    +0.180 C 
ATOM     30  C   UNL     1       6.770  -5.571  27.132  0.00  0.00    +0.214 C 
BRANCH  30  31
ATOM     31  O   UNL     1       7.770  -4.553  27.310  0.00  0.00    -0.383 OA
ATOM     32  H   UNL     1       7.338  -3.691  27.169  0.00  0.00    +0.210 HD
ENDBRANCH  30  31
BRANCH  29  33
ATOM     33  O   UNL     1       5.961  -5.497  29.440  0.00  0.00    -0.386 OA
ATOM     34  H   UNL     1       6.137  -6.455  29.560  0.00  0.00    +0.210 HD
ENDBRANCH  29  33
BRANCH  28  35
ATOM     35  O   UNL     1       4.526  -7.438  28.541  0.00  0.00    -0.386 OA
ATOM     36  H   UNL     1       3.792  -7.558  29.164  0.00  0.00    +0.210 HD
ENDBRANCH  28  35
BRANCH  27  37
ATOM     37  C   UNL     1       3.117  -7.556  25.906  0.00  0.00    +0.190 C 
BRANCH  37  38
ATOM     38  O   UNL     1       2.239  -7.847  26.994  0.00  0.00    -0.392 OA
ATOM     39  H   UNL     1       1.332  -7.902  26.655  0.00  0.00    +0.210 HD
ENDBRANCH  37  38
ENDBRANCH  27  37
ENDBRANCH  24  25
ENDBRANCH  11  24
BRANCH   7  40
ATOM     40  O   UNL     1      10.285   2.067  24.414  0.00  0.00    -0.461 OA
BRANCH  40  41
ATOM     41  C   UNL     1      10.168   2.811  23.180  0.00  0.00    +0.339 C 
ATOM     42  O   UNL     1      11.293   3.663  22.952  0.00  0.00    -0.331 OA
ATOM     43  C   UNL     1      11.410   4.779  23.857  0.00  0.00    +0.179 C 
ATOM     44  C   UNL     1      10.131   5.649  23.930  0.00  0.00    +0.177 C 
ATOM     45  C   UNL     1       8.913   4.772  24.220  0.00  0.00    +0.180 C 
ATOM     46  C   UNL     1       8.852   3.631  23.188  0.00  0.00    +0.214 C 
BRANCH  46  47
ATOM     47  O   UNL     1       7.682   2.841  23.420  0.00  0.00    -0.383 OA
ATOM     48  H   UNL     1       7.946   2.001  23.825  0.00  0.00    +0.210 HD
ENDBRANCH  46  47
BRANCH  45  49
ATOM     49  O   UNL     1       8.965   4.317  25.576  0.00  0.00    -0.386 OA
ATOM     50  H   UNL     1       8.072   4.371  25.963  0.00  0.00    +0.210 HD
ENDBRANCH  45  49
BRANCH  44  51
ATOM     51  O   UNL     1       9.923   6.357  22.704  0.00  0.00    -0.386 OA
ATOM     52  H   UNL     1      10.639   7.009  22.609  0.00  0.00    +0.210 HD
ENDBRANCH  44  51
BRANCH  43  53
ATOM     53  C   UNL     1      12.610   5.636  23.410  0.00  0.00    +0.190 C 
BRANCH  53  54
ATOM     54  O   UNL     1      13.827   4.893  23.358  0.00  0.00    -0.392 OA
ATOM     55  H   UNL     1      13.716   4.166  22.724  0.00  0.00    +0.210 HD
ENDBRANCH  53  54
ENDBRANCH  43  53
ENDBRANCH  40  41
ENDBRANCH   7  40
TORSDOF 18
ENDMDL
MODEL 9
REMARK VINA RESULT:      -6.0      2.607      9.457
REMARK  Name = 
REMARK  20 active torsions:
REMARK  status: ('A' for Active; 'I' for Inactive)
REMARK    1  A    between atoms: C_1  and  O_2
REMARK    2  A    between atoms: O_2  and  C_3
REMARK    3  A    between atoms: C_4  and  O_50
REMARK    4  A    between atoms: C_6  and  C_9
REMARK    5  A    between atoms: C_10  and  O_36
REMARK    6  A    between atoms: C_14  and  O_35
REMARK    7  A    between atoms: C_16  and  O_20
REMARK    8  A    between atoms: O_20  and  C_21
REMARK    9  A    between atoms: C_23  and  O_34
REMARK   10  A    between atoms: C_24  and  O_33
REMARK   11  A    between atoms: C_26  and  O_32
REMARK   12  A    between atoms: C_28  and  C_30
REMARK   13  A    between atoms: C_30  and  O_31
REMARK   14  A    between atoms: O_36  and  C_37
REMARK   15  A    between atoms: C_39  and  O_49
REMARK   16  A    between atoms: C_40  and  O_48
REMARK   17  A    between atoms: C_41  and  O_47
REMARK   18  A    between atoms: C_43  and  C_45
REMARK   19  A    between atoms: C_45  and  O_46
REMARK   20  A    between atoms: O_50  and  C_51
REMARK                            x       y       z     vdW  Elec       q    Type
REMARK                         _______ _______ _______ _____ _____    ______ ____
ROOT
ATOM      1  C   UNL     1       6.469  -1.214  25.317  0.00  0.00    +0.181 A 
ATOM      2  O   UNL     1       7.049   0.048  25.188  0.00  0.00    -0.451 OA
ATOM      3  C   UNL     1       7.748   0.394  24.081  0.00  0.00    +0.147 A 
ATOM      4  C   UNL     1       8.107  -0.525  23.120  0.00  0.00    +0.109 A 
ATOM      5  C   UNL     1       8.915  -0.093  22.062  0.00  0.00    +0.135 A 
ATOM      6  C   UNL     1       9.315   1.251  21.952  0.00  0.00    +0.092 A 
ATOM      7  C   UNL     1       8.872   2.188  22.884  0.00  0.00    +0.131 A 
ATOM      8  C   UNL     1       7.608  -1.910  23.271  0.00  0.00    +0.238 A 
ATOM      9  O   UNL     1       7.953  -2.717  22.414  0.00  0.00    -0.283 OA
ATOM     10  C   UNL     1       8.108   1.750  23.969  0.00  0.00    +0.093 A 
ATOM     11  C   UNL     1       6.687  -2.236  24.440  0.00  0.00    +0.214 A 
ENDROOT
BRANCH   1  15
ATOM     12  C   UNL     1       3.352  -0.741  28.298  0.00  0.00    +0.162 A 
ATOM     13  C   UNL     1       3.200  -1.530  27.166  0.00  0.00    +0.050 A 
ATOM     14  C   UNL     1       4.275  -1.722  26.296  0.00  0.00    +0.015 A 
ATOM     15  C   UNL     1       5.542  -1.131  26.505  0.00  0.00    +0.025 A 
ATOM     16  C   UNL     1       5.699  -0.328  27.644  0.00  0.00    +0.061 A 
ATOM     17  C   UNL     1       4.599  -0.103  28.513  0.00  0.00    +0.162 A 
BRANCH  17  18
ATOM     18  O   UNL     1       4.657   0.712  29.621  0.00  0.00    -0.491 OA
ATOM     19  C   UNL     1       5.957   1.106  30.041  0.00  0.00    +0.277 C 
ENDBRANCH  17  18
BRANCH  12  21
ATOM     20  C   UNL     1       1.442   0.623  28.737  0.00  0.00    +0.277 C 
ATOM     21  O   UNL     1       2.310  -0.438  29.138  0.00  0.00    -0.491 OA
ENDBRANCH  12  21
ENDBRANCH   1  15
BRANCH   5  22
ATOM     22  O   UNL     1       9.360  -0.938  21.080  0.00  0.00    -0.506 OA
ATOM     23  H   UNL     1       9.269  -0.483  20.213  0.00  0.00    +0.292 HD
ENDBRANCH   5  22
BRANCH  11  24
ATOM     24  O   UNL     1       6.093  -3.484  24.623  0.00  0.00    -0.453 OA
BRANCH  24  25
ATOM     25  C   UNL     1       6.897  -4.685  24.855  0.00  0.00    +0.340 C 
ATOM     26  O   UNL     1       6.216  -5.899  24.501  0.00  0.00    -0.331 OA
ATOM     27  C   UNL     1       4.953  -6.043  25.167  0.00  0.00    +0.179 C 
ATOM     28  C   UNL     1       5.078  -6.035  26.714  0.00  0.00    +0.177 C 
ATOM     29  C   UNL     1       6.043  -4.943  27.235  0.00  0.00    +0.180 C 
ATOM     30  C   UNL     1       7.294  -4.774  26.349  0.00  0.00    +0.214 C 
BRANCH  30  31
ATOM     31  O   UNL     1       8.036  -3.605  26.735  0.00  0.00    -0.383 OA
ATOM     32  H   UNL     1       8.634  -3.864  27.460  0.00  0.00    +0.210 HD
ENDBRANCH  30  31
BRANCH  29  33
ATOM     33  O   UNL     1       6.419  -5.235  28.587  0.00  0.00    -0.386 OA
ATOM     34  H   UNL     1       6.042  -6.117  28.793  0.00  0.00    +0.210 HD
ENDBRANCH  29  33
BRANCH  28  35
ATOM     35  O   UNL     1       5.479  -7.275  27.326  0.00  0.00    -0.386 OA
ATOM     36  H   UNL     1       5.828  -7.134  28.220  0.00  0.00    +0.210 HD
ENDBRANCH  28  35
BRANCH  27  37
ATOM     37  C   UNL     1       4.212  -7.282  24.617  0.00  0.00    +0.190 C 
BRANCH  37  38
ATOM     38  O   UNL     1       3.443  -7.961  25.611  0.00  0.00    -0.392 OA
ATOM     39  H   UNL     1       3.783  -8.865  25.704  0.00  0.00    +0.210 HD
ENDBRANCH  37  38
ENDBRANCH  27  37
ENDBRANCH  24  25
ENDBRANCH  11  24
BRANCH   7  40
ATOM     40  O   UNL     1       9.187   3.524  22.855  0.00  0.00    -0.461 OA
BRANCH  40  41
ATOM     41  C   UNL     1       9.752   4.062  24.073  0.00  0.00    +0.339 C 
ATOM     42  O   UNL     1       8.788   4.151  25.124  0.00  0.00    -0.331 OA
ATOM     43  C   UNL     1       7.752   5.133  24.925  0.00  0.00    +0.179 C 
ATOM     44  C   UNL     1       8.297   6.551  24.626  0.00  0.00    +0.177 C 
ATOM     45  C   UNL     1       9.298   6.498  23.473  0.00  0.00    +0.180 C 
ATOM     46  C   UNL     1      10.381   5.450  23.788  0.00  0.00    +0.214 C 
BRANCH  46  47
ATOM     47  O   UNL     1      11.353   5.438  22.737  0.00  0.00    -0.383 OA
ATOM     48  H   UNL     1      11.905   6.232  22.812  0.00  0.00    +0.210 HD
ENDBRANCH  46  47
BRANCH  45  49
ATOM     49  O   UNL     1       8.601   6.252  22.247  0.00  0.00    -0.386 OA
ATOM     50  H   UNL     1       7.748   5.825  22.447  0.00  0.00    +0.210 HD
ENDBRANCH  45  49
BRANCH  44  51
ATOM     51  O   UNL     1       8.934   7.108  25.780  0.00  0.00    -0.386 OA
ATOM     52  H   UNL     1       9.496   6.418  26.175  0.00  0.00    +0.210 HD
ENDBRANCH  44  51
BRANCH  43  53
ATOM     53  C   UNL     1       6.866   5.160  26.185  0.00  0.00    +0.190 C 
BRANCH  53  54
ATOM     54  O   UNL     1       7.588   4.830  27.371  0.00  0.00    -0.392 OA
ATOM     55  H   UNL     1       8.502   5.139  27.271  0.00  0.00    +0.210 HD
ENDBRANCH  53  54
ENDBRANCH  43  53
ENDBRANCH  40  41
ENDBRANCH   7  40
TORSDOF 18
ENDMDL
