MODEL 1
REMARK VINA RESULT:      -7.1      0.000      0.000
REMARK  Name = 
REMARK  17 active torsions:
REMARK  status: ('A' for Active; 'I' for Inactive)
REMARK    1  A    between atoms: C_3  and  O_49
REMARK    2  A    between atoms: C_4  and  O_48
REMARK    3  A    between atoms: C_6  and  C_7
REMARK    4  A    between atoms: C_8  and  C_9
REMARK    5  A    between atoms: C_9  and  O_11
REMARK    6  A    between atoms: O_11  and  C_12
REMARK    7  A    between atoms: C_14  and  O_26
REMARK    8  A    between atoms: C_17  and  C_23
REMARK    9  A    between atoms: C_18  and  O_22
REMARK   10  A    between atoms: C_20  and  O_21
REMARK   11  A    between atoms: C_23  and  O_25
REMARK   12  A    between atoms: O_26  and  C_27
REMARK   13  A    between atoms: C_28  and  C_40
REMARK   14  A    between atoms: C_32  and  O_39
REMARK   15  A    between atoms: C_34  and  O_38
REMARK   16  A    between atoms: C_42  and  O_47
REMARK   17  A    between atoms: C_43  and  O_46
REMARK                            x       y       z     vdW  Elec       q    Type
REMARK                         _______ _______ _______ _____ _____    ______ ____
ROOT
ATOM      1  C   UNL     1       5.137  -4.216  24.364  0.00  0.00    +0.276 C 
ATOM      2  C   UNL     1       4.530  -5.575  24.719  0.00  0.00    +0.193 C 
ATOM      3  C   UNL     1       2.994  -5.603  24.594  0.00  0.00    +0.186 C 
ATOM      4  C   UNL     1       2.328  -4.392  25.243  0.00  0.00    +0.261 C 
ATOM      5  O   UNL     1       2.886  -3.195  24.716  0.00  0.00    -0.321 OA
ATOM      6  C   UNL     1       4.303  -3.040  24.933  0.00  0.00    +0.352 C 
ENDROOT
BRANCH   4   7
ATOM      7  C   UNL     1       2.247  -4.473  26.767  0.00  0.00    +0.337 C 
ATOM      8  O   UNL     1       2.430  -5.492  27.418  0.00  0.00    -0.248 OA
BRANCH   7   9
ATOM      9  O   UNL     1       1.998  -3.273  27.343  0.00  0.00    -0.479 OA
ATOM     10  H   UNL     1       2.320  -2.521  26.804  0.00  0.00    +0.295 HD
ENDBRANCH   7   9
ENDBRANCH   4   7
BRANCH   3  11
ATOM     11  O   UNL     1       2.623  -5.590  23.199  0.00  0.00    -0.386 OA
ATOM     12  H   UNL     1       1.676  -5.830  23.145  0.00  0.00    +0.210 HD
ENDBRANCH   3  11
BRANCH   2  13
ATOM     13  O   UNL     1       5.002  -5.984  26.006  0.00  0.00    -0.385 OA
ATOM     14  H   UNL     1       5.962  -6.176  25.983  0.00  0.00    +0.210 HD
ENDBRANCH   2  13
BRANCH   6  15
ATOM     15  O   UNL     1       4.612  -2.780  26.302  0.00  0.00    -0.452 OA
BRANCH  15  16
ATOM     16  C   UNL     1       5.217  -1.551  26.591  0.00  0.00    +0.214 A 
ATOM     17  C   UNL     1       4.402  -0.298  26.811  0.00  0.00    +0.238 A 
ATOM     18  O   UNL     1       3.189  -0.272  26.672  0.00  0.00    -0.283 OA
ATOM     19  C   UNL     1       5.107   0.922  27.217  0.00  0.00    +0.109 A 
ATOM     20  C   UNL     1       6.477   0.842  27.399  0.00  0.00    +0.147 A 
ATOM     21  C   UNL     1       7.200   1.951  27.849  0.00  0.00    +0.092 A 
ATOM     22  C   UNL     1       6.533   3.151  28.076  0.00  0.00    +0.124 A 
ATOM     23  C   UNL     1       5.164   3.260  27.859  0.00  0.00    +0.091 A 
ATOM     24  O   UNL     1       7.199  -0.289  27.139  0.00  0.00    -0.451 OA
ATOM     25  C   UNL     1       4.454   2.144  27.437  0.00  0.00    +0.135 A 
ATOM     26  C   UNL     1       6.559  -1.447  26.706  0.00  0.00    +0.181 A 
BRANCH  26  27
ATOM     27  C   UNL     1       7.554  -2.536  26.408  0.00  0.00    +0.025 A 
ATOM     28  C   UNL     1       8.597  -2.283  25.486  0.00  0.00    +0.015 A 
ATOM     29  C   UNL     1       9.416  -3.308  24.995  0.00  0.00    +0.050 A 
ATOM     30  C   UNL     1       9.230  -4.596  25.455  0.00  0.00    +0.158 A 
ATOM     31  C   UNL     1       8.278  -4.861  26.429  0.00  0.00    +0.159 A 
ATOM     32  C   UNL     1       7.429  -3.853  26.892  0.00  0.00    +0.060 A 
BRANCH  31  33
ATOM     33  O   UNL     1       8.187  -6.146  26.892  0.00  0.00    -0.503 OA
ATOM     34  H   UNL     1       7.551  -6.151  27.630  0.00  0.00    +0.292 HD
ENDBRANCH  31  33
BRANCH  30  35
ATOM     35  O   UNL     1       9.982  -5.609  24.936  0.00  0.00    -0.503 OA
ATOM     36  H   UNL     1       9.662  -5.703  24.016  0.00  0.00    +0.292 HD
ENDBRANCH  30  35
ENDBRANCH  26  27
BRANCH  25  37
ATOM     37  O   UNL     1       3.105   2.270  27.236  0.00  0.00    -0.506 OA
ATOM     38  H   UNL     1       2.641   2.404  28.079  0.00  0.00    +0.292 HD
ENDBRANCH  25  37
BRANCH  22  39
ATOM     39  O   UNL     1       7.187   4.271  28.500  0.00  0.00    -0.507 OA
ATOM     40  H   UNL     1       7.530   4.749  27.727  0.00  0.00    +0.292 HD
ENDBRANCH  22  39
ENDBRANCH  15  16
ENDBRANCH   6  15
BRANCH   1  41
ATOM     41  O   UNL     1       5.145  -4.081  22.917  0.00  0.00    -0.449 OA
BRANCH  41  42
ATOM     42  C   UNL     1       6.369  -3.802  22.384  0.00  0.00    +0.332 C 
ATOM     43  O   UNL     1       7.262  -4.598  22.161  0.00  0.00    -0.246 OA
BRANCH  42  45
ATOM     44  C   UNL     1       7.692  -1.756  22.280  0.00  0.00    +0.015 C 
ATOM     45  C   UNL     1       6.481  -2.331  22.352  0.00  0.00    +0.092 C 
BRANCH  44  47
ATOM     46  C   UNL     1       7.136   0.449  23.388  0.00  0.00    +0.012 A 
ATOM     47  C   UNL     1       7.927  -0.322  22.517  0.00  0.00    -0.021 A 
ATOM     48  C   UNL     1       8.999   0.298  21.855  0.00  0.00    +0.057 A 
ATOM     49  C   UNL     1       9.267   1.643  22.079  0.00  0.00    +0.159 A 
ATOM     50  C   UNL     1       8.485   2.392  22.951  0.00  0.00    +0.158 A 
ATOM     51  C   UNL     1       7.418   1.803  23.613  0.00  0.00    +0.050 A 
BRANCH  50  52
ATOM     52  O   UNL     1       8.804   3.711  23.120  0.00  0.00    -0.503 OA
ATOM     53  H   UNL     1       8.205   4.240  22.565  0.00  0.00    +0.292 HD
ENDBRANCH  50  52
BRANCH  49  54
ATOM     54  O   UNL     1      10.316   2.231  21.430  0.00  0.00    -0.503 OA
ATOM     55  H   UNL     1      10.433   1.695  20.621  0.00  0.00    +0.292 HD
ENDBRANCH  49  54
ENDBRANCH  44  47
ENDBRANCH  42  45
ENDBRANCH  41  42
ENDBRANCH   1  41
TORSDOF 17
ENDMDL
MODEL 2
REMARK VINA RESULT:      -6.9      2.126      7.565
REMARK  Name = 
REMARK  17 active torsions:
REMARK  status: ('A' for Active; 'I' for Inactive)
REMARK    1  A    between atoms: C_3  and  O_49
REMARK    2  A    between atoms: C_4  and  O_48
REMARK    3  A    between atoms: C_6  and  C_7
REMARK    4  A    between atoms: C_8  and  C_9
REMARK    5  A    between atoms: C_9  and  O_11
REMARK    6  A    between atoms: O_11  and  C_12
REMARK    7  A    between atoms: C_14  and  O_26
REMARK    8  A    between atoms: C_17  and  C_23
REMARK    9  A    between atoms: C_18  and  O_22
REMARK   10  A    between atoms: C_20  and  O_21
REMARK   11  A    between atoms: C_23  and  O_25
REMARK   12  A    between atoms: O_26  and  C_27
REMARK   13  A    between atoms: C_28  and  C_40
REMARK   14  A    between atoms: C_32  and  O_39
REMARK   15  A    between atoms: C_34  and  O_38
REMARK   16  A    between atoms: C_42  and  O_47
REMARK   17  A    between atoms: C_43  and  O_46
REMARK                            x       y       z     vdW  Elec       q    Type
REMARK                         _______ _______ _______ _____ _____    ______ ____
ROOT
ATOM      1  C   UNL     1       7.186  -2.037  23.338  0.00  0.00    +0.276 C 
ATOM      2  C   UNL     1       7.320  -0.678  22.647  0.00  0.00    +0.193 C 
ATOM      3  C   UNL     1       8.783  -0.294  22.348  0.00  0.00    +0.186 C 
ATOM      4  C   UNL     1       9.709  -0.525  23.540  0.00  0.00    +0.261 C 
ATOM      5  O   UNL     1       9.590  -1.868  23.990  0.00  0.00    -0.321 OA
ATOM      6  C   UNL     1       8.269  -2.246  24.427  0.00  0.00    +0.352 C 
ENDROOT
BRANCH   4   7
ATOM      7  C   UNL     1       9.604   0.551  24.621  0.00  0.00    +0.337 C 
ATOM      8  O   UNL     1       9.066   1.638  24.468  0.00  0.00    -0.248 OA
BRANCH   7   9
ATOM      9  O   UNL     1      10.132   0.157  25.805  0.00  0.00    -0.479 OA
ATOM     10  H   UNL     1      10.824  -0.528  25.700  0.00  0.00    +0.295 HD
ENDBRANCH   7   9
ENDBRANCH   4   7
BRANCH   3  11
ATOM     11  O   UNL     1       9.283  -1.106  21.264  0.00  0.00    -0.386 OA
ATOM     12  H   UNL     1       9.423  -2.009  21.614  0.00  0.00    +0.210 HD
ENDBRANCH   3  11
BRANCH   2  13
ATOM     13  O   UNL     1       6.618   0.311  23.406  0.00  0.00    -0.385 OA
ATOM     14  H   UNL     1       5.656   0.127  23.417  0.00  0.00    +0.210 HD
ENDBRANCH   2  13
BRANCH   6  15
ATOM     15  O   UNL     1       7.912  -1.624  25.661  0.00  0.00    -0.452 OA
BRANCH  15  16
ATOM     16  C   UNL     1       6.864  -2.207  26.382  0.00  0.00    +0.214 A 
ATOM     17  C   UNL     1       6.748  -3.705  26.543  0.00  0.00    +0.238 A 
ATOM     18  O   UNL     1       7.509  -4.485  25.991  0.00  0.00    -0.283 OA
ATOM     19  C   UNL     1       5.684  -4.228  27.405  0.00  0.00    +0.109 A 
ATOM     20  C   UNL     1       4.865  -3.311  28.042  0.00  0.00    +0.147 A 
ATOM     21  C   UNL     1       3.872  -3.740  28.929  0.00  0.00    +0.092 A 
ATOM     22  C   UNL     1       3.691  -5.104  29.138  0.00  0.00    +0.124 A 
ATOM     23  C   UNL     1       4.477  -6.039  28.475  0.00  0.00    +0.091 A 
ATOM     24  O   UNL     1       4.953  -1.963  27.837  0.00  0.00    -0.451 OA
ATOM     25  C   UNL     1       5.476  -5.598  27.617  0.00  0.00    +0.135 A 
ATOM     26  C   UNL     1       5.925  -1.444  26.984  0.00  0.00    +0.181 A 
BRANCH  26  27
ATOM     27  C   UNL     1       5.787   0.048  26.850  0.00  0.00    +0.025 A 
ATOM     28  C   UNL     1       4.593   0.584  26.311  0.00  0.00    +0.015 A 
ATOM     29  C   UNL     1       4.482   1.932  25.950  0.00  0.00    +0.050 A 
ATOM     30  C   UNL     1       5.554   2.776  26.166  0.00  0.00    +0.158 A 
ATOM     31  C   UNL     1       6.706   2.302  26.778  0.00  0.00    +0.159 A 
ATOM     32  C   UNL     1       6.839   0.950  27.101  0.00  0.00    +0.060 A 
BRANCH  31  33
ATOM     33  O   UNL     1       7.708   3.202  27.024  0.00  0.00    -0.503 OA
ATOM     34  H   UNL     1       7.676   3.430  27.971  0.00  0.00    +0.292 HD
ENDBRANCH  31  33
BRANCH  30  35
ATOM     35  O   UNL     1       5.477   4.076  25.760  0.00  0.00    -0.503 OA
ATOM     36  H   UNL     1       6.296   4.487  26.103  0.00  0.00    +0.292 HD
ENDBRANCH  30  35
ENDBRANCH  26  27
BRANCH  25  37
ATOM     37  O   UNL     1       6.245  -6.536  26.980  0.00  0.00    -0.506 OA
ATOM     38  H   UNL     1       6.935  -6.111  26.444  0.00  0.00    +0.292 HD
ENDBRANCH  25  37
BRANCH  22  39
ATOM     39  O   UNL     1       2.729  -5.582  29.979  0.00  0.00    -0.507 OA
ATOM     40  H   UNL     1       3.070  -6.370  30.434  0.00  0.00    +0.292 HD
ENDBRANCH  22  39
ENDBRANCH  15  16
ENDBRANCH   6  15
BRANCH   1  41
ATOM     41  O   UNL     1       7.367  -3.079  22.341  0.00  0.00    -0.449 OA
BRANCH  41  42
ATOM     42  C   UNL     1       6.206  -3.610  21.863  0.00  0.00    +0.332 C 
ATOM     43  O   UNL     1       5.802  -3.558  20.716  0.00  0.00    -0.246 OA
BRANCH  42  45
ATOM     44  C   UNL     1       4.954  -5.300  23.098  0.00  0.00    +0.015 C 
ATOM     45  C   UNL     1       5.435  -4.048  23.042  0.00  0.00    +0.092 C 
BRANCH  44  47
ATOM     46  C   UNL     1       3.136  -4.854  24.799  0.00  0.00    +0.012 A 
ATOM     47  C   UNL     1       3.956  -5.746  24.084  0.00  0.00    -0.021 A 
ATOM     48  C   UNL     1       3.808  -7.123  24.309  0.00  0.00    +0.057 A 
ATOM     49  C   UNL     1       2.855  -7.580  25.212  0.00  0.00    +0.159 A 
ATOM     50  C   UNL     1       2.042  -6.689  25.904  0.00  0.00    +0.158 A 
ATOM     51  C   UNL     1       2.173  -5.323  25.702  0.00  0.00    +0.050 A 
BRANCH  50  52
ATOM     52  O   UNL     1       1.129  -7.209  26.779  0.00  0.00    -0.503 OA
ATOM     53  H   UNL     1       1.301  -8.162  26.864  0.00  0.00    +0.292 HD
ENDBRANCH  50  52
BRANCH  49  54
ATOM     54  O   UNL     1       2.720  -8.924  25.417  0.00  0.00    -0.503 OA
ATOM     55  H   UNL     1       2.374  -8.998  26.328  0.00  0.00    +0.292 HD
ENDBRANCH  49  54
ENDBRANCH  44  47
ENDBRANCH  42  45
ENDBRANCH  41  42
ENDBRANCH   1  41
TORSDOF 17
ENDMDL
MODEL 3
REMARK VINA RESULT:      -6.8      2.034      5.053
REMARK  Name = 
REMARK  17 active torsions:
REMARK  status: ('A' for Active; 'I' for Inactive)
REMARK    1  A    between atoms: C_3  and  O_49
REMARK    2  A    between atoms: C_4  and  O_48
REMARK    3  A    between atoms: C_6  and  C_7
REMARK    4  A    between atoms: C_8  and  C_9
REMARK    5  A    between atoms: C_9  and  O_11
REMARK    6  A    between atoms: O_11  and  C_12
REMARK    7  A    between atoms: C_14  and  O_26
REMARK    8  A    between atoms: C_17  and  C_23
REMARK    9  A    between atoms: C_18  and  O_22
REMARK   10  A    between atoms: C_20  and  O_21
REMARK   11  A    between atoms: C_23  and  O_25
REMARK   12  A    between atoms: O_26  and  C_27
REMARK   13  A    between atoms: C_28  and  C_40
REMARK   14  A    between atoms: C_32  and  O_39
REMARK   15  A    between atoms: C_34  and  O_38
REMARK   16  A    between atoms: C_42  and  O_47
REMARK   17  A    between atoms: C_43  and  O_46
REMARK                            x       y       z     vdW  Elec       q    Type
REMARK                         _______ _______ _______ _____ _____    ______ ____
ROOT
ATOM      1  C   UNL     1       4.086  -1.019  26.900  0.00  0.00    +0.276 C 
ATOM      2  C   UNL     1       2.686  -1.616  26.748  0.00  0.00    +0.193 C 
ATOM      3  C   UNL     1       2.056  -2.030  28.093  0.00  0.00    +0.186 C 
ATOM      4  C   UNL     1       3.019  -2.818  28.977  0.00  0.00    +0.261 C 
ATOM      5  O   UNL     1       4.222  -2.083  29.154  0.00  0.00    -0.321 OA
ATOM      6  C   UNL     1       4.939  -1.791  27.937  0.00  0.00    +0.352 C 
ENDROOT
BRANCH   4   7
ATOM      7  C   UNL     1       3.187  -4.279  28.558  0.00  0.00    +0.337 C 
ATOM      8  O   UNL     1       2.504  -4.842  27.715  0.00  0.00    -0.248 OA
BRANCH   7   9
ATOM      9  O   UNL     1       4.220  -4.888  29.189  0.00  0.00    -0.479 OA
ATOM     10  H   UNL     1       4.454  -4.456  30.036  0.00  0.00    +0.295 HD
ENDBRANCH   7   9
ENDBRANCH   4   7
BRANCH   3  11
ATOM     11  O   UNL     1       1.677  -0.849  28.832  0.00  0.00    -0.386 OA
ATOM     12  H   UNL     1       0.709  -0.745  28.743  0.00  0.00    +0.210 HD
ENDBRANCH   3  11
BRANCH   2  13
ATOM     13  O   UNL     1       2.724  -2.677  25.789  0.00  0.00    -0.385 OA
ATOM     14  H   UNL     1       3.631  -3.036  25.700  0.00  0.00    +0.210 HD
ENDBRANCH   2  13
BRANCH   6  15
ATOM     15  O   UNL     1       5.538  -2.958  27.373  0.00  0.00    -0.452 OA
BRANCH  15  16
ATOM     16  C   UNL     1       6.387  -2.765  26.277  0.00  0.00    +0.214 A 
ATOM     17  C   UNL     1       7.404  -1.648  26.248  0.00  0.00    +0.238 A 
ATOM     18  O   UNL     1       7.485  -0.812  27.135  0.00  0.00    -0.283 OA
ATOM     19  C   UNL     1       8.328  -1.584  25.112  0.00  0.00    +0.109 A 
ATOM     20  C   UNL     1       8.227  -2.571  24.146  0.00  0.00    +0.147 A 
ATOM     21  C   UNL     1       9.120  -2.606  23.070  0.00  0.00    +0.092 A 
ATOM     22  C   UNL     1      10.091  -1.614  22.959  0.00  0.00    +0.124 A 
ATOM     23  C   UNL     1      10.180  -0.593  23.898  0.00  0.00    +0.091 A 
ATOM     24  O   UNL     1       7.263  -3.538  24.165  0.00  0.00    -0.451 OA
ATOM     25  C   UNL     1       9.303  -0.585  24.975  0.00  0.00    +0.135 A 
ATOM     26  C   UNL     1       6.342  -3.592  25.209  0.00  0.00    +0.181 A 
BRANCH  26  27
ATOM     27  C   UNL     1       5.331  -4.683  24.984  0.00  0.00    +0.025 A 
ATOM     28  C   UNL     1       5.357  -5.829  25.813  0.00  0.00    +0.015 A 
ATOM     29  C   UNL     1       4.602  -6.971  25.522  0.00  0.00    +0.050 A 
ATOM     30  C   UNL     1       3.773  -6.966  24.417  0.00  0.00    +0.158 A 
ATOM     31  C   UNL     1       3.654  -5.824  23.637  0.00  0.00    +0.159 A 
ATOM     32  C   UNL     1       4.436  -4.697  23.896  0.00  0.00    +0.060 A 
BRANCH  31  33
ATOM     33  O   UNL     1       2.767  -5.861  22.595  0.00  0.00    -0.503 OA
ATOM     34  H   UNL     1       3.278  -5.984  21.774  0.00  0.00    +0.292 HD
ENDBRANCH  31  33
BRANCH  30  35
ATOM     35  O   UNL     1       3.082  -8.096  24.091  0.00  0.00    -0.503 OA
ATOM     36  H   UNL     1       2.228  -8.004  24.560  0.00  0.00    +0.292 HD
ENDBRANCH  30  35
ENDBRANCH  26  27
BRANCH  25  37
ATOM     37  O   UNL     1       9.412   0.425  25.893  0.00  0.00    -0.506 OA
ATOM     38  H   UNL     1       9.579   0.069  26.782  0.00  0.00    +0.292 HD
ENDBRANCH  25  37
BRANCH  22  39
ATOM     39  O   UNL     1      10.979  -1.587  21.924  0.00  0.00    -0.507 OA
ATOM     40  H   UNL     1      10.627  -1.019  21.220  0.00  0.00    +0.292 HD
ENDBRANCH  22  39
ENDBRANCH  15  16
ENDBRANCH   6  15
BRANCH   1  41
ATOM     41  O   UNL     1       3.953   0.347  27.380  0.00  0.00    -0.449 OA
BRANCH  41  42
ATOM     42  C   UNL     1       3.883   1.287  26.394  0.00  0.00    +0.332 C 
ATOM     43  O   UNL     1       2.884   1.869  26.016  0.00  0.00    -0.246 OA
BRANCH  42  45
ATOM     44  C   UNL     1       5.483   2.222  24.809  0.00  0.00    +0.015 C 
ATOM     45  C   UNL     1       5.198   1.285  25.726  0.00  0.00    +0.092 C 
BRANCH  44  47
ATOM     46  C   UNL     1       6.714   1.234  22.833  0.00  0.00    +0.012 A 
ATOM     47  C   UNL     1       6.638   2.148  23.899  0.00  0.00    -0.021 A 
ATOM     48  C   UNL     1       7.703   3.040  24.098  0.00  0.00    +0.057 A 
ATOM     49  C   UNL     1       8.797   3.016  23.240  0.00  0.00    +0.159 A 
ATOM     50  C   UNL     1       8.855   2.116  22.182  0.00  0.00    +0.158 A 
ATOM     51  C   UNL     1       7.817   1.222  21.969  0.00  0.00    +0.050 A 
BRANCH  50  52
ATOM     52  O   UNL     1       9.963   2.146  21.380  0.00  0.00    -0.503 OA
ATOM     53  H   UNL     1      10.060   3.049  21.034  0.00  0.00    +0.292 HD
ENDBRANCH  50  52
BRANCH  49  54
ATOM     54  O   UNL     1       9.824   3.894  23.444  0.00  0.00    -0.503 OA
ATOM     55  H   UNL     1      10.004   4.268  22.559  0.00  0.00    +0.292 HD
ENDBRANCH  49  54
ENDBRANCH  44  47
ENDBRANCH  42  45
ENDBRANCH  41  42
ENDBRANCH   1  41
TORSDOF 17
ENDMDL
MODEL 4
REMARK VINA RESULT:      -6.8      1.832      3.466
REMARK  Name = 
REMARK  17 active torsions:
REMARK  status: ('A' for Active; 'I' for Inactive)
REMARK    1  A    between atoms: C_3  and  O_49
REMARK    2  A    between atoms: C_4  and  O_48
REMARK    3  A    between atoms: C_6  and  C_7
REMARK    4  A    between atoms: C_8  and  C_9
REMARK    5  A    between atoms: C_9  and  O_11
REMARK    6  A    between atoms: O_11  and  C_12
REMARK    7  A    between atoms: C_14  and  O_26
REMARK    8  A    between atoms: C_17  and  C_23
REMARK    9  A    between atoms: C_18  and  O_22
REMARK   10  A    between atoms: C_20  and  O_21
REMARK   11  A    between atoms: C_23  and  O_25
REMARK   12  A    between atoms: O_26  and  C_27
REMARK   13  A    between atoms: C_28  and  C_40
REMARK   14  A    between atoms: C_32  and  O_39
REMARK   15  A    between atoms: C_34  and  O_38
REMARK   16  A    between atoms: C_42  and  O_47
REMARK   17  A    between atoms: C_43  and  O_46
REMARK                            x       y       z     vdW  Elec       q    Type
REMARK                         _______ _______ _______ _____ _____    ______ ____
ROOT
ATOM      1  C   UNL     1       6.393  -4.634  24.448  0.00  0.00    +0.276 C 
ATOM      2  C   UNL     1       5.875  -6.063  24.618  0.00  0.00    +0.193 C 
ATOM      3  C   UNL     1       5.016  -6.542  23.431  0.00  0.00    +0.186 C 
ATOM      4  C   UNL     1       3.977  -5.509  23.002  0.00  0.00    +0.261 C 
ATOM      5  O   UNL     1       4.614  -4.266  22.735  0.00  0.00    -0.321 OA
ATOM      6  C   UNL     1       5.314  -3.691  23.856  0.00  0.00    +0.352 C 
ENDROOT
BRANCH   4   7
ATOM      7  C   UNL     1       2.753  -5.446  23.915  0.00  0.00    +0.337 C 
ATOM      8  O   UNL     1       2.472  -6.289  24.756  0.00  0.00    -0.248 OA
BRANCH   7   9
ATOM      9  O   UNL     1       2.023  -4.320  23.736  0.00  0.00    -0.479 OA
ATOM     10  H   UNL     1       2.327  -3.790  22.970  0.00  0.00    +0.295 HD
ENDBRANCH   7   9
ENDBRANCH   4   7
BRANCH   3  11
ATOM     11  O   UNL     1       5.865  -6.784  22.288  0.00  0.00    -0.386 OA
ATOM     12  H   UNL     1       5.355  -7.327  21.654  0.00  0.00    +0.210 HD
ENDBRANCH   3  11
BRANCH   2  13
ATOM     13  O   UNL     1       5.212  -6.180  25.881  0.00  0.00    -0.385 OA
ATOM     14  H   UNL     1       4.331  -6.597  25.777  0.00  0.00    +0.210 HD
ENDBRANCH   2  13
BRANCH   6  15
ATOM     15  O   UNL     1       4.420  -3.209  24.859  0.00  0.00    -0.452 OA
BRANCH  15  16
ATOM     16  C   UNL     1       4.917  -2.236  25.734  0.00  0.00    +0.214 A 
ATOM     17  C   UNL     1       5.652  -1.016  25.231  0.00  0.00    +0.238 A 
ATOM     18  O   UNL     1       5.921  -0.854  24.050  0.00  0.00    -0.283 OA
ATOM     19  C   UNL     1       6.044   0.007  26.205  0.00  0.00    +0.109 A 
ATOM     20  C   UNL     1       5.689  -0.197  27.527  0.00  0.00    +0.147 A 
ATOM     21  C   UNL     1       5.973   0.770  28.497  0.00  0.00    +0.092 A 
ATOM     22  C   UNL     1       6.651   1.927  28.125  0.00  0.00    +0.124 A 
ATOM     23  C   UNL     1       7.051   2.129  26.809  0.00  0.00    +0.091 A 
ATOM     24  O   UNL     1       5.073  -1.335  27.968  0.00  0.00    -0.451 OA
ATOM     25  C   UNL     1       6.739   1.173  25.852  0.00  0.00    +0.135 A 
ATOM     26  C   UNL     1       4.735  -2.344  27.069  0.00  0.00    +0.181 A 
BRANCH  26  27
ATOM     27  C   UNL     1       4.142  -3.528  27.783  0.00  0.00    +0.025 A 
ATOM     28  C   UNL     1       4.915  -4.206  28.755  0.00  0.00    +0.015 A 
ATOM     29  C   UNL     1       4.518  -5.437  29.290  0.00  0.00    +0.050 A 
ATOM     30  C   UNL     1       3.316  -5.988  28.892  0.00  0.00    +0.158 A 
ATOM     31  C   UNL     1       2.491  -5.303  28.010  0.00  0.00    +0.159 A 
ATOM     32  C   UNL     1       2.899  -4.096  27.440  0.00  0.00    +0.060 A 
BRANCH  31  33
ATOM     33  O   UNL     1       1.284  -5.871  27.705  0.00  0.00    -0.503 OA
ATOM     34  H   UNL     1       0.587  -5.327  28.117  0.00  0.00    +0.292 HD
ENDBRANCH  31  33
BRANCH  30  35
ATOM     35  O   UNL     1       2.953  -7.216  29.361  0.00  0.00    -0.503 OA
ATOM     36  H   UNL     1       2.123  -7.053  29.854  0.00  0.00    +0.292 HD
ENDBRANCH  30  35
ENDBRANCH  26  27
BRANCH  25  37
ATOM     37  O   UNL     1       7.135   1.394  24.560  0.00  0.00    -0.506 OA
ATOM     38  H   UNL     1       8.095   1.282  24.467  0.00  0.00    +0.292 HD
ENDBRANCH  25  37
BRANCH  22  39
ATOM     39  O   UNL     1       6.970   2.898  29.029  0.00  0.00    -0.507 OA
ATOM     40  H   UNL     1       7.885   3.185  28.875  0.00  0.00    +0.292 HD
ENDBRANCH  22  39
ENDBRANCH  15  16
ENDBRANCH   6  15
BRANCH   1  41
ATOM     41  O   UNL     1       7.507  -4.658  23.514  0.00  0.00    -0.449 OA
BRANCH  41  42
ATOM     42  C   UNL     1       8.734  -4.548  24.098  0.00  0.00    +0.332 C 
ATOM     43  O   UNL     1       9.427  -5.462  24.507  0.00  0.00    -0.246 OA
BRANCH  42  45
ATOM     44  C   UNL     1       9.097  -2.269  23.312  0.00  0.00    +0.015 C 
ATOM     45  C   UNL     1       8.948  -3.110  24.347  0.00  0.00    +0.092 C 
BRANCH  44  47
ATOM     46  C   UNL     1      10.171  -0.396  24.630  0.00  0.00    +0.012 A 
ATOM     47  C   UNL     1       9.583  -0.885  23.450  0.00  0.00    -0.021 A 
ATOM     48  C   UNL     1       9.465  -0.023  22.349  0.00  0.00    +0.057 A 
ATOM     49  C   UNL     1       9.939   1.281  22.436  0.00  0.00    +0.159 A 
ATOM     50  C   UNL     1      10.529   1.750  23.604  0.00  0.00    +0.158 A 
ATOM     51  C   UNL     1      10.652   0.917  24.707  0.00  0.00    +0.050 A 
BRANCH  50  52
ATOM     52  O   UNL     1      10.970   3.044  23.620  0.00  0.00    -0.503 OA
ATOM     53  H   UNL     1      10.744   3.429  24.485  0.00  0.00    +0.292 HD
ENDBRANCH  50  52
BRANCH  49  54
ATOM     54  O   UNL     1       9.821   2.107  21.354  0.00  0.00    -0.503 OA
ATOM     55  H   UNL     1       9.051   1.758  20.864  0.00  0.00    +0.292 HD
ENDBRANCH  49  54
ENDBRANCH  44  47
ENDBRANCH  42  45
ENDBRANCH  41  42
ENDBRANCH   1  41
TORSDOF 17
ENDMDL
MODEL 5
REMARK VINA RESULT:      -6.7      2.537      5.198
REMARK  Name = 
REMARK  17 active torsions:
REMARK  status: ('A' for Active; 'I' for Inactive)
REMARK    1  A    between atoms: C_3  and  O_49
REMARK    2  A    between atoms: C_4  and  O_48
REMARK    3  A    between atoms: C_6  and  C_7
REMARK    4  A    between atoms: C_8  and  C_9
REMARK    5  A    between atoms: C_9  and  O_11
REMARK    6  A    between atoms: O_11  and  C_12
REMARK    7  A    between atoms: C_14  and  O_26
REMARK    8  A    between atoms: C_17  and  C_23
REMARK    9  A    between atoms: C_18  and  O_22
REMARK   10  A    between atoms: C_20  and  O_21
REMARK   11  A    between atoms: C_23  and  O_25
REMARK   12  A    between atoms: O_26  and  C_27
REMARK   13  A    between atoms: C_28  and  C_40
REMARK   14  A    between atoms: C_32  and  O_39
REMARK   15  A    between atoms: C_34  and  O_38
REMARK   16  A    between atoms: C_42  and  O_47
REMARK   17  A    between atoms: C_43  and  O_46
REMARK                            x       y       z     vdW  Elec       q    Type
REMARK                         _______ _______ _______ _____ _____    ______ ____
ROOT
ATOM      1  C   UNL     1       8.102  -0.034  23.597  0.00  0.00    +0.276 C 
ATOM      2  C   UNL     1       9.501  -0.639  23.465  0.00  0.00    +0.193 C 
ATOM      3  C   UNL     1       9.554  -1.837  22.495  0.00  0.00    +0.186 C 
ATOM      4  C   UNL     1       8.421  -2.833  22.728  0.00  0.00    +0.261 C 
ATOM      5  O   UNL     1       7.169  -2.161  22.681  0.00  0.00    -0.321 OA
ATOM      6  C   UNL     1       7.002  -1.122  23.667  0.00  0.00    +0.352 C 
ENDROOT
BRANCH   4   7
ATOM      7  C   UNL     1       8.640  -3.747  23.934  0.00  0.00    +0.337 C 
ATOM      8  O   UNL     1       7.780  -4.460  24.429  0.00  0.00    -0.248 OA
BRANCH   7   9
ATOM      9  O   UNL     1       9.920  -3.728  24.379  0.00  0.00    -0.479 OA
ATOM     10  H   UNL     1      10.565  -3.539  23.667  0.00  0.00    +0.295 HD
ENDBRANCH   7   9
ENDBRANCH   4   7
BRANCH   3  11
ATOM     11  O   UNL     1       9.424  -1.364  21.137  0.00  0.00    -0.386 OA
ATOM     12  H   UNL     1      10.263  -0.921  20.900  0.00  0.00    +0.210 HD
ENDBRANCH   3  11
BRANCH   2  13
ATOM     13  O   UNL     1      10.012  -0.941  24.766  0.00  0.00    -0.385 OA
ATOM     14  H   UNL     1      10.522  -0.186  25.127  0.00  0.00    +0.210 HD
ENDBRANCH   2  13
BRANCH   6  15
ATOM     15  O   UNL     1       6.858  -1.651  24.986  0.00  0.00    -0.452 OA
BRANCH  15  16
ATOM     16  C   UNL     1       5.757  -1.208  25.727  0.00  0.00    +0.214 A 
ATOM     17  C   UNL     1       5.747   0.142  26.405  0.00  0.00    +0.238 A 
ATOM     18  O   UNL     1       6.721   0.879  26.412  0.00  0.00    -0.283 OA
ATOM     19  C   UNL     1       4.513   0.574  27.069  0.00  0.00    +0.109 A 
ATOM     20  C   UNL     1       3.421  -0.275  27.008  0.00  0.00    +0.147 A 
ATOM     21  C   UNL     1       2.194   0.105  27.563  0.00  0.00    +0.092 A 
ATOM     22  C   UNL     1       2.092   1.332  28.212  0.00  0.00    +0.124 A 
ATOM     23  C   UNL     1       3.190   2.178  28.317  0.00  0.00    +0.091 A 
ATOM     24  O   UNL     1       3.470  -1.515  26.437  0.00  0.00    -0.451 OA
ATOM     25  C   UNL     1       4.395   1.800  27.739  0.00  0.00    +0.135 A 
ATOM     26  C   UNL     1       4.646  -1.969  25.843  0.00  0.00    +0.181 A 
BRANCH  26  27
ATOM     27  C   UNL     1       4.493  -3.383  25.352  0.00  0.00    +0.025 A 
ATOM     28  C   UNL     1       4.651  -4.451  26.267  0.00  0.00    +0.015 A 
ATOM     29  C   UNL     1       4.746  -5.782  25.842  0.00  0.00    +0.050 A 
ATOM     30  C   UNL     1       4.640  -6.067  24.495  0.00  0.00    +0.158 A 
ATOM     31  C   UNL     1       4.392  -5.052  23.582  0.00  0.00    +0.159 A 
ATOM     32  C   UNL     1       4.338  -3.719  23.993  0.00  0.00    +0.060 A 
BRANCH  31  33
ATOM     33  O   UNL     1       4.231  -5.407  22.270  0.00  0.00    -0.503 OA
ATOM     34  H   UNL     1       3.291  -5.625  22.135  0.00  0.00    +0.292 HD
ENDBRANCH  31  33
BRANCH  30  35
ATOM     35  O   UNL     1       4.794  -7.353  24.068  0.00  0.00    -0.503 OA
ATOM     36  H   UNL     1       5.241  -7.806  24.811  0.00  0.00    +0.292 HD
ENDBRANCH  30  35
ENDBRANCH  26  27
BRANCH  25  37
ATOM     37  O   UNL     1       5.462   2.651  27.848  0.00  0.00    -0.506 OA
ATOM     38  H   UNL     1       6.120   2.304  28.473  0.00  0.00    +0.292 HD
ENDBRANCH  25  37
BRANCH  22  39
ATOM     39  O   UNL     1       0.927   1.749  28.786  0.00  0.00    -0.507 OA
ATOM     40  H   UNL     1       0.512   0.999  29.241  0.00  0.00    +0.292 HD
ENDBRANCH  22  39
ENDBRANCH  15  16
ENDBRANCH   6  15
BRANCH   1  41
ATOM     41  O   UNL     1       7.838   0.773  22.417  0.00  0.00    -0.449 OA
BRANCH  41  42
ATOM     42  C   UNL     1       7.176   1.939  22.668  0.00  0.00    +0.332 C 
ATOM     43  O   UNL     1       5.970   2.094  22.705  0.00  0.00    -0.246 OA
BRANCH  42  45
ATOM     44  C   UNL     1       9.253   2.932  23.472  0.00  0.00    +0.015 C 
ATOM     45  C   UNL     1       8.195   3.006  22.650  0.00  0.00    +0.092 C 
BRANCH  44  47
ATOM     46  C   UNL     1       9.757   5.247  24.357  0.00  0.00    +0.012 A 
ATOM     47  C   UNL     1      10.167   4.059  23.727  0.00  0.00    -0.021 A 
ATOM     48  C   UNL     1      11.508   3.932  23.335  0.00  0.00    +0.057 A 
ATOM     49  C   UNL     1      12.404   4.965  23.587  0.00  0.00    +0.159 A 
ATOM     50  C   UNL     1      11.990   6.131  24.221  0.00  0.00    +0.158 A 
ATOM     51  C   UNL     1      10.668   6.281  24.613  0.00  0.00    +0.050 A 
BRANCH  50  52
ATOM     52  O   UNL     1      12.924   7.107  24.433  0.00  0.00    -0.503 OA
ATOM     53  H   UNL     1      12.776   7.813  23.780  0.00  0.00    +0.292 HD
ENDBRANCH  50  52
BRANCH  49  54
ATOM     54  O   UNL     1      13.708   4.825  23.204  0.00  0.00    -0.503 OA
ATOM     55  H   UNL     1      14.129   5.670  23.458  0.00  0.00    +0.292 HD
ENDBRANCH  49  54
ENDBRANCH  44  47
ENDBRANCH  42  45
ENDBRANCH  41  42
ENDBRANCH   1  41
TORSDOF 17
ENDMDL
MODEL 6
REMARK VINA RESULT:      -6.7      2.095      5.523
REMARK  Name = 
REMARK  17 active torsions:
REMARK  status: ('A' for Active; 'I' for Inactive)
REMARK    1  A    between atoms: C_3  and  O_49
REMARK    2  A    between atoms: C_4  and  O_48
REMARK    3  A    between atoms: C_6  and  C_7
REMARK    4  A    between atoms: C_8  and  C_9
REMARK    5  A    between atoms: C_9  and  O_11
REMARK    6  A    between atoms: O_11  and  C_12
REMARK    7  A    between atoms: C_14  and  O_26
REMARK    8  A    between atoms: C_17  and  C_23
REMARK    9  A    between atoms: C_18  and  O_22
REMARK   10  A    between atoms: C_20  and  O_21
REMARK   11  A    between atoms: C_23  and  O_25
REMARK   12  A    between atoms: O_26  and  C_27
REMARK   13  A    between atoms: C_28  and  C_40
REMARK   14  A    between atoms: C_32  and  O_39
REMARK   15  A    between atoms: C_34  and  O_38
REMARK   16  A    between atoms: C_42  and  O_47
REMARK   17  A    between atoms: C_43  and  O_46
REMARK                            x       y       z     vdW  Elec       q    Type
REMARK                         _______ _______ _______ _____ _____    ______ ____
ROOT
ATOM      1  C   UNL     1       4.118  -3.091  27.714  0.00  0.00    +0.276 C 
ATOM      2  C   UNL     1       2.818  -3.856  27.968  0.00  0.00    +0.193 C 
ATOM      3  C   UNL     1       2.881  -4.759  29.216  0.00  0.00    +0.186 C 
ATOM      4  C   UNL     1       4.161  -5.589  29.278  0.00  0.00    +0.261 C 
ATOM      5  O   UNL     1       5.294  -4.737  29.177  0.00  0.00    -0.321 OA
ATOM      6  C   UNL     1       5.369  -3.972  27.957  0.00  0.00    +0.352 C 
ENDROOT
BRANCH   4   7
ATOM      7  C   UNL     1       4.155  -6.803  28.350  0.00  0.00    +0.337 C 
ATOM      8  O   UNL     1       3.189  -7.174  27.699  0.00  0.00    -0.248 OA
BRANCH   7   9
ATOM      9  O   UNL     1       5.364  -7.411  28.277  0.00  0.00    -0.479 OA
ATOM     10  H   UNL     1       6.083  -6.871  28.665  0.00  0.00    +0.295 HD
ENDBRANCH   7   9
ENDBRANCH   4   7
BRANCH   3  11
ATOM     11  O   UNL     1       2.852  -3.940  30.405  0.00  0.00    -0.386 OA
ATOM     12  H   UNL     1       3.051  -3.022  30.133  0.00  0.00    +0.210 HD
ENDBRANCH   3  11
BRANCH   2  13
ATOM     13  O   UNL     1       2.441  -4.557  26.779  0.00  0.00    -0.385 OA
ATOM     14  H   UNL     1       1.522  -4.338  26.519  0.00  0.00    +0.210 HD
ENDBRANCH   2  13
BRANCH   6  15
ATOM     15  O   UNL     1       5.673  -4.790  26.827  0.00  0.00    -0.452 OA
BRANCH  15  16
ATOM     16  C   UNL     1       6.207  -4.144  25.706  0.00  0.00    +0.214 A 
ATOM     17  C   UNL     1       7.307  -3.117  25.830  0.00  0.00    +0.238 A 
ATOM     18  O   UNL     1       7.731  -2.737  26.911  0.00  0.00    -0.283 OA
ATOM     19  C   UNL     1       7.886  -2.570  24.599  0.00  0.00    +0.109 A 
ATOM     20  C   UNL     1       7.403  -3.052  23.394  0.00  0.00    +0.147 A 
ATOM     21  C   UNL     1       7.956  -2.622  22.183  0.00  0.00    +0.092 A 
ATOM     22  C   UNL     1       8.974  -1.673  22.201  0.00  0.00    +0.124 A 
ATOM     23  C   UNL     1       9.442  -1.148  23.400  0.00  0.00    +0.091 A 
ATOM     24  O   UNL     1       6.369  -3.941  23.306  0.00  0.00    -0.451 OA
ATOM     25  C   UNL     1       8.902  -1.603  24.595  0.00  0.00    +0.135 A 
ATOM     26  C   UNL     1       5.770  -4.438  24.461  0.00  0.00    +0.181 A 
BRANCH  26  27
ATOM     27  C   UNL     1       4.609  -5.335  24.126  0.00  0.00    +0.025 A 
ATOM     28  C   UNL     1       3.534  -4.815  23.365  0.00  0.00    +0.015 A 
ATOM     29  C   UNL     1       2.331  -5.515  23.209  0.00  0.00    +0.050 A 
ATOM     30  C   UNL     1       2.203  -6.767  23.777  0.00  0.00    +0.158 A 
ATOM     31  C   UNL     1       3.272  -7.343  24.449  0.00  0.00    +0.159 A 
ATOM     32  C   UNL     1       4.458  -6.635  24.646  0.00  0.00    +0.060 A 
BRANCH  31  33
ATOM     33  O   UNL     1       3.104  -8.613  24.932  0.00  0.00    -0.503 OA
ATOM     34  H   UNL     1       3.569  -9.223  24.330  0.00  0.00    +0.292 HD
ENDBRANCH  31  33
BRANCH  30  35
ATOM     35  O   UNL     1       1.014  -7.428  23.682  0.00  0.00    -0.503 OA
ATOM     36  H   UNL     1       1.109  -7.990  22.887  0.00  0.00    +0.292 HD
ENDBRANCH  30  35
ENDBRANCH  26  27
BRANCH  25  37
ATOM     37  O   UNL     1       9.381  -1.079  25.766  0.00  0.00    -0.506 OA
ATOM     38  H   UNL     1       9.224  -1.687  26.507  0.00  0.00    +0.292 HD
ENDBRANCH  25  37
BRANCH  22  39
ATOM     39  O   UNL     1       9.541  -1.203  21.052  0.00  0.00    -0.507 OA
ATOM     40  H   UNL     1      10.144  -0.474  21.272  0.00  0.00    +0.292 HD
ENDBRANCH  22  39
ENDBRANCH  15  16
ENDBRANCH   6  15
BRANCH   1  41
ATOM     41  O   UNL     1       4.184  -1.977  28.647  0.00  0.00    -0.449 OA
BRANCH  41  42
ATOM     42  C   UNL     1       3.637  -0.818  28.182  0.00  0.00    +0.332 C 
ATOM     43  O   UNL     1       2.594  -0.310  28.550  0.00  0.00    -0.246 OA
BRANCH  42  45
ATOM     44  C   UNL     1       5.605   0.186  27.151  0.00  0.00    +0.015 C 
ATOM     45  C   UNL     1       4.425  -0.434  26.995  0.00  0.00    +0.092 C 
BRANCH  44  47
ATOM     46  C   UNL     1       7.396   1.738  26.267  0.00  0.00    +0.012 A 
ATOM     47  C   UNL     1       6.329   0.847  26.052  0.00  0.00    -0.021 A 
ATOM     48  C   UNL     1       5.943   0.564  24.733  0.00  0.00    +0.057 A 
ATOM     49  C   UNL     1       6.623   1.149  23.671  0.00  0.00    +0.159 A 
ATOM     50  C   UNL     1       7.685   2.019  23.895  0.00  0.00    +0.158 A 
ATOM     51  C   UNL     1       8.081   2.317  25.191  0.00  0.00    +0.050 A 
BRANCH  50  52
ATOM     52  O   UNL     1       8.306   2.561  22.804  0.00  0.00    -0.503 OA
ATOM     53  H   UNL     1       8.906   1.890  22.435  0.00  0.00    +0.292 HD
ENDBRANCH  50  52
BRANCH  49  54
ATOM     54  O   UNL     1       6.239   0.860  22.392  0.00  0.00    -0.503 OA
ATOM     55  H   UNL     1       7.077   0.679  21.921  0.00  0.00    +0.292 HD
ENDBRANCH  49  54
ENDBRANCH  44  47
ENDBRANCH  42  45
ENDBRANCH  41  42
ENDBRANCH   1  41
TORSDOF 17
ENDMDL
MODEL 7
REMARK VINA RESULT:      -6.5      2.416      7.449
REMARK  Name = 
REMARK  17 active torsions:
REMARK  status: ('A' for Active; 'I' for Inactive)
REMARK    1  A    between atoms: C_3  and  O_49
REMARK    2  A    between atoms: C_4  and  O_48
REMARK    3  A    between atoms: C_6  and  C_7
REMARK    4  A    between atoms: C_8  and  C_9
REMARK    5  A    between atoms: C_9  and  O_11
REMARK    6  A    between atoms: O_11  and  C_12
REMARK    7  A    between atoms: C_14  and  O_26
REMARK    8  A    between atoms: C_17  and  C_23
REMARK    9  A    between atoms: C_18  and  O_22
REMARK   10  A    between atoms: C_20  and  O_21
REMARK   11  A    between atoms: C_23  and  O_25
REMARK   12  A    between atoms: O_26  and  C_27
REMARK   13  A    between atoms: C_28  and  C_40
REMARK   14  A    between atoms: C_32  and  O_39
REMARK   15  A    between atoms: C_34  and  O_38
REMARK   16  A    between atoms: C_42  and  O_47
REMARK   17  A    between atoms: C_43  and  O_46
REMARK                            x       y       z     vdW  Elec       q    Type
REMARK                         _______ _______ _______ _____ _____    ______ ____
ROOT
ATOM      1  C   UNL     1       7.504  -1.280  22.977  0.00  0.00    +0.276 C 
ATOM      2  C   UNL     1       8.269  -0.458  21.938  0.00  0.00    +0.193 C 
ATOM      3  C   UNL     1       9.800  -0.578  22.079  0.00  0.00    +0.186 C 
ATOM      4  C   UNL     1      10.272  -0.427  23.523  0.00  0.00    +0.261 C 
ATOM      5  O   UNL     1       9.584  -1.351  24.355  0.00  0.00    -0.321 OA
ATOM      6  C   UNL     1       8.151  -1.192  24.382  0.00  0.00    +0.352 C 
ENDROOT
BRANCH   4   7
ATOM      7  C   UNL     1      10.300   1.020  24.015  0.00  0.00    +0.337 C 
ATOM      8  O   UNL     1      10.282   2.001  23.286  0.00  0.00    -0.248 OA
BRANCH   7   9
ATOM      9  O   UNL     1      10.294   1.113  25.367  0.00  0.00    -0.479 OA
ATOM     10  H   UNL     1      10.058   2.009  25.683  0.00  0.00    +0.295 HD
ENDBRANCH   7   9
ENDBRANCH   4   7
BRANCH   3  11
ATOM     11  O   UNL     1      10.223  -1.885  21.633  0.00  0.00    -0.386 OA
ATOM     12  H   UNL     1      10.561  -2.366  22.415  0.00  0.00    +0.210 HD
ENDBRANCH   3  11
BRANCH   2  13
ATOM     13  O   UNL     1       7.802   0.895  21.967  0.00  0.00    -0.385 OA
ATOM     14  H   UNL     1       6.879   0.940  22.293  0.00  0.00    +0.210 HD
ENDBRANCH   2  13
BRANCH   6  15
ATOM     15  O   UNL     1       7.753  -0.011  25.079  0.00  0.00    -0.452 OA
BRANCH  15  16
ATOM     16  C   UNL     1       6.461   0.001  25.616  0.00  0.00    +0.214 A 
ATOM     17  C   UNL     1       5.977  -1.088  26.545  0.00  0.00    +0.238 A 
ATOM     18  O   UNL     1       6.652  -2.070  26.811  0.00  0.00    -0.283 OA
ATOM     19  C   UNL     1       4.649  -0.942  27.149  0.00  0.00    +0.109 A 
ATOM     20  C   UNL     1       3.930   0.203  26.850  0.00  0.00    +0.147 A 
ATOM     21  C   UNL     1       2.685   0.436  27.443  0.00  0.00    +0.092 A 
ATOM     22  C   UNL     1       2.158  -0.515  28.312  0.00  0.00    +0.124 A 
ATOM     23  C   UNL     1       2.849  -1.689  28.591  0.00  0.00    +0.091 A 
ATOM     24  O   UNL     1       4.365   1.147  25.963  0.00  0.00    -0.451 OA
ATOM     25  C   UNL     1       4.095  -1.895  28.015  0.00  0.00    +0.135 A 
ATOM     26  C   UNL     1       5.602   1.007  25.338  0.00  0.00    +0.181 A 
BRANCH  26  27
ATOM     27  C   UNL     1       5.838   2.116  24.349  0.00  0.00    +0.025 A 
ATOM     28  C   UNL     1       6.995   2.921  24.479  0.00  0.00    +0.015 A 
ATOM     29  C   UNL     1       7.164   4.099  23.742  0.00  0.00    +0.050 A 
ATOM     30  C   UNL     1       6.195   4.467  22.829  0.00  0.00    +0.158 A 
ATOM     31  C   UNL     1       5.094   3.650  22.611  0.00  0.00    +0.159 A 
ATOM     32  C   UNL     1       4.898   2.497  23.372  0.00  0.00    +0.060 A 
BRANCH  31  33
ATOM     33  O   UNL     1       4.203   4.036  21.646  0.00  0.00    -0.503 OA
ATOM     34  H   UNL     1       3.330   3.677  21.888  0.00  0.00    +0.292 HD
ENDBRANCH  31  33
BRANCH  30  35
ATOM     35  O   UNL     1       6.322   5.645  22.154  0.00  0.00    -0.503 OA
ATOM     36  H   UNL     1       7.172   6.015  22.467  0.00  0.00    +0.292 HD
ENDBRANCH  30  35
ENDBRANCH  26  27
BRANCH  25  37
ATOM     37  O   UNL     1       4.762  -3.055  28.309  0.00  0.00    -0.506 OA
ATOM     38  H   UNL     1       4.545  -3.362  29.205  0.00  0.00    +0.292 HD
ENDBRANCH  25  37
BRANCH  22  39
ATOM     39  O   UNL     1       0.942  -0.351  28.909  0.00  0.00    -0.507 OA
ATOM     40  H   UNL     1       1.058   0.157  29.728  0.00  0.00    +0.292 HD
ENDBRANCH  22  39
ENDBRANCH  15  16
ENDBRANCH   6  15
BRANCH   1  41
ATOM     41  O   UNL     1       7.537  -2.676  22.571  0.00  0.00    -0.449 OA
BRANCH  41  42
ATOM     42  C   UNL     1       6.310  -3.254  22.435  0.00  0.00    +0.332 C 
ATOM     43  O   UNL     1       5.594  -3.213  21.451  0.00  0.00    -0.246 OA
BRANCH  42  45
ATOM     44  C   UNL     1       6.635  -4.698  24.373  0.00  0.00    +0.015 C 
ATOM     45  C   UNL     1       5.923  -3.728  23.777  0.00  0.00    +0.092 C 
BRANCH  44  47
ATOM     46  C   UNL     1       6.885  -5.409  26.787  0.00  0.00    +0.012 A 
ATOM     47  C   UNL     1       6.180  -5.424  25.570  0.00  0.00    -0.021 A 
ATOM     48  C   UNL     1       4.981  -6.151  25.496  0.00  0.00    +0.057 A 
ATOM     49  C   UNL     1       4.508  -6.824  26.616  0.00  0.00    +0.159 A 
ATOM     50  C   UNL     1       5.208  -6.791  27.817  0.00  0.00    +0.158 A 
ATOM     51  C   UNL     1       6.397  -6.084  27.914  0.00  0.00    +0.050 A 
BRANCH  50  52
ATOM     52  O   UNL     1       4.685  -7.479  28.877  0.00  0.00    -0.503 OA
ATOM     53  H   UNL     1       5.339  -7.466  29.597  0.00  0.00    +0.292 HD
ENDBRANCH  50  52
BRANCH  49  54
ATOM     54  O   UNL     1       3.338  -7.523  26.529  0.00  0.00    -0.503 OA
ATOM     55  H   UNL     1       2.687  -6.969  27.003  0.00  0.00    +0.292 HD
ENDBRANCH  49  54
ENDBRANCH  44  47
ENDBRANCH  42  45
ENDBRANCH  41  42
ENDBRANCH   1  41
TORSDOF 17
ENDMDL
MODEL 8
REMARK VINA RESULT:      -6.5      1.815      7.216
REMARK  Name = 
REMARK  17 active torsions:
REMARK  status: ('A' for Active; 'I' for Inactive)
REMARK    1  A    between atoms: C_3  and  O_49
REMARK    2  A    between atoms: C_4  and  O_48
REMARK    3  A    between atoms: C_6  and  C_7
REMARK    4  A    between atoms: C_8  and  C_9
REMARK    5  A    between atoms: C_9  and  O_11
REMARK    6  A    between atoms: O_11  and  C_12
REMARK    7  A    between atoms: C_14  and  O_26
REMARK    8  A    between atoms: C_17  and  C_23
REMARK    9  A    between atoms: C_18  and  O_22
REMARK   10  A    between atoms: C_20  and  O_21
REMARK   11  A    between atoms: C_23  and  O_25
REMARK   12  A    between atoms: O_26  and  C_27
REMARK   13  A    between atoms: C_28  and  C_40
REMARK   14  A    between atoms: C_32  and  O_39
REMARK   15  A    between atoms: C_34  and  O_38
REMARK   16  A    between atoms: C_42  and  O_47
REMARK   17  A    between atoms: C_43  and  O_46
REMARK                            x       y       z     vdW  Elec       q    Type
REMARK                         _______ _______ _______ _____ _____    ______ ____
ROOT
ATOM      1  C   UNL     1       3.768  -0.021  27.263  0.00  0.00    +0.276 C 
ATOM      2  C   UNL     1       3.460   1.104  28.252  0.00  0.00    +0.193 C 
ATOM      3  C   UNL     1       3.082   2.430  27.561  0.00  0.00    +0.186 C 
ATOM      4  C   UNL     1       4.031   2.792  26.421  0.00  0.00    +0.261 C 
ATOM      5  O   UNL     1       4.111   1.712  25.500  0.00  0.00    -0.321 OA
ATOM      6  C   UNL     1       4.602   0.476  26.056  0.00  0.00    +0.352 C 
ENDROOT
BRANCH   4   7
ATOM      7  C   UNL     1       5.367   3.368  26.888  0.00  0.00    +0.337 C 
ATOM      8  O   UNL     1       5.637   3.640  28.049  0.00  0.00    -0.248 OA
BRANCH   7   9
ATOM      9  O   UNL     1       6.259   3.505  25.878  0.00  0.00    -0.479 OA
ATOM     10  H   UNL     1       6.792   4.324  25.953  0.00  0.00    +0.295 HD
ENDBRANCH   7   9
ENDBRANCH   4   7
BRANCH   3  11
ATOM     11  O   UNL     1       1.761   2.316  26.990  0.00  0.00    -0.386 OA
ATOM     12  H   UNL     1       1.127   2.241  27.730  0.00  0.00    +0.210 HD
ENDBRANCH   3  11
BRANCH   2  13
ATOM     13  O   UNL     1       4.546   1.235  29.174  0.00  0.00    -0.385 OA
ATOM     14  H   UNL     1       4.423   0.647  29.948  0.00  0.00    +0.210 HD
ENDBRANCH   2  13
BRANCH   6  15
ATOM     15  O   UNL     1       5.995   0.539  26.360  0.00  0.00    -0.452 OA
BRANCH  15  16
ATOM     16  C   UNL     1       6.780  -0.547  25.957  0.00  0.00    +0.214 A 
ATOM     17  C   UNL     1       6.688  -1.891  26.642  0.00  0.00    +0.238 A 
ATOM     18  O   UNL     1       5.990  -2.078  27.626  0.00  0.00    -0.283 OA
ATOM     19  C   UNL     1       7.464  -3.004  26.087  0.00  0.00    +0.109 A 
ATOM     20  C   UNL     1       8.214  -2.760  24.949  0.00  0.00    +0.147 A 
ATOM     21  C   UNL     1       8.925  -3.794  24.331  0.00  0.00    +0.092 A 
ATOM     22  C   UNL     1       8.900  -5.066  24.894  0.00  0.00    +0.124 A 
ATOM     23  C   UNL     1       8.185  -5.320  26.059  0.00  0.00    +0.091 A 
ATOM     24  O   UNL     1       8.326  -1.522  24.380  0.00  0.00    -0.451 OA
ATOM     25  C   UNL     1       7.463  -4.290  26.647  0.00  0.00    +0.135 A 
ATOM     26  C   UNL     1       7.637  -0.437  24.918  0.00  0.00    +0.181 A 
BRANCH  26  27
ATOM     27  C   UNL     1       7.969   0.833  24.182  0.00  0.00    +0.025 A 
ATOM     28  C   UNL     1       9.094   1.590  24.587  0.00  0.00    +0.015 A 
ATOM     29  C   UNL     1       9.330   2.882  24.102  0.00  0.00    +0.050 A 
ATOM     30  C   UNL     1       8.465   3.419  23.169  0.00  0.00    +0.158 A 
ATOM     31  C   UNL     1       7.406   2.666  22.682  0.00  0.00    +0.159 A 
ATOM     32  C   UNL     1       7.139   1.394  23.192  0.00  0.00    +0.060 A 
BRANCH  31  33
ATOM     33  O   UNL     1       6.623   3.230  21.711  0.00  0.00    -0.503 OA
ATOM     34  H   UNL     1       6.877   4.168  21.633  0.00  0.00    +0.292 HD
ENDBRANCH  31  33
BRANCH  30  35
ATOM     35  O   UNL     1       8.653   4.699  22.739  0.00  0.00    -0.503 OA
ATOM     36  H   UNL     1       7.919   4.856  22.111  0.00  0.00    +0.292 HD
ENDBRANCH  30  35
ENDBRANCH  26  27
BRANCH  25  37
ATOM     37  O   UNL     1       6.759  -4.561  27.790  0.00  0.00    -0.506 OA
ATOM     38  H   UNL     1       5.804  -4.463  27.640  0.00  0.00    +0.292 HD
ENDBRANCH  25  37
BRANCH  22  39
ATOM     39  O   UNL     1       9.586  -6.110  24.345  0.00  0.00    -0.507 OA
ATOM     40  H   UNL     1       8.953  -6.789  24.058  0.00  0.00    +0.292 HD
ENDBRANCH  22  39
ENDBRANCH  15  16
ENDBRANCH   6  15
BRANCH   1  41
ATOM     41  O   UNL     1       2.510  -0.529  26.740  0.00  0.00    -0.449 OA
BRANCH  41  42
ATOM     42  C   UNL     1       2.219  -1.808  27.114  0.00  0.00    +0.332 C 
ATOM     43  O   UNL     1       1.877  -2.181  28.221  0.00  0.00    -0.246 OA
BRANCH  42  45
ATOM     44  C   UNL     1       3.424  -3.727  26.211  0.00  0.00    +0.015 C 
ATOM     45  C   UNL     1       2.626  -2.671  25.988  0.00  0.00    +0.092 C 
BRANCH  44  47
ATOM     46  C   UNL     1       4.374  -5.853  25.225  0.00  0.00    +0.012 A 
ATOM     47  C   UNL     1       4.101  -4.476  25.140  0.00  0.00    -0.021 A 
ATOM     48  C   UNL     1       4.476  -3.786  23.977  0.00  0.00    +0.057 A 
ATOM     49  C   UNL     1       5.091  -4.469  22.934  0.00  0.00    +0.159 A 
ATOM     50  C   UNL     1       5.346  -5.833  23.025  0.00  0.00    +0.158 A 
ATOM     51  C   UNL     1       4.988  -6.535  24.166  0.00  0.00    +0.050 A 
BRANCH  50  52
ATOM     52  O   UNL     1       5.957  -6.440  21.963  0.00  0.00    -0.503 OA
ATOM     53  H   UNL     1       6.647  -5.841  21.629  0.00  0.00    +0.292 HD
ENDBRANCH  50  52
BRANCH  49  54
ATOM     54  O   UNL     1       5.447  -3.785  21.806  0.00  0.00    -0.503 OA
ATOM     55  H   UNL     1       5.374  -4.444  21.088  0.00  0.00    +0.292 HD
ENDBRANCH  49  54
ENDBRANCH  44  47
ENDBRANCH  42  45
ENDBRANCH  41  42
ENDBRANCH   1  41
TORSDOF 17
ENDMDL
MODEL 9
REMARK VINA RESULT:      -6.4      2.243      5.248
REMARK  Name = 
REMARK  17 active torsions:
REMARK  status: ('A' for Active; 'I' for Inactive)
REMARK    1  A    between atoms: C_3  and  O_49
REMARK    2  A    between atoms: C_4  and  O_48
REMARK    3  A    between atoms: C_6  and  C_7
REMARK    4  A    between atoms: C_8  and  C_9
REMARK    5  A    between atoms: C_9  and  O_11
REMARK    6  A    between atoms: O_11  and  C_12
REMARK    7  A    between atoms: C_14  and  O_26
REMARK    8  A    between atoms: C_17  and  C_23
REMARK    9  A    between atoms: C_18  and  O_22
REMARK   10  A    between atoms: C_20  and  O_21
REMARK   11  A    between atoms: C_23  and  O_25
REMARK   12  A    between atoms: O_26  and  C_27
REMARK   13  A    between atoms: C_28  and  C_40
REMARK   14  A    between atoms: C_32  and  O_39
REMARK   15  A    between atoms: C_34  and  O_38
REMARK   16  A    between atoms: C_42  and  O_47
REMARK   17  A    between atoms: C_43  and  O_46
REMARK                            x       y       z     vdW  Elec       q    Type
REMARK                         _______ _______ _______ _____ _____    ______ ____
ROOT
ATOM      1  C   UNL     1       4.487   0.354  27.642  0.00  0.00    +0.276 C 
ATOM      2  C   UNL     1       2.998   0.581  27.908  0.00  0.00    +0.193 C 
ATOM      3  C   UNL     1       2.437  -0.324  29.024  0.00  0.00    +0.186 C 
ATOM      4  C   UNL     1       2.868  -1.781  28.873  0.00  0.00    +0.261 C 
ATOM      5  O   UNL     1       4.284  -1.858  28.783  0.00  0.00    -0.321 OA
ATOM      6  C   UNL     1       4.860  -1.150  27.666  0.00  0.00    +0.352 C 
ENDROOT
BRANCH   4   7
ATOM      7  C   UNL     1       2.090  -2.547  27.803  0.00  0.00    +0.337 C 
ATOM      8  O   UNL     1       1.101  -2.120  27.225  0.00  0.00    -0.248 OA
BRANCH   7   9
ATOM      9  O   UNL     1       2.643  -3.750  27.516  0.00  0.00    -0.479 OA
ATOM     10  H   UNL     1       2.004  -4.373  27.110  0.00  0.00    +0.295 HD
ENDBRANCH   7   9
ENDBRANCH   4   7
BRANCH   3  11
ATOM     11  O   UNL     1       2.928   0.129  30.304  0.00  0.00    -0.386 OA
ATOM     12  H   UNL     1       2.279  -0.148  30.981  0.00  0.00    +0.210 HD
ENDBRANCH   3  11
BRANCH   2  13
ATOM     13  O   UNL     1       2.275   0.477  26.677  0.00  0.00    -0.385 OA
ATOM     14  H   UNL     1       2.870   0.221  25.942  0.00  0.00    +0.210 HD
ENDBRANCH   2  13
BRANCH   6  15
ATOM     15  O   UNL     1       4.578  -1.789  26.421  0.00  0.00    -0.452 OA
BRANCH  15  16
ATOM     16  C   UNL     1       5.646  -1.930  25.527  0.00  0.00    +0.214 A 
ATOM     17  C   UNL     1       6.027  -0.828  24.567  0.00  0.00    +0.238 A 
ATOM     18  O   UNL     1       5.382   0.204  24.462  0.00  0.00    -0.283 OA
ATOM     19  C   UNL     1       7.226  -1.013  23.742  0.00  0.00    +0.109 A 
ATOM     20  C   UNL     1       7.950  -2.180  23.916  0.00  0.00    +0.147 A 
ATOM     21  C   UNL     1       9.138  -2.391  23.209  0.00  0.00    +0.092 A 
ATOM     22  C   UNL     1       9.567  -1.430  22.298  0.00  0.00    +0.124 A 
ATOM     23  C   UNL     1       8.830  -0.271  22.082  0.00  0.00    +0.091 A 
ATOM     24  O   UNL     1       7.554  -3.187  24.750  0.00  0.00    -0.451 OA
ATOM     25  C   UNL     1       7.666  -0.063  22.809  0.00  0.00    +0.135 A 
ATOM     26  C   UNL     1       6.393  -3.056  25.508  0.00  0.00    +0.181 A 
BRANCH  26  27
ATOM     27  C   UNL     1       6.111  -4.310  26.290  0.00  0.00    +0.025 A 
ATOM     28  C   UNL     1       5.331  -5.331  25.697  0.00  0.00    +0.015 A 
ATOM     29  C   UNL     1       4.844  -6.416  26.438  0.00  0.00    +0.050 A 
ATOM     30  C   UNL     1       5.171  -6.517  27.776  0.00  0.00    +0.158 A 
ATOM     31  C   UNL     1       6.012  -5.582  28.363  0.00  0.00    +0.159 A 
ATOM     32  C   UNL     1       6.465  -4.476  27.643  0.00  0.00    +0.060 A 
BRANCH  31  33
ATOM     33  O   UNL     1       6.351  -5.775  29.675  0.00  0.00    -0.503 OA
ATOM     34  H   UNL     1       5.564  -5.582  30.217  0.00  0.00    +0.292 HD
ENDBRANCH  31  33
BRANCH  30  35
ATOM     35  O   UNL     1       4.650  -7.536  28.518  0.00  0.00    -0.503 OA
ATOM     36  H   UNL     1       4.298  -8.165  27.856  0.00  0.00    +0.292 HD
ENDBRANCH  30  35
ENDBRANCH  26  27
BRANCH  25  37
ATOM     37  O   UNL     1       6.958   1.088  22.587  0.00  0.00    -0.506 OA
ATOM     38  H   UNL     1       6.053   1.010  22.929  0.00  0.00    +0.292 HD
ENDBRANCH  25  37
BRANCH  22  39
ATOM     39  O   UNL     1      10.709  -1.587  21.569  0.00  0.00    -0.507 OA
ATOM     40  H   UNL     1      11.299  -2.204  22.032  0.00  0.00    +0.292 HD
ENDBRANCH  22  39
ENDBRANCH  15  16
ENDBRANCH   6  15
BRANCH   1  41
ATOM     41  O   UNL     1       5.246   1.005  28.698  0.00  0.00    -0.449 OA
BRANCH  41  42
ATOM     42  C   UNL     1       6.567   1.188  28.412  0.00  0.00    +0.332 C 
ATOM     43  O   UNL     1       7.512   0.765  29.050  0.00  0.00    -0.246 OA
BRANCH  42  45
ATOM     44  C   UNL     1       7.499   2.035  26.324  0.00  0.00    +0.015 C 
ATOM     45  C   UNL     1       6.621   2.187  27.327  0.00  0.00    +0.092 C 
BRANCH  44  47
ATOM     46  C   UNL     1       6.999   4.219  25.151  0.00  0.00    +0.012 A 
ATOM     47  C   UNL     1       7.820   3.096  25.355  0.00  0.00    -0.021 A 
ATOM     48  C   UNL     1       9.007   2.987  24.614  0.00  0.00    +0.057 A 
ATOM     49  C   UNL     1       9.356   3.986  23.712  0.00  0.00    +0.159 A 
ATOM     50  C   UNL     1       8.541   5.097  23.528  0.00  0.00    +0.158 A 
ATOM     51  C   UNL     1       7.361   5.225  24.245  0.00  0.00    +0.050 A 
BRANCH  50  52
ATOM     52  O   UNL     1       8.944   6.039  22.621  0.00  0.00    -0.503 OA
ATOM     53  H   UNL     1       8.219   6.678  22.508  0.00  0.00    +0.292 HD
ENDBRANCH  50  52
BRANCH  49  54
ATOM     54  O   UNL     1      10.517   3.868  23.002  0.00  0.00    -0.503 OA
ATOM     55  H   UNL     1      10.273   4.131  22.092  0.00  0.00    +0.292 HD
ENDBRANCH  49  54
ENDBRANCH  44  47
ENDBRANCH  42  45
ENDBRANCH  41  42
ENDBRANCH   1  41
TORSDOF 17
ENDMDL
