MODEL 1
REMARK VINA RESULT:      -7.5      0.000      0.000
REMARK  Name = 
REMARK  10 active torsions:
REMARK  status: ('A' for Active; 'I' for Inactive)
REMARK    1  A    between atoms: C_3  and  O_34
REMARK    2  A    between atoms: C_4  and  O_29
REMARK    3  A    between atoms: C_6  and  C_7
REMARK    4  A    between atoms: C_8  and  O_24
REMARK    5  A    between atoms: C_12  and  O_23
REMARK    6  A    between atoms: C_14  and  O_18
REMARK    7  A    between atoms: O_18  and  S_19
REMARK    8  A    between atoms: O_24  and  S_25
REMARK    9  A    between atoms: O_29  and  S_30
REMARK   10  A    between atoms: O_34  and  S_35
REMARK                            x       y       z     vdW  Elec       q    Type
REMARK                         _______ _______ _______ _____ _____    ______ ____
ROOT
ATOM      1  C   UNL     1       6.438  -1.022  24.357  0.00  0.00    +0.184 A 
ATOM      2  O   UNL     1       5.863   0.252  24.346  0.00  0.00    -0.451 OA
ATOM      3  C   UNL     1       6.376   1.221  23.521  0.00  0.00    +0.147 A 
ATOM      4  C   UNL     1       7.510   1.016  22.752  0.00  0.00    +0.109 A 
ATOM      5  C   UNL     1       8.012   2.065  21.964  0.00  0.00    +0.135 A 
ATOM      6  C   UNL     1       7.371   3.307  21.928  0.00  0.00    +0.095 A 
ATOM      7  C   UNL     1       6.197   3.502  22.654  0.00  0.00    +0.162 A 
ATOM      8  C   UNL     1       8.123  -0.321  22.752  0.00  0.00    +0.241 A 
ATOM      9  O   UNL     1       9.079  -0.526  22.004  0.00  0.00    -0.283 OA
ATOM     10  C   UNL     1       5.715   2.459  23.468  0.00  0.00    +0.095 A 
ATOM     11  C   UNL     1       7.506  -1.373  23.606  0.00  0.00    +0.244 A 
ENDROOT
BRANCH   1  13
ATOM     12  C   UNL     1       5.767  -1.832  26.617  0.00  0.00    +0.015 A 
ATOM     13  C   UNL     1       5.657  -1.935  25.227  0.00  0.00    +0.025 A 
ATOM     14  C   UNL     1       4.954  -3.030  24.685  0.00  0.00    +0.064 A 
ATOM     15  C   UNL     1       4.460  -4.053  25.513  0.00  0.00    +0.200 A 
ATOM     16  C   UNL     1       4.646  -3.972  26.911  0.00  0.00    +0.199 A 
ATOM     17  C   UNL     1       5.269  -2.843  27.451  0.00  0.00    +0.053 A 
BRANCH  15  18
ATOM     18  O   UNL     1       3.781  -5.170  25.067  0.00  0.00    -0.357 OA
BRANCH  18  19
ATOM     19  S   UNL     1       4.335  -6.245  23.967  0.00  0.00    +0.043 S 
ATOM     20  O   UNL     1       3.617  -5.890  22.737  0.00  0.00    -0.259 OA
ATOM     21  O   UNL     1       3.967  -7.573  24.465  0.00  0.00    -0.336 OA
ATOM     22  O   UNL     1       5.771  -6.010  23.865  0.00  0.00    -0.336 OA
ENDBRANCH  18  19
ENDBRANCH  15  18
BRANCH  16  23
ATOM     23  O   UNL     1       4.281  -5.083  27.647  0.00  0.00    -0.357 OA
BRANCH  23  24
ATOM     24  S   UNL     1       5.313  -6.171  28.306  0.00  0.00    +0.043 S 
ATOM     25  O   UNL     1       6.110  -6.644  27.170  0.00  0.00    -0.259 OA
ATOM     26  O   UNL     1       4.467  -7.212  28.890  0.00  0.00    -0.336 OA
ATOM     27  O   UNL     1       6.122  -5.442  29.287  0.00  0.00    -0.336 OA
ENDBRANCH  23  24
ENDBRANCH  16  23
ENDBRANCH   1  13
BRANCH   5  28
ATOM     28  O   UNL     1       9.138   1.930  21.189  0.00  0.00    -0.506 OA
ATOM     29  H   UNL     1       9.883   1.738  21.806  0.00  0.00    +0.292 HD
ENDBRANCH   5  28
BRANCH   7  30
ATOM     30  O   UNL     1       5.463   4.667  22.665  0.00  0.00    -0.360 OA
BRANCH  30  31
ATOM     31  S   UNL     1       6.040   6.121  23.157  0.00  0.00    +0.042 S 
ATOM     32  O   UNL     1       4.840   6.853  23.572  0.00  0.00    -0.259 OA
ATOM     33  O   UNL     1       6.701   6.705  21.990  0.00  0.00    -0.336 OA
ATOM     34  O   UNL     1       6.944   5.817  24.267  0.00  0.00    -0.336 OA
ENDBRANCH  30  31
ENDBRANCH   7  30
BRANCH  11  35
ATOM     35  O   UNL     1       7.960  -2.659  23.401  0.00  0.00    -0.353 OA
BRANCH  35  36
ATOM     36  S   UNL     1       9.107  -3.375  24.316  0.00  0.00    +0.043 S 
ATOM     37  O   UNL     1      10.369  -2.926  23.723  0.00  0.00    -0.259 OA
ATOM     38  O   UNL     1       8.851  -4.799  24.105  0.00  0.00    -0.336 OA
ATOM     39  O   UNL     1       8.900  -2.888  25.674  0.00  0.00    -0.336 OA
ENDBRANCH  35  36
ENDBRANCH  11  35
TORSDOF 10
ENDMDL
MODEL 2
REMARK VINA RESULT:      -7.4      1.210      1.929
REMARK  Name = 
REMARK  10 active torsions:
REMARK  status: ('A' for Active; 'I' for Inactive)
REMARK    1  A    between atoms: C_3  and  O_34
REMARK    2  A    between atoms: C_4  and  O_29
REMARK    3  A    between atoms: C_6  and  C_7
REMARK    4  A    between atoms: C_8  and  O_24
REMARK    5  A    between atoms: C_12  and  O_23
REMARK    6  A    between atoms: C_14  and  O_18
REMARK    7  A    between atoms: O_18  and  S_19
REMARK    8  A    between atoms: O_24  and  S_25
REMARK    9  A    between atoms: O_29  and  S_30
REMARK   10  A    between atoms: O_34  and  S_35
REMARK                            x       y       z     vdW  Elec       q    Type
REMARK                         _______ _______ _______ _____ _____    ______ ____
ROOT
ATOM      1  C   UNL     1       6.368  -0.980  24.342  0.00  0.00    +0.184 A 
ATOM      2  O   UNL     1       5.631   0.204  24.453  0.00  0.00    -0.451 OA
ATOM      3  C   UNL     1       5.990   1.299  23.709  0.00  0.00    +0.147 A 
ATOM      4  C   UNL     1       7.118   1.312  22.906  0.00  0.00    +0.109 A 
ATOM      5  C   UNL     1       7.456   2.482  22.206  0.00  0.00    +0.135 A 
ATOM      6  C   UNL     1       6.658   3.627  22.290  0.00  0.00    +0.095 A 
ATOM      7  C   UNL     1       5.490   3.601  23.051  0.00  0.00    +0.162 A 
ATOM      8  C   UNL     1       7.900   0.073  22.778  0.00  0.00    +0.241 A 
ATOM      9  O   UNL     1       8.853   0.062  21.999  0.00  0.00    -0.283 OA
ATOM     10  C   UNL     1       5.171   2.439  23.777  0.00  0.00    +0.095 A 
ATOM     11  C   UNL     1       7.450  -1.121  23.546  0.00  0.00    +0.244 A 
ENDROOT
BRANCH   1  13
ATOM     12  C   UNL     1       5.543  -1.882  26.515  0.00  0.00    +0.015 A 
ATOM     13  C   UNL     1       5.737  -2.059  25.142  0.00  0.00    +0.025 A 
ATOM     14  C   UNL     1       5.505  -3.333  24.585  0.00  0.00    +0.064 A 
ATOM     15  C   UNL     1       5.184  -4.431  25.402  0.00  0.00    +0.200 A 
ATOM     16  C   UNL     1       5.066  -4.252  26.799  0.00  0.00    +0.199 A 
ATOM     17  C   UNL     1       5.214  -2.970  27.337  0.00  0.00    +0.053 A 
BRANCH  15  18
ATOM     18  O   UNL     1       4.962  -5.715  24.946  0.00  0.00    -0.357 OA
BRANCH  18  19
ATOM     19  S   UNL     1       3.614  -6.235  24.182  0.00  0.00    +0.043 S 
ATOM     20  O   UNL     1       3.634  -7.689  24.386  0.00  0.00    -0.259 OA
ATOM     21  O   UNL     1       3.769  -5.868  22.772  0.00  0.00    -0.336 OA
ATOM     22  O   UNL     1       2.495  -5.590  24.859  0.00  0.00    -0.336 OA
ENDBRANCH  18  19
ENDBRANCH  15  18
BRANCH  16  23
ATOM     23  O   UNL     1       4.909  -5.397  27.556  0.00  0.00    -0.357 OA
BRANCH  23  24
ATOM     24  S   UNL     1       6.057  -6.076  28.506  0.00  0.00    +0.043 S 
ATOM     25  O   UNL     1       5.692  -7.495  28.554  0.00  0.00    -0.259 OA
ATOM     26  O   UNL     1       5.942  -5.407  29.802  0.00  0.00    -0.336 OA
ATOM     27  O   UNL     1       7.341  -5.855  27.836  0.00  0.00    -0.336 OA
ENDBRANCH  23  24
ENDBRANCH  16  23
ENDBRANCH   1  13
BRANCH   5  28
ATOM     28  O   UNL     1       8.568   2.564  21.403  0.00  0.00    -0.506 OA
ATOM     29  H   UNL     1       8.297   3.066  20.599  0.00  0.00    +0.292 HD
ENDBRANCH   5  28
BRANCH   7  30
ATOM     30  O   UNL     1       4.610   4.653  23.177  0.00  0.00    -0.360 OA
BRANCH  30  31
ATOM     31  S   UNL     1       3.095   4.673  22.548  0.00  0.00    +0.042 S 
ATOM     32  O   UNL     1       2.947   6.038  22.034  0.00  0.00    -0.259 OA
ATOM     33  O   UNL     1       2.195   4.371  23.661  0.00  0.00    -0.336 OA
ATOM     34  O   UNL     1       3.106   3.658  21.495  0.00  0.00    -0.336 OA
ENDBRANCH  30  31
ENDBRANCH   7  30
BRANCH  11  35
ATOM     35  O   UNL     1       8.062  -2.312  23.220  0.00  0.00    -0.353 OA
BRANCH  35  36
ATOM     36  S   UNL     1       9.338  -2.931  24.029  0.00  0.00    +0.043 S 
ATOM     37  O   UNL     1       9.039  -4.361  24.129  0.00  0.00    -0.259 OA
ATOM     38  O   UNL     1       9.273  -2.243  25.318  0.00  0.00    -0.336 OA
ATOM     39  O   UNL     1      10.511  -2.640  23.214  0.00  0.00    -0.336 OA
ENDBRANCH  35  36
ENDBRANCH  11  35
TORSDOF 10
ENDMDL
MODEL 3
REMARK VINA RESULT:      -7.4      1.413      2.176
REMARK  Name = 
REMARK  10 active torsions:
REMARK  status: ('A' for Active; 'I' for Inactive)
REMARK    1  A    between atoms: C_3  and  O_34
REMARK    2  A    between atoms: C_4  and  O_29
REMARK    3  A    between atoms: C_6  and  C_7
REMARK    4  A    between atoms: C_8  and  O_24
REMARK    5  A    between atoms: C_12  and  O_23
REMARK    6  A    between atoms: C_14  and  O_18
REMARK    7  A    between atoms: O_18  and  S_19
REMARK    8  A    between atoms: O_24  and  S_25
REMARK    9  A    between atoms: O_29  and  S_30
REMARK   10  A    between atoms: O_34  and  S_35
REMARK                            x       y       z     vdW  Elec       q    Type
REMARK                         _______ _______ _______ _____ _____    ______ ____
ROOT
ATOM      1  C   UNL     1       6.672  -2.314  24.507  0.00  0.00    +0.184 A 
ATOM      2  O   UNL     1       6.336  -0.993  24.191  0.00  0.00    -0.451 OA
ATOM      3  C   UNL     1       7.128  -0.280  23.327  0.00  0.00    +0.147 A 
ATOM      4  C   UNL     1       8.310  -0.787  22.814  0.00  0.00    +0.109 A 
ATOM      5  C   UNL     1       9.099   0.013  21.972  0.00  0.00    +0.135 A 
ATOM      6  C   UNL     1       8.698   1.307  21.625  0.00  0.00    +0.095 A 
ATOM      7  C   UNL     1       7.481   1.802  22.092  0.00  0.00    +0.162 A 
ATOM      8  C   UNL     1       8.673  -2.176  23.136  0.00  0.00    +0.241 A 
ATOM      9  O   UNL     1       9.680  -2.653  22.612  0.00  0.00    -0.283 OA
ATOM     10  C   UNL     1       6.708   1.010  22.962  0.00  0.00    +0.095 A 
ATOM     11  C   UNL     1       7.761  -2.950  24.023  0.00  0.00    +0.244 A 
ENDROOT
BRANCH   1  13
ATOM     12  C   UNL     1       5.679  -2.774  26.747  0.00  0.00    +0.015 A 
ATOM     13  C   UNL     1       5.622  -2.926  25.358  0.00  0.00    +0.025 A 
ATOM     14  C   UNL     1       4.676  -3.818  24.815  0.00  0.00    +0.064 A 
ATOM     15  C   UNL     1       3.873  -4.616  25.649  0.00  0.00    +0.200 A 
ATOM     16  C   UNL     1       3.997  -4.505  27.052  0.00  0.00    +0.199 A 
ATOM     17  C   UNL     1       4.877  -3.559  27.586  0.00  0.00    +0.053 A 
BRANCH  15  18
ATOM     18  O   UNL     1       2.939  -5.530  25.204  0.00  0.00    -0.357 OA
BRANCH  18  19
ATOM     19  S   UNL     1       3.210  -6.714  24.110  0.00  0.00    +0.043 S 
ATOM     20  O   UNL     1       4.515  -7.261  24.501  0.00  0.00    -0.259 OA
ATOM     21  O   UNL     1       3.246  -6.065  22.797  0.00  0.00    -0.336 OA
ATOM     22  O   UNL     1       2.126  -7.675  24.283  0.00  0.00    -0.336 OA
ENDBRANCH  18  19
ENDBRANCH  15  18
BRANCH  16  23
ATOM     23  O   UNL     1       3.299  -5.429  27.807  0.00  0.00    -0.357 OA
BRANCH  23  24
ATOM     24  S   UNL     1       3.966  -6.629  28.700  0.00  0.00    +0.043 S 
ATOM     25  O   UNL     1       4.417  -5.958  29.924  0.00  0.00    -0.259 OA
ATOM     26  O   UNL     1       5.066  -7.156  27.892  0.00  0.00    -0.336 OA
ATOM     27  O   UNL     1       2.901  -7.601  28.960  0.00  0.00    -0.336 OA
ENDBRANCH  23  24
ENDBRANCH  16  23
ENDBRANCH   1  13
BRANCH   5  28
ATOM     28  O   UNL     1      10.288  -0.426  21.440  0.00  0.00    -0.506 OA
ATOM     29  H   UNL     1      10.755   0.372  21.098  0.00  0.00    +0.292 HD
ENDBRANCH   5  28
BRANCH   7  30
ATOM     30  O   UNL     1       6.967   3.043  21.787  0.00  0.00    -0.360 OA
BRANCH  30  31
ATOM     31  S   UNL     1       7.130   4.371  22.736  0.00  0.00    +0.042 S 
ATOM     32  O   UNL     1       7.272   5.471  21.778  0.00  0.00    -0.259 OA
ATOM     33  O   UNL     1       8.332   4.143  23.540  0.00  0.00    -0.336 OA
ATOM     34  O   UNL     1       5.893   4.438  23.514  0.00  0.00    -0.336 OA
ENDBRANCH  30  31
ENDBRANCH   7  30
BRANCH  11  35
ATOM     35  O   UNL     1       8.010  -4.303  24.108  0.00  0.00    -0.353 OA
BRANCH  35  36
ATOM     36  S   UNL     1       8.632  -5.032  25.430  0.00  0.00    +0.043 S 
ATOM     37  O   UNL     1       9.057  -3.921  26.285  0.00  0.00    -0.259 OA
ATOM     38  O   UNL     1       9.754  -5.795  24.885  0.00  0.00    -0.336 OA
ATOM     39  O   UNL     1       7.548  -5.820  26.002  0.00  0.00    -0.336 OA
ENDBRANCH  35  36
ENDBRANCH  11  35
TORSDOF 10
ENDMDL
MODEL 4
REMARK VINA RESULT:      -7.3      2.533      9.006
REMARK  Name = 
REMARK  10 active torsions:
REMARK  status: ('A' for Active; 'I' for Inactive)
REMARK    1  A    between atoms: C_3  and  O_34
REMARK    2  A    between atoms: C_4  and  O_29
REMARK    3  A    between atoms: C_6  and  C_7
REMARK    4  A    between atoms: C_8  and  O_24
REMARK    5  A    between atoms: C_12  and  O_23
REMARK    6  A    between atoms: C_14  and  O_18
REMARK    7  A    between atoms: O_18  and  S_19
REMARK    8  A    between atoms: O_24  and  S_25
REMARK    9  A    between atoms: O_29  and  S_30
REMARK   10  A    between atoms: O_34  and  S_35
REMARK                            x       y       z     vdW  Elec       q    Type
REMARK                         _______ _______ _______ _____ _____    ______ ____
ROOT
ATOM      1  C   UNL     1       7.170  -0.432  23.543  0.00  0.00    +0.184 A 
ATOM      2  O   UNL     1       6.175  -1.307  23.095  0.00  0.00    -0.451 OA
ATOM      3  C   UNL     1       6.371  -2.661  23.186  0.00  0.00    +0.147 A 
ATOM      4  C   UNL     1       7.563  -3.210  23.628  0.00  0.00    +0.109 A 
ATOM      5  C   UNL     1       7.716  -4.606  23.652  0.00  0.00    +0.135 A 
ATOM      6  C   UNL     1       6.674  -5.451  23.257  0.00  0.00    +0.095 A 
ATOM      7  C   UNL     1       5.452  -4.906  22.867  0.00  0.00    +0.162 A 
ATOM      8  C   UNL     1       8.617  -2.302  24.105  0.00  0.00    +0.241 A 
ATOM      9  O   UNL     1       9.643  -2.793  24.576  0.00  0.00    -0.283 OA
ATOM     10  C   UNL     1       5.313  -3.507  22.812  0.00  0.00    +0.095 A 
ATOM     11  C   UNL     1       8.352  -0.837  24.057  0.00  0.00    +0.244 A 
ENDROOT
BRANCH   1  13
ATOM     12  C   UNL     1       6.815   1.671  22.252  0.00  0.00    +0.015 A 
ATOM     13  C   UNL     1       6.701   0.973  23.459  0.00  0.00    +0.025 A 
ATOM     14  C   UNL     1       6.321   1.682  24.616  0.00  0.00    +0.064 A 
ATOM     15  C   UNL     1       6.158   3.078  24.586  0.00  0.00    +0.200 A 
ATOM     16  C   UNL     1       6.351   3.779  23.375  0.00  0.00    +0.199 A 
ATOM     17  C   UNL     1       6.645   3.062  22.212  0.00  0.00    +0.053 A 
BRANCH  15  18
ATOM     18  O   UNL     1       5.809   3.854  25.674  0.00  0.00    -0.357 OA
BRANCH  18  19
ATOM     19  S   UNL     1       6.782   4.217  26.936  0.00  0.00    +0.043 S 
ATOM     20  O   UNL     1       8.123   4.279  26.339  0.00  0.00    -0.259 OA
ATOM     21  O   UNL     1       6.648   3.117  27.894  0.00  0.00    -0.336 OA
ATOM     22  O   UNL     1       6.331   5.513  27.431  0.00  0.00    -0.336 OA
ENDBRANCH  18  19
ENDBRANCH  15  18
BRANCH  16  23
ATOM     23  O   UNL     1       6.333   5.159  23.452  0.00  0.00    -0.357 OA
BRANCH  23  24
ATOM     24  S   UNL     1       7.625   6.142  23.235  0.00  0.00    +0.043 S 
ATOM     25  O   UNL     1       7.531   7.108  24.334  0.00  0.00    -0.259 OA
ATOM     26  O   UNL     1       7.442   6.748  21.916  0.00  0.00    -0.336 OA
ATOM     27  O   UNL     1       8.818   5.297  23.339  0.00  0.00    -0.336 OA
ENDBRANCH  23  24
ENDBRANCH  16  23
ENDBRANCH   1  13
BRANCH   5  28
ATOM     28  O   UNL     1       8.877  -5.213  24.068  0.00  0.00    -0.506 OA
ATOM     29  H   UNL     1       9.047  -4.895  24.985  0.00  0.00    +0.292 HD
ENDBRANCH   5  28
BRANCH   7  30
ATOM     30  O   UNL     1       4.347  -5.639  22.495  0.00  0.00    -0.360 OA
BRANCH  30  31
ATOM     31  S   UNL     1       3.262  -6.277  23.547  0.00  0.00    +0.042 S 
ATOM     32  O   UNL     1       3.980  -7.404  24.149  0.00  0.00    -0.259 OA
ATOM     33  O   UNL     1       2.114  -6.687  22.738  0.00  0.00    -0.336 OA
ATOM     34  O   UNL     1       2.973  -5.202  24.496  0.00  0.00    -0.336 OA
ENDBRANCH  30  31
ENDBRANCH   7  30
BRANCH  11  35
ATOM     35  O   UNL     1       9.258  -0.040  24.724  0.00  0.00    -0.353 OA
BRANCH  35  36
ATOM     36  S   UNL     1      10.367   0.898  23.978  0.00  0.00    +0.043 S 
ATOM     37  O   UNL     1       9.865   2.262  24.164  0.00  0.00    -0.259 OA
ATOM     38  O   UNL     1      10.295   0.447  22.589  0.00  0.00    -0.336 OA
ATOM     39  O   UNL     1      11.630   0.648  24.661  0.00  0.00    -0.336 OA
ENDBRANCH  35  36
ENDBRANCH  11  35
TORSDOF 10
ENDMDL
MODEL 5
REMARK VINA RESULT:      -7.2      2.094      2.850
REMARK  Name = 
REMARK  10 active torsions:
REMARK  status: ('A' for Active; 'I' for Inactive)
REMARK    1  A    between atoms: C_3  and  O_34
REMARK    2  A    between atoms: C_4  and  O_29
REMARK    3  A    between atoms: C_6  and  C_7
REMARK    4  A    between atoms: C_8  and  O_24
REMARK    5  A    between atoms: C_12  and  O_23
REMARK    6  A    between atoms: C_14  and  O_18
REMARK    7  A    between atoms: O_18  and  S_19
REMARK    8  A    between atoms: O_24  and  S_25
REMARK    9  A    between atoms: O_29  and  S_30
REMARK   10  A    between atoms: O_34  and  S_35
REMARK                            x       y       z     vdW  Elec       q    Type
REMARK                         _______ _______ _______ _____ _____    ______ ____
ROOT
ATOM      1  C   UNL     1       8.030  -2.063  24.855  0.00  0.00    +0.184 A 
ATOM      2  O   UNL     1       8.179  -0.768  25.361  0.00  0.00    -0.451 OA
ATOM      3  C   UNL     1       8.595   0.241  24.529  0.00  0.00    +0.147 A 
ATOM      4  C   UNL     1       8.963   0.014  23.214  0.00  0.00    +0.109 A 
ATOM      5  C   UNL     1       9.425   1.083  22.429  0.00  0.00    +0.135 A 
ATOM      6  C   UNL     1       9.499   2.378  22.950  0.00  0.00    +0.095 A 
ATOM      7  C   UNL     1       9.076   2.624  24.256  0.00  0.00    +0.162 A 
ATOM      8  C   UNL     1       8.807  -1.343  22.668  0.00  0.00    +0.241 A 
ATOM      9  O   UNL     1       9.054  -1.526  21.476  0.00  0.00    -0.283 OA
ATOM     10  C   UNL     1       8.644   1.545  25.049  0.00  0.00    +0.095 A 
ATOM     11  C   UNL     1       8.291  -2.406  23.574  0.00  0.00    +0.244 A 
ENDROOT
BRANCH   1  13
ATOM     12  C   UNL     1       8.205  -4.059  26.339  0.00  0.00    +0.015 A 
ATOM     13  C   UNL     1       7.463  -2.961  25.891  0.00  0.00    +0.025 A 
ATOM     14  C   UNL     1       6.118  -2.845  26.295  0.00  0.00    +0.064 A 
ATOM     15  C   UNL     1       5.500  -3.859  27.048  0.00  0.00    +0.200 A 
ATOM     16  C   UNL     1       6.242  -4.999  27.428  0.00  0.00    +0.199 A 
ATOM     17  C   UNL     1       7.598  -5.071  27.097  0.00  0.00    +0.053 A 
BRANCH  15  18
ATOM     18  O   UNL     1       4.184  -3.838  27.467  0.00  0.00    -0.357 OA
BRANCH  18  19
ATOM     19  S   UNL     1       2.874  -3.980  26.500  0.00  0.00    +0.043 S 
ATOM     20  O   UNL     1       1.789  -4.326  27.427  0.00  0.00    -0.259 OA
ATOM     21  O   UNL     1       3.169  -5.062  25.557  0.00  0.00    -0.336 OA
ATOM     22  O   UNL     1       2.686  -2.671  25.884  0.00  0.00    -0.336 OA
ENDBRANCH  18  19
ENDBRANCH  15  18
BRANCH  16  23
ATOM     23  O   UNL     1       5.534  -6.025  28.024  0.00  0.00    -0.357 OA
BRANCH  23  24
ATOM     24  S   UNL     1       5.717  -6.537  29.569  0.00  0.00    +0.043 S 
ATOM     25  O   UNL     1       6.815  -7.507  29.498  0.00  0.00    -0.259 OA
ATOM     26  O   UNL     1       4.437  -7.142  29.937  0.00  0.00    -0.336 OA
ATOM     27  O   UNL     1       6.068  -5.358  30.364  0.00  0.00    -0.336 OA
ENDBRANCH  23  24
ENDBRANCH  16  23
ENDBRANCH   1  13
BRANCH   5  28
ATOM     28  O   UNL     1       9.817   0.922  21.122  0.00  0.00    -0.506 OA
ATOM     29  H   UNL     1       9.757  -0.042  20.927  0.00  0.00    +0.292 HD
ENDBRANCH   5  28
BRANCH   7  30
ATOM     30  O   UNL     1       9.068   3.861  24.860  0.00  0.00    -0.360 OA
BRANCH  30  31
ATOM     31  S   UNL     1       8.130   5.119  24.382  0.00  0.00    +0.042 S 
ATOM     32  O   UNL     1       6.906   4.478  23.893  0.00  0.00    -0.259 OA
ATOM     33  O   UNL     1       8.885   5.805  23.333  0.00  0.00    -0.336 OA
ATOM     34  O   UNL     1       7.921   5.919  25.589  0.00  0.00    -0.336 OA
ENDBRANCH  30  31
ENDBRANCH   7  30
BRANCH  11  35
ATOM     35  O   UNL     1       7.940  -3.595  22.970  0.00  0.00    -0.353 OA
BRANCH  35  36
ATOM     36  S   UNL     1       6.421  -3.962  22.498  0.00  0.00    +0.043 S 
ATOM     37  O   UNL     1       5.937  -4.879  23.532  0.00  0.00    -0.259 OA
ATOM     38  O   UNL     1       6.629  -4.616  21.206  0.00  0.00    -0.336 OA
ATOM     39  O   UNL     1       5.696  -2.698  22.459  0.00  0.00    -0.336 OA
ENDBRANCH  35  36
ENDBRANCH  11  35
TORSDOF 10
ENDMDL
MODEL 6
REMARK VINA RESULT:      -7.2      3.224      5.398
REMARK  Name = 
REMARK  10 active torsions:
REMARK  status: ('A' for Active; 'I' for Inactive)
REMARK    1  A    between atoms: C_3  and  O_34
REMARK    2  A    between atoms: C_4  and  O_29
REMARK    3  A    between atoms: C_6  and  C_7
REMARK    4  A    between atoms: C_8  and  O_24
REMARK    5  A    between atoms: C_12  and  O_23
REMARK    6  A    between atoms: C_14  and  O_18
REMARK    7  A    between atoms: O_18  and  S_19
REMARK    8  A    between atoms: O_24  and  S_25
REMARK    9  A    between atoms: O_29  and  S_30
REMARK   10  A    between atoms: O_34  and  S_35
REMARK                            x       y       z     vdW  Elec       q    Type
REMARK                         _______ _______ _______ _____ _____    ______ ____
ROOT
ATOM      1  C   UNL     1       7.872   0.704  24.591  0.00  0.00    +0.184 A 
ATOM      2  O   UNL     1       8.729   1.564  23.896  0.00  0.00    -0.451 OA
ATOM      3  C   UNL     1       8.837   2.875  24.286  0.00  0.00    +0.147 A 
ATOM      4  C   UNL     1       8.061   3.414  25.298  0.00  0.00    +0.109 A 
ATOM      5  C   UNL     1       8.187   4.776  25.617  0.00  0.00    +0.135 A 
ATOM      6  C   UNL     1       9.102   5.591  24.943  0.00  0.00    +0.095 A 
ATOM      7  C   UNL     1       9.927   5.041  23.963  0.00  0.00    +0.162 A 
ATOM      8  C   UNL     1       7.159   2.520  26.040  0.00  0.00    +0.241 A 
ATOM      9  O   UNL     1       6.532   2.982  26.993  0.00  0.00    -0.283 OA
ATOM     10  C   UNL     1       9.775   3.684  23.623  0.00  0.00    +0.095 A 
ATOM     11  C   UNL     1       7.109   1.087  25.639  0.00  0.00    +0.244 A 
ENDROOT
BRANCH   1  13
ATOM     12  C   UNL     1       8.171  -0.899  22.706  0.00  0.00    +0.015 A 
ATOM     13  C   UNL     1       8.000  -0.682  24.076  0.00  0.00    +0.025 A 
ATOM     14  C   UNL     1       7.760  -1.791  24.911  0.00  0.00    +0.064 A 
ATOM     15  C   UNL     1       7.595  -3.079  24.372  0.00  0.00    +0.200 A 
ATOM     16  C   UNL     1       7.694  -3.270  22.976  0.00  0.00    +0.199 A 
ATOM     17  C   UNL     1       8.016  -2.182  22.160  0.00  0.00    +0.053 A 
BRANCH  15  18
ATOM     18  O   UNL     1       7.336  -4.216  25.112  0.00  0.00    -0.357 OA
BRANCH  18  19
ATOM     19  S   UNL     1       8.435  -5.058  25.981  0.00  0.00    +0.043 S 
ATOM     20  O   UNL     1       7.628  -6.060  26.690  0.00  0.00    -0.259 OA
ATOM     21  O   UNL     1       9.064  -4.100  26.894  0.00  0.00    -0.336 OA
ATOM     22  O   UNL     1       9.342  -5.656  25.008  0.00  0.00    -0.336 OA
ENDBRANCH  18  19
ENDBRANCH  15  18
BRANCH  16  23
ATOM     23  O   UNL     1       7.362  -4.524  22.500  0.00  0.00    -0.357 OA
BRANCH  23  24
ATOM     24  S   UNL     1       5.875  -4.988  21.993  0.00  0.00    +0.043 S 
ATOM     25  O   UNL     1       5.040  -3.799  22.193  0.00  0.00    -0.259 OA
ATOM     26  O   UNL     1       5.498  -6.109  22.853  0.00  0.00    -0.336 OA
ATOM     27  O   UNL     1       6.006  -5.342  20.578  0.00  0.00    -0.336 OA
ENDBRANCH  23  24
ENDBRANCH  16  23
ENDBRANCH   1  13
BRANCH   5  28
ATOM     28  O   UNL     1       7.438   5.375  26.601  0.00  0.00    -0.506 OA
ATOM     29  H   UNL     1       6.931   4.655  27.044  0.00  0.00    +0.292 HD
ENDBRANCH   5  28
BRANCH   7  30
ATOM     30  O   UNL     1      10.887   5.736  23.262  0.00  0.00    -0.360 OA
BRANCH  30  31
ATOM     31  S   UNL     1      12.502   5.588  23.509  0.00  0.00    +0.042 S 
ATOM     32  O   UNL     1      13.097   6.206  22.320  0.00  0.00    -0.259 OA
ATOM     33  O   UNL     1      12.762   4.152  23.608  0.00  0.00    -0.336 OA
ATOM     34  O   UNL     1      12.769   6.331  24.741  0.00  0.00    -0.336 OA
ENDBRANCH  30  31
ENDBRANCH   7  30
BRANCH  11  35
ATOM     35  O   UNL     1       6.438   0.244  26.499  0.00  0.00    -0.353 OA
BRANCH  35  36
ATOM     36  S   UNL     1       4.825  -0.007  26.454  0.00  0.00    +0.043 S 
ATOM     37  O   UNL     1       4.323   1.055  25.579  0.00  0.00    -0.259 OA
ATOM     38  O   UNL     1       4.429   0.167  27.850  0.00  0.00    -0.336 OA
ATOM     39  O   UNL     1       4.642  -1.344  25.904  0.00  0.00    -0.336 OA
ENDBRANCH  35  36
ENDBRANCH  11  35
TORSDOF 10
ENDMDL
MODEL 7
REMARK VINA RESULT:      -7.0      2.146      8.746
REMARK  Name = 
REMARK  10 active torsions:
REMARK  status: ('A' for Active; 'I' for Inactive)
REMARK    1  A    between atoms: C_3  and  O_34
REMARK    2  A    between atoms: C_4  and  O_29
REMARK    3  A    between atoms: C_6  and  C_7
REMARK    4  A    between atoms: C_8  and  O_24
REMARK    5  A    between atoms: C_12  and  O_23
REMARK    6  A    between atoms: C_14  and  O_18
REMARK    7  A    between atoms: O_18  and  S_19
REMARK    8  A    between atoms: O_24  and  S_25
REMARK    9  A    between atoms: O_29  and  S_30
REMARK   10  A    between atoms: O_34  and  S_35
REMARK                            x       y       z     vdW  Elec       q    Type
REMARK                         _______ _______ _______ _____ _____    ______ ____
ROOT
ATOM      1  C   UNL     1       7.495  -0.730  23.229  0.00  0.00    +0.184 A 
ATOM      2  O   UNL     1       6.410  -1.574  23.489  0.00  0.00    -0.451 OA
ATOM      3  C   UNL     1       6.637  -2.861  23.906  0.00  0.00    +0.147 A 
ATOM      4  C   UNL     1       7.911  -3.397  23.998  0.00  0.00    +0.109 A 
ATOM      5  C   UNL     1       8.072  -4.737  24.386  0.00  0.00    +0.135 A 
ATOM      6  C   UNL     1       6.966  -5.532  24.703  0.00  0.00    +0.095 A 
ATOM      7  C   UNL     1       5.686  -4.982  24.668  0.00  0.00    +0.162 A 
ATOM      8  C   UNL     1       9.060  -2.519  23.730  0.00  0.00    +0.241 A 
ATOM      9  O   UNL     1      10.193  -2.974  23.893  0.00  0.00    -0.283 OA
ATOM     10  C   UNL     1       5.525  -3.648  24.248  0.00  0.00    +0.095 A 
ATOM     11  C   UNL     1       8.787  -1.108  23.343  0.00  0.00    +0.244 A 
ENDROOT
BRANCH   1  13
ATOM     12  C   UNL     1       7.613   1.350  21.859  0.00  0.00    +0.015 A 
ATOM     13  C   UNL     1       7.020   0.639  22.907  0.00  0.00    +0.025 A 
ATOM     14  C   UNL     1       6.118   1.312  23.755  0.00  0.00    +0.064 A 
ATOM     15  C   UNL     1       5.892   2.692  23.619  0.00  0.00    +0.200 A 
ATOM     16  C   UNL     1       6.558   3.413  22.603  0.00  0.00    +0.199 A 
ATOM     17  C   UNL     1       7.387   2.726  21.711  0.00  0.00    +0.053 A 
BRANCH  15  18
ATOM     18  O   UNL     1       5.044   3.435  24.418  0.00  0.00    -0.357 OA
BRANCH  18  19
ATOM     19  S   UNL     1       3.412   3.346  24.415  0.00  0.00    +0.043 S 
ATOM     20  O   UNL     1       3.117   2.283  25.384  0.00  0.00    -0.259 OA
ATOM     21  O   UNL     1       3.018   2.983  23.051  0.00  0.00    -0.336 OA
ATOM     22  O   UNL     1       2.939   4.653  24.857  0.00  0.00    -0.336 OA
ENDBRANCH  18  19
ENDBRANCH  15  18
BRANCH  16  23
ATOM     23  O   UNL     1       6.415   4.787  22.627  0.00  0.00    -0.357 OA
BRANCH  23  24
ATOM     24  S   UNL     1       7.452   5.840  23.335  0.00  0.00    +0.043 S 
ATOM     25  O   UNL     1       7.885   6.711  22.237  0.00  0.00    -0.259 OA
ATOM     26  O   UNL     1       8.533   5.020  23.881  0.00  0.00    -0.336 OA
ATOM     27  O   UNL     1       6.685   6.566  24.350  0.00  0.00    -0.336 OA
ENDBRANCH  23  24
ENDBRANCH  16  23
ENDBRANCH   1  13
BRANCH   5  28
ATOM     28  O   UNL     1       9.307  -5.332  24.485  0.00  0.00    -0.506 OA
ATOM     29  H   UNL     1       9.441  -5.842  23.652  0.00  0.00    +0.292 HD
ENDBRANCH   5  28
BRANCH   7  30
ATOM     30  O   UNL     1       4.531  -5.656  24.995  0.00  0.00    -0.360 OA
BRANCH  30  31
ATOM     31  S   UNL     1       3.495  -6.304  23.899  0.00  0.00    +0.042 S 
ATOM     32  O   UNL     1       4.127  -6.018  22.608  0.00  0.00    -0.259 OA
ATOM     33  O   UNL     1       2.223  -5.607  24.090  0.00  0.00    -0.336 OA
ATOM     34  O   UNL     1       3.449  -7.732  24.216  0.00  0.00    -0.336 OA
ENDBRANCH  30  31
ENDBRANCH   7  30
BRANCH  11  35
ATOM     35  O   UNL     1       9.878  -0.265  23.330  0.00  0.00    -0.353 OA
BRANCH  35  36
ATOM     36  S   UNL     1      10.352   0.630  24.612  0.00  0.00    +0.043 S 
ATOM     37  O   UNL     1       9.753   1.944  24.371  0.00  0.00    -0.259 OA
ATOM     38  O   UNL     1      11.809   0.634  24.487  0.00  0.00    -0.336 OA
ATOM     39  O   UNL     1       9.819  -0.042  25.790  0.00  0.00    -0.336 OA
ENDBRANCH  35  36
ENDBRANCH  11  35
TORSDOF 10
ENDMDL
MODEL 8
REMARK VINA RESULT:      -7.0      2.310      9.190
REMARK  Name = 
REMARK  10 active torsions:
REMARK  status: ('A' for Active; 'I' for Inactive)
REMARK    1  A    between atoms: C_3  and  O_34
REMARK    2  A    between atoms: C_4  and  O_29
REMARK    3  A    between atoms: C_6  and  C_7
REMARK    4  A    between atoms: C_8  and  O_24
REMARK    5  A    between atoms: C_12  and  O_23
REMARK    6  A    between atoms: C_14  and  O_18
REMARK    7  A    between atoms: O_18  and  S_19
REMARK    8  A    between atoms: O_24  and  S_25
REMARK    9  A    between atoms: O_29  and  S_30
REMARK   10  A    between atoms: O_34  and  S_35
REMARK                            x       y       z     vdW  Elec       q    Type
REMARK                         _______ _______ _______ _____ _____    ______ ____
ROOT
ATOM      1  C   UNL     1       7.790  -0.383  25.192  0.00  0.00    +0.184 A 
ATOM      2  O   UNL     1       7.157  -1.295  26.043  0.00  0.00    -0.451 OA
ATOM      3  C   UNL     1       7.617  -2.585  26.118  0.00  0.00    +0.147 A 
ATOM      4  C   UNL     1       8.640  -3.056  25.311  0.00  0.00    +0.109 A 
ATOM      5  C   UNL     1       9.032  -4.401  25.404  0.00  0.00    +0.135 A 
ATOM      6  C   UNL     1       8.420  -5.268  26.315  0.00  0.00    +0.095 A 
ATOM      7  C   UNL     1       7.429  -4.786  27.170  0.00  0.00    +0.162 A 
ATOM      8  C   UNL     1       9.316  -2.107  24.414  0.00  0.00    +0.241 A 
ATOM      9  O   UNL     1      10.280  -2.506  23.760  0.00  0.00    -0.283 OA
ATOM     10  C   UNL     1       7.016  -3.446  27.052  0.00  0.00    +0.095 A 
ATOM     11  C   UNL     1       8.840  -0.696  24.401  0.00  0.00    +0.244 A 
ENDROOT
BRANCH   1  13
ATOM     12  C   UNL     1       5.817   1.133  25.353  0.00  0.00    +0.015 A 
ATOM     13  C   UNL     1       7.206   0.971  25.357  0.00  0.00    +0.025 A 
ATOM     14  C   UNL     1       8.020   2.121  25.325  0.00  0.00    +0.064 A 
ATOM     15  C   UNL     1       7.456   3.401  25.190  0.00  0.00    +0.200 A 
ATOM     16  C   UNL     1       6.053   3.542  25.110  0.00  0.00    +0.199 A 
ATOM     17  C   UNL     1       5.246   2.407  25.226  0.00  0.00    +0.053 A 
BRANCH  15  18
ATOM     18  O   UNL     1       8.177   4.578  25.129  0.00  0.00    -0.357 OA
BRANCH  18  19
ATOM     19  S   UNL     1       8.856   5.210  23.783  0.00  0.00    +0.043 S 
ATOM     20  O   UNL     1      10.281   4.882  23.921  0.00  0.00    -0.259 OA
ATOM     21  O   UNL     1       8.608   6.653  23.832  0.00  0.00    -0.336 OA
ATOM     22  O   UNL     1       8.230   4.524  22.658  0.00  0.00    -0.336 OA
ENDBRANCH  18  19
ENDBRANCH  15  18
BRANCH  16  23
ATOM     23  O   UNL     1       5.576   4.806  24.816  0.00  0.00    -0.357 OA
BRANCH  23  24
ATOM     24  S   UNL     1       4.701   5.210  23.493  0.00  0.00    +0.043 S 
ATOM     25  O   UNL     1       5.032   4.171  22.511  0.00  0.00    -0.259 OA
ATOM     26  O   UNL     1       5.167   6.541  23.103  0.00  0.00    -0.336 OA
ATOM     27  O   UNL     1       3.291   5.167  23.891  0.00  0.00    -0.336 OA
ENDBRANCH  23  24
ENDBRANCH  16  23
ENDBRANCH   1  13
BRANCH   5  28
ATOM     28  O   UNL     1      10.031  -4.933  24.625  0.00  0.00    -0.506 OA
ATOM     29  H   UNL     1      10.692  -5.323  25.242  0.00  0.00    +0.292 HD
ENDBRANCH   5  28
BRANCH   7  30
ATOM     30  O   UNL     1       6.785  -5.535  28.129  0.00  0.00    -0.360 OA
BRANCH  30  31
ATOM     31  S   UNL     1       5.429  -6.417  27.858  0.00  0.00    +0.042 S 
ATOM     32  O   UNL     1       5.593  -7.589  28.723  0.00  0.00    -0.259 OA
ATOM     33  O   UNL     1       5.442  -6.743  26.431  0.00  0.00    -0.336 OA
ATOM     34  O   UNL     1       4.322  -5.550  28.263  0.00  0.00    -0.336 OA
ENDBRANCH  30  31
ENDBRANCH   7  30
BRANCH  11  35
ATOM     35  O   UNL     1       9.642   0.204  23.731  0.00  0.00    -0.353 OA
BRANCH  35  36
ATOM     36  S   UNL     1       9.396   0.666  22.184  0.00  0.00    +0.043 S 
ATOM     37  O   UNL     1       7.949   0.881  22.102  0.00  0.00    -0.259 OA
ATOM     38  O   UNL     1       9.845  -0.497  21.420  0.00  0.00    -0.336 OA
ATOM     39  O   UNL     1      10.173   1.885  22.001  0.00  0.00    -0.336 OA
ENDBRANCH  35  36
ENDBRANCH  11  35
TORSDOF 10
ENDMDL
MODEL 9
REMARK VINA RESULT:      -6.8      2.814      8.381
REMARK  Name = 
REMARK  10 active torsions:
REMARK  status: ('A' for Active; 'I' for Inactive)
REMARK    1  A    between atoms: C_3  and  O_34
REMARK    2  A    between atoms: C_4  and  O_29
REMARK    3  A    between atoms: C_6  and  C_7
REMARK    4  A    between atoms: C_8  and  O_24
REMARK    5  A    between atoms: C_12  and  O_23
REMARK    6  A    between atoms: C_14  and  O_18
REMARK    7  A    between atoms: O_18  and  S_19
REMARK    8  A    between atoms: O_24  and  S_25
REMARK    9  A    between atoms: O_29  and  S_30
REMARK   10  A    between atoms: O_34  and  S_35
REMARK                            x       y       z     vdW  Elec       q    Type
REMARK                         _______ _______ _______ _____ _____    ______ ____
ROOT
ATOM      1  C   UNL     1       7.660  -0.398  24.996  0.00  0.00    +0.184 A 
ATOM      2  O   UNL     1       7.045  -1.314  25.855  0.00  0.00    -0.451 OA
ATOM      3  C   UNL     1       7.568  -2.575  25.991  0.00  0.00    +0.147 A 
ATOM      4  C   UNL     1       8.643  -3.016  25.237  0.00  0.00    +0.109 A 
ATOM      5  C   UNL     1       9.101  -4.335  25.390  0.00  0.00    +0.135 A 
ATOM      6  C   UNL     1       8.502  -5.203  26.308  0.00  0.00    +0.095 A 
ATOM      7  C   UNL     1       7.457  -4.747  27.110  0.00  0.00    +0.162 A 
ATOM      8  C   UNL     1       9.302  -2.062  24.333  0.00  0.00    +0.241 A 
ATOM      9  O   UNL     1      10.309  -2.431  23.727  0.00  0.00    -0.283 OA
ATOM     10  C   UNL     1       6.979  -3.436  26.932  0.00  0.00    +0.095 A 
ATOM     11  C   UNL     1       8.754  -0.680  24.254  0.00  0.00    +0.244 A 
ENDROOT
BRANCH   1  13
ATOM     12  C   UNL     1       7.605   1.950  25.833  0.00  0.00    +0.015 A 
ATOM     13  C   UNL     1       7.001   0.927  25.094  0.00  0.00    +0.025 A 
ATOM     14  C   UNL     1       5.688   1.121  24.621  0.00  0.00    +0.064 A 
ATOM     15  C   UNL     1       4.958   2.272  24.966  0.00  0.00    +0.200 A 
ATOM     16  C   UNL     1       5.556   3.262  25.778  0.00  0.00    +0.199 A 
ATOM     17  C   UNL     1       6.887   3.105  26.175  0.00  0.00    +0.053 A 
BRANCH  15  18
ATOM     18  O   UNL     1       3.662   2.533  24.566  0.00  0.00    -0.357 OA
BRANCH  18  19
ATOM     19  S   UNL     1       3.227   3.381  23.238  0.00  0.00    +0.043 S 
ATOM     20  O   UNL     1       2.012   2.702  22.771  0.00  0.00    -0.259 OA
ATOM     21  O   UNL     1       4.335   3.260  22.287  0.00  0.00    -0.336 OA
ATOM     22  O   UNL     1       2.967   4.741  23.698  0.00  0.00    -0.336 OA
ENDBRANCH  18  19
ENDBRANCH  15  18
BRANCH  16  23
ATOM     23  O   UNL     1       4.733   4.284  26.210  0.00  0.00    -0.357 OA
BRANCH  23  24
ATOM     24  S   UNL     1       3.906   4.308  27.623  0.00  0.00    +0.043 S 
ATOM     25  O   UNL     1       2.513   4.533  27.221  0.00  0.00    -0.259 OA
ATOM     26  O   UNL     1       4.470   5.417  28.392  0.00  0.00    -0.336 OA
ATOM     27  O   UNL     1       4.098   2.995  28.245  0.00  0.00    -0.336 OA
ENDBRANCH  23  24
ENDBRANCH  16  23
ENDBRANCH   1  13
BRANCH   5  28
ATOM     28  O   UNL     1      10.155  -4.838  24.665  0.00  0.00    -0.506 OA
ATOM     29  H   UNL     1      10.064  -4.478  23.752  0.00  0.00    +0.292 HD
ENDBRANCH   5  28
BRANCH   7  30
ATOM     30  O   UNL     1       6.817  -5.498  28.071  0.00  0.00    -0.360 OA
BRANCH  30  31
ATOM     31  S   UNL     1       5.446  -6.362  27.810  0.00  0.00    +0.042 S 
ATOM     32  O   UNL     1       5.492  -6.667  26.378  0.00  0.00    -0.259 OA
ATOM     33  O   UNL     1       4.340  -5.478  28.181  0.00  0.00    -0.336 OA
ATOM     34  O   UNL     1       5.575  -7.547  28.658  0.00  0.00    -0.336 OA
ENDBRANCH  30  31
ENDBRANCH   7  30
BRANCH  11  35
ATOM     35  O   UNL     1       9.532   0.239  23.583  0.00  0.00    -0.353 OA
BRANCH  35  36
ATOM     36  S   UNL     1       9.279   0.685  22.032  0.00  0.00    +0.043 S 
ATOM     37  O   UNL     1       9.622  -0.509  21.256  0.00  0.00    -0.259 OA
ATOM     38  O   UNL     1      10.232   1.779  21.848  0.00  0.00    -0.336 OA
ATOM     39  O   UNL     1       7.871   1.049  21.943  0.00  0.00    -0.336 OA
ENDBRANCH  35  36
ENDBRANCH  11  35
TORSDOF 10
ENDMDL
