MODEL 1
REMARK VINA RESULT:      -7.0      0.000      0.000
REMARK  Name = 
REMARK  19 active torsions:
REMARK  status: ('A' for Active; 'I' for Inactive)
REMARK    1  A    between atoms: C_1  and  C_2
REMARK    2  A    between atoms: C_3  and  O_51
REMARK    3  A    between atoms: C_5  and  O_50
REMARK    4  A    between atoms: C_7  and  O_49
REMARK    5  A    between atoms: C_8  and  O_11
REMARK    6  A    between atoms: O_11  and  C_12
REMARK    7  A    between atoms: C_14  and  O_48
REMARK    8  A    between atoms: C_19  and  C_40
REMARK    9  A    between atoms: C_20  and  O_23
REMARK   10  A    between atoms: O_23  and  C_24
REMARK   11  A    between atoms: C_26  and  O_39
REMARK   12  A    between atoms: C_27  and  O_38
REMARK   13  A    between atoms: C_28  and  O_37
REMARK   14  A    between atoms: C_30  and  C_32
REMARK   15  A    between atoms: C_32  and  O_33
REMARK   16  A    between atoms: O_33  and  C_34
REMARK   17  A    between atoms: C_34  and  C_36
REMARK   18  A    between atoms: C_42  and  O_47
REMARK   19  A    between atoms: C_43  and  O_46
REMARK                            x       y       z     vdW  Elec       q    Type
REMARK                         _______ _______ _______ _____ _____    ______ ____
ROOT
ATOM      1  C   UNL     1       5.001  -5.062  25.223  0.00  0.00    +0.131 A 
ATOM      2  C   UNL     1       5.746  -4.110  24.519  0.00  0.00    +0.093 A 
ATOM      3  C   UNL     1       5.911  -2.814  25.040  0.00  0.00    +0.147 A 
ATOM      4  O   UNL     1       6.645  -1.915  24.304  0.00  0.00    -0.451 OA
ATOM      5  C   UNL     1       6.916  -0.645  24.832  0.00  0.00    +0.181 A 
ATOM      6  C   UNL     1       6.364  -0.171  25.979  0.00  0.00    +0.214 A 
ATOM      7  C   UNL     1       5.404  -1.083  26.692  0.00  0.00    +0.238 A 
ATOM      8  O   UNL     1       4.678  -0.702  27.601  0.00  0.00    -0.283 OA
ATOM      9  C   UNL     1       5.326  -2.480  26.252  0.00  0.00    +0.109 A 
ATOM     10  C   UNL     1       4.633  -3.453  26.983  0.00  0.00    +0.135 A 
ATOM     11  C   UNL     1       4.468  -4.733  26.468  0.00  0.00    +0.092 A 
ENDROOT
BRANCH   5  12
ATOM     12  C   UNL     1       7.863   0.142  23.972  0.00  0.00    +0.025 A 
ATOM     13  C   UNL     1       7.490   0.511  22.660  0.00  0.00    +0.015 A 
ATOM     14  C   UNL     1       8.340   1.279  21.843  0.00  0.00    +0.050 A 
ATOM     15  C   UNL     1       9.578   1.669  22.333  0.00  0.00    +0.158 A 
ATOM     16  C   UNL     1       9.970   1.324  23.608  0.00  0.00    +0.159 A 
ATOM     17  C   UNL     1       9.119   0.586  24.432  0.00  0.00    +0.060 A 
BRANCH  15  18
ATOM     18  O   UNL     1      10.410   2.412  21.541  0.00  0.00    -0.503 OA
ATOM     19  H   UNL     1      10.967   2.910  22.172  0.00  0.00    +0.292 HD
ENDBRANCH  15  18
BRANCH  16  20
ATOM     20  O   UNL     1      11.207   1.735  24.030  0.00  0.00    -0.503 OA
ATOM     21  H   UNL     1      11.528   1.117  24.709  0.00  0.00    +0.292 HD
ENDBRANCH  16  20
ENDBRANCH   5  12
BRANCH  10  22
ATOM     22  O   UNL     1       4.127  -3.184  28.223  0.00  0.00    -0.506 OA
ATOM     23  H   UNL     1       3.409  -3.800  28.440  0.00  0.00    +0.292 HD
ENDBRANCH  10  22
BRANCH   6  24
ATOM     24  O   UNL     1       6.680   1.104  26.470  0.00  0.00    -0.453 OA
BRANCH  24  25
ATOM     25  C   UNL     1       5.827   2.202  26.098  0.00  0.00    +0.340 C 
ATOM     26  O   UNL     1       6.408   3.025  25.080  0.00  0.00    -0.330 OA
ATOM     27  C   UNL     1       7.562   3.763  25.493  0.00  0.00    +0.191 C 
ATOM     28  C   UNL     1       7.170   4.746  26.596  0.00  0.00    +0.178 C 
ATOM     29  C   UNL     1       6.595   3.962  27.782  0.00  0.00    +0.180 C 
ATOM     30  C   UNL     1       5.442   3.057  27.331  0.00  0.00    +0.214 C 
BRANCH  28  31
ATOM     31  O   UNL     1       8.307   5.507  27.003  0.00  0.00    -0.386 OA
ATOM     32  H   UNL     1       8.761   5.825  26.200  0.00  0.00    +0.210 HD
ENDBRANCH  28  31
BRANCH  29  33
ATOM     33  O   UNL     1       6.185   4.900  28.789  0.00  0.00    -0.386 OA
ATOM     34  H   UNL     1       5.587   5.550  28.375  0.00  0.00    +0.210 HD
ENDBRANCH  29  33
BRANCH  30  35
ATOM     35  O   UNL     1       4.971   2.258  28.422  0.00  0.00    -0.383 OA
ATOM     36  H   UNL     1       4.487   1.499  28.049  0.00  0.00    +0.210 HD
ENDBRANCH  30  35
BRANCH  27  37
ATOM     37  C   UNL     1       8.145   4.502  24.278  0.00  0.00    +0.266 C 
BRANCH  37  38
ATOM     38  O   UNL     1       9.587   4.535  24.326  0.00  0.00    -0.462 OA
BRANCH  38  39
ATOM     39  C   UNL     1      10.154   5.757  24.159  0.00  0.00    +0.304 C 
ATOM     40  C   UNL     1      11.507   5.633  23.528  0.00  0.00    +0.136 C 
ATOM     41  O   UNL     1       9.647   6.824  24.482  0.00  0.00    -0.251 OA
ENDBRANCH  38  39
ENDBRANCH  37  38
ENDBRANCH  27  37
ENDBRANCH  24  25
ENDBRANCH   6  24
BRANCH   1  42
ATOM     42  O   UNL     1       4.692  -6.334  24.839  0.00  0.00    -0.461 OA
BRANCH  42  46
ATOM     43  C   UNL     1       1.024  -8.466  25.573  0.00  0.00    +0.041 C 
ATOM     44  C   UNL     1       1.841  -8.577  24.289  0.00  0.00    +0.150 C 
ATOM     45  O   UNL     1       3.183  -8.120  24.515  0.00  0.00    -0.334 OA
ATOM     46  C   UNL     1       3.318  -6.705  24.686  0.00  0.00    +0.339 C 
ATOM     47  C   UNL     1       2.820  -5.990  23.409  0.00  0.00    +0.214 C 
ATOM     48  C   UNL     1       1.339  -6.339  23.208  0.00  0.00    +0.180 C 
ATOM     49  C   UNL     1       1.166  -7.865  23.100  0.00  0.00    +0.174 C 
BRANCH  49  50
ATOM     50  O   UNL     1       1.723  -8.343  21.868  0.00  0.00    -0.387 OA
ATOM     51  H   UNL     1       0.973  -8.683  21.330  0.00  0.00    +0.210 HD
ENDBRANCH  49  50
BRANCH  48  52
ATOM     52  O   UNL     1       0.800  -5.655  22.073  0.00  0.00    -0.386 OA
ATOM     53  H   UNL     1       1.046  -4.713  22.144  0.00  0.00    +0.210 HD
ENDBRANCH  48  52
BRANCH  47  54
ATOM     54  O   UNL     1       3.587  -6.455  22.270  0.00  0.00    -0.383 OA
ATOM     55  H   UNL     1       3.973  -7.313  22.535  0.00  0.00    +0.210 HD
ENDBRANCH  47  54
ENDBRANCH  42  46
ENDBRANCH   1  42
TORSDOF 17
ENDMDL
MODEL 2
REMARK VINA RESULT:      -6.9      2.443      5.802
REMARK  Name = 
REMARK  19 active torsions:
REMARK  status: ('A' for Active; 'I' for Inactive)
REMARK    1  A    between atoms: C_1  and  C_2
REMARK    2  A    between atoms: C_3  and  O_51
REMARK    3  A    between atoms: C_5  and  O_50
REMARK    4  A    between atoms: C_7  and  O_49
REMARK    5  A    between atoms: C_8  and  O_11
REMARK    6  A    between atoms: O_11  and  C_12
REMARK    7  A    between atoms: C_14  and  O_48
REMARK    8  A    between atoms: C_19  and  C_40
REMARK    9  A    between atoms: C_20  and  O_23
REMARK   10  A    between atoms: O_23  and  C_24
REMARK   11  A    between atoms: C_26  and  O_39
REMARK   12  A    between atoms: C_27  and  O_38
REMARK   13  A    between atoms: C_28  and  O_37
REMARK   14  A    between atoms: C_30  and  C_32
REMARK   15  A    between atoms: C_32  and  O_33
REMARK   16  A    between atoms: O_33  and  C_34
REMARK   17  A    between atoms: C_34  and  C_36
REMARK   18  A    between atoms: C_42  and  O_47
REMARK   19  A    between atoms: C_43  and  O_46
REMARK                            x       y       z     vdW  Elec       q    Type
REMARK                         _______ _______ _______ _____ _____    ______ ____
ROOT
ATOM      1  C   UNL     1       3.664  -4.155  25.061  0.00  0.00    +0.131 A 
ATOM      2  C   UNL     1       4.144  -2.877  25.368  0.00  0.00    +0.093 A 
ATOM      3  C   UNL     1       5.058  -2.240  24.509  0.00  0.00    +0.147 A 
ATOM      4  O   UNL     1       5.505  -0.989  24.861  0.00  0.00    -0.451 OA
ATOM      5  C   UNL     1       6.338  -0.279  23.985  0.00  0.00    +0.181 A 
ATOM      6  C   UNL     1       6.873  -0.810  22.855  0.00  0.00    +0.214 A 
ATOM      7  C   UNL     1       6.540  -2.248  22.563  0.00  0.00    +0.238 A 
ATOM      8  O   UNL     1       7.125  -2.904  21.712  0.00  0.00    -0.283 OA
ATOM      9  C   UNL     1       5.486  -2.886  23.358  0.00  0.00    +0.109 A 
ATOM     10  C   UNL     1       4.955  -4.137  23.023  0.00  0.00    +0.135 A 
ATOM     11  C   UNL     1       4.055  -4.769  23.872  0.00  0.00    +0.092 A 
ENDROOT
BRANCH   5  12
ATOM     12  C   UNL     1       6.593   1.126  24.452  0.00  0.00    +0.025 A 
ATOM     13  C   UNL     1       6.432   2.209  23.560  0.00  0.00    +0.015 A 
ATOM     14  C   UNL     1       6.627   3.539  23.977  0.00  0.00    +0.050 A 
ATOM     15  C   UNL     1       6.999   3.788  25.290  0.00  0.00    +0.158 A 
ATOM     16  C   UNL     1       7.165   2.752  26.183  0.00  0.00    +0.159 A 
ATOM     17  C   UNL     1       6.945   1.433  25.781  0.00  0.00    +0.060 A 
BRANCH  15  18
ATOM     18  O   UNL     1       7.195   5.079  25.699  0.00  0.00    -0.503 OA
ATOM     19  H   UNL     1       8.047   5.057  26.179  0.00  0.00    +0.292 HD
ENDBRANCH  15  18
BRANCH  16  20
ATOM     20  O   UNL     1       7.539   3.064  27.463  0.00  0.00    -0.503 OA
ATOM     21  H   UNL     1       7.799   4.001  27.494  0.00  0.00    +0.292 HD
ENDBRANCH  16  20
ENDBRANCH   5  12
BRANCH  10  22
ATOM     22  O   UNL     1       5.283  -4.758  21.850  0.00  0.00    -0.506 OA
ATOM     23  H   UNL     1       6.116  -5.247  21.945  0.00  0.00    +0.292 HD
ENDBRANCH  10  22
BRANCH   6  24
ATOM     24  O   UNL     1       7.690  -0.050  22.006  0.00  0.00    -0.453 OA
BRANCH  24  25
ATOM     25  C   UNL     1       9.083  -0.403  21.916  0.00  0.00    +0.340 C 
ATOM     26  O   UNL     1       9.439  -1.459  22.817  0.00  0.00    -0.330 OA
ATOM     27  C   UNL     1       9.382  -1.108  24.203  0.00  0.00    +0.191 C 
ATOM     28  C   UNL     1      10.399  -0.005  24.492  0.00  0.00    +0.178 C 
ATOM     29  C   UNL     1      10.070   1.217  23.626  0.00  0.00    +0.180 C 
ATOM     30  C   UNL     1       9.991   0.832  22.145  0.00  0.00    +0.214 C 
BRANCH  28  31
ATOM     31  O   UNL     1      10.371   0.340  25.877  0.00  0.00    -0.386 OA
ATOM     32  H   UNL     1      11.114  -0.114  26.317  0.00  0.00    +0.210 HD
ENDBRANCH  28  31
BRANCH  29  33
ATOM     33  O   UNL     1      11.063   2.226  23.870  0.00  0.00    -0.386 OA
ATOM     34  H   UNL     1      11.005   2.489  24.808  0.00  0.00    +0.210 HD
ENDBRANCH  29  33
BRANCH  30  35
ATOM     35  O   UNL     1       9.591   1.955  21.351  0.00  0.00    -0.383 OA
ATOM     36  H   UNL     1      10.041   1.887  20.489  0.00  0.00    +0.210 HD
ENDBRANCH  30  35
BRANCH  27  37
ATOM     37  C   UNL     1       9.670  -2.358  25.048  0.00  0.00    +0.266 C 
BRANCH  37  38
ATOM     38  O   UNL     1       9.704  -3.548  24.231  0.00  0.00    -0.462 OA
BRANCH  38  39
ATOM     39  C   UNL     1       8.717  -4.451  24.464  0.00  0.00    +0.304 C 
ATOM     40  C   UNL     1       8.085  -4.213  25.802  0.00  0.00    +0.136 C 
ATOM     41  O   UNL     1       8.380  -5.346  23.701  0.00  0.00    -0.251 OA
ENDBRANCH  38  39
ENDBRANCH  37  38
ENDBRANCH  27  37
ENDBRANCH  24  25
ENDBRANCH   6  24
BRANCH   1  42
ATOM     42  O   UNL     1       2.830  -4.937  25.806  0.00  0.00    -0.461 OA
BRANCH  42  46
ATOM     43  C   UNL     1       4.467  -4.206  29.720  0.00  0.00    +0.041 C 
ATOM     44  C   UNL     1       4.954  -5.302  28.775  0.00  0.00    +0.150 C 
ATOM     45  O   UNL     1       4.539  -5.015  27.430  0.00  0.00    -0.334 OA
ATOM     46  C   UNL     1       3.140  -5.179  27.182  0.00  0.00    +0.339 C 
ATOM     47  C   UNL     1       2.744  -6.647  27.460  0.00  0.00    +0.214 C 
ATOM     48  C   UNL     1       3.038  -6.955  28.934  0.00  0.00    +0.180 C 
ATOM     49  C   UNL     1       4.527  -6.708  29.237  0.00  0.00    +0.174 C 
BRANCH  49  50
ATOM     50  O   UNL     1       5.338  -7.699  28.591  0.00  0.00    -0.387 OA
ATOM     51  H   UNL     1       5.574  -8.365  29.275  0.00  0.00    +0.210 HD
ENDBRANCH  49  50
BRANCH  48  52
ATOM     52  O   UNL     1       2.634  -8.285  29.271  0.00  0.00    -0.386 OA
ATOM     53  H   UNL     1       3.316  -8.900  28.941  0.00  0.00    +0.210 HD
ENDBRANCH  48  52
BRANCH  47  54
ATOM     54  O   UNL     1       3.531  -7.524  26.614  0.00  0.00    -0.383 OA
ATOM     55  H   UNL     1       2.961  -8.294  26.417  0.00  0.00    +0.210 HD
ENDBRANCH  47  54
ENDBRANCH  42  46
ENDBRANCH   1  42
TORSDOF 17
ENDMDL
MODEL 3
REMARK VINA RESULT:      -6.7      2.043      4.551
REMARK  Name = 
REMARK  19 active torsions:
REMARK  status: ('A' for Active; 'I' for Inactive)
REMARK    1  A    between atoms: C_1  and  C_2
REMARK    2  A    between atoms: C_3  and  O_51
REMARK    3  A    between atoms: C_5  and  O_50
REMARK    4  A    between atoms: C_7  and  O_49
REMARK    5  A    between atoms: C_8  and  O_11
REMARK    6  A    between atoms: O_11  and  C_12
REMARK    7  A    between atoms: C_14  and  O_48
REMARK    8  A    between atoms: C_19  and  C_40
REMARK    9  A    between atoms: C_20  and  O_23
REMARK   10  A    between atoms: O_23  and  C_24
REMARK   11  A    between atoms: C_26  and  O_39
REMARK   12  A    between atoms: C_27  and  O_38
REMARK   13  A    between atoms: C_28  and  O_37
REMARK   14  A    between atoms: C_30  and  C_32
REMARK   15  A    between atoms: C_32  and  O_33
REMARK   16  A    between atoms: O_33  and  C_34
REMARK   17  A    between atoms: C_34  and  C_36
REMARK   18  A    between atoms: C_42  and  O_47
REMARK   19  A    between atoms: C_43  and  O_46
REMARK                            x       y       z     vdW  Elec       q    Type
REMARK                         _______ _______ _______ _____ _____    ______ ____
ROOT
ATOM      1  C   UNL     1       6.789  -4.154  24.621  0.00  0.00    +0.131 A 
ATOM      2  C   UNL     1       6.068  -2.956  24.658  0.00  0.00    +0.093 A 
ATOM      3  C   UNL     1       6.715  -1.733  24.400  0.00  0.00    +0.147 A 
ATOM      4  O   UNL     1       5.964  -0.585  24.457  0.00  0.00    -0.451 OA
ATOM      5  C   UNL     1       6.546   0.642  24.112  0.00  0.00    +0.181 A 
ATOM      6  C   UNL     1       7.871   0.807  23.866  0.00  0.00    +0.214 A 
ATOM      7  C   UNL     1       8.737  -0.418  23.992  0.00  0.00    +0.238 A 
ATOM      8  O   UNL     1       9.959  -0.367  24.015  0.00  0.00    -0.283 OA
ATOM      9  C   UNL     1       8.073  -1.720  24.117  0.00  0.00    +0.109 A 
ATOM     10  C   UNL     1       8.777  -2.926  24.019  0.00  0.00    +0.135 A 
ATOM     11  C   UNL     1       8.140  -4.134  24.276  0.00  0.00    +0.092 A 
ENDROOT
BRANCH   5  12
ATOM     12  C   UNL     1       5.542   1.760  24.070  0.00  0.00    +0.025 A 
ATOM     13  C   UNL     1       4.776   2.066  25.216  0.00  0.00    +0.015 A 
ATOM     14  C   UNL     1       3.855   3.130  25.221  0.00  0.00    +0.050 A 
ATOM     15  C   UNL     1       3.687   3.885  24.068  0.00  0.00    +0.158 A 
ATOM     16  C   UNL     1       4.421   3.609  22.935  0.00  0.00    +0.159 A 
ATOM     17  C   UNL     1       5.355   2.572  22.935  0.00  0.00    +0.060 A 
BRANCH  15  18
ATOM     18  O   UNL     1       2.790   4.917  24.066  0.00  0.00    -0.503 OA
ATOM     19  H   UNL     1       1.915   4.481  24.061  0.00  0.00    +0.292 HD
ENDBRANCH  15  18
BRANCH  16  20
ATOM     20  O   UNL     1       4.205   4.388  21.828  0.00  0.00    -0.503 OA
ATOM     21  H   UNL     1       3.713   3.868  21.170  0.00  0.00    +0.292 HD
ENDBRANCH  16  20
ENDBRANCH   5  12
BRANCH  10  22
ATOM     22  O   UNL     1      10.092  -2.954  23.649  0.00  0.00    -0.506 OA
ATOM     23  H   UNL     1      10.283  -2.246  23.014  0.00  0.00    +0.292 HD
ENDBRANCH  10  22
BRANCH   6  24
ATOM     24  O   UNL     1       8.401   2.056  23.511  0.00  0.00    -0.453 OA
BRANCH  24  25
ATOM     25  C   UNL     1       9.271   2.712  24.450  0.00  0.00    +0.340 C 
ATOM     26  O   UNL     1       8.555   3.280  25.554  0.00  0.00    -0.330 OA
ATOM     27  C   UNL     1       7.711   4.384  25.215  0.00  0.00    +0.191 C 
ATOM     28  C   UNL     1       8.565   5.535  24.686  0.00  0.00    +0.178 C 
ATOM     29  C   UNL     1       9.332   5.059  23.445  0.00  0.00    +0.180 C 
ATOM     30  C   UNL     1      10.137   3.792  23.754  0.00  0.00    +0.214 C 
BRANCH  28  31
ATOM     31  O   UNL     1       7.739   6.654  24.365  0.00  0.00    -0.386 OA
ATOM     32  H   UNL     1       8.319   7.416  24.180  0.00  0.00    +0.210 HD
ENDBRANCH  28  31
BRANCH  29  33
ATOM     33  O   UNL     1      10.167   6.134  22.989  0.00  0.00    -0.386 OA
ATOM     34  H   UNL     1      10.976   6.143  23.533  0.00  0.00    +0.210 HD
ENDBRANCH  29  33
BRANCH  30  35
ATOM     35  O   UNL     1      10.774   3.298  22.570  0.00  0.00    -0.383 OA
ATOM     36  H   UNL     1      11.734   3.271  22.738  0.00  0.00    +0.210 HD
ENDBRANCH  30  35
BRANCH  27  37
ATOM     37  C   UNL     1       6.922   4.812  26.462  0.00  0.00    +0.266 C 
BRANCH  37  38
ATOM     38  O   UNL     1       7.371   4.104  27.637  0.00  0.00    -0.462 OA
BRANCH  38  39
ATOM     39  C   UNL     1       6.416   3.410  28.307  0.00  0.00    +0.304 C 
ATOM     40  C   UNL     1       6.833   1.984  28.501  0.00  0.00    +0.136 C 
ATOM     41  O   UNL     1       5.351   3.868  28.701  0.00  0.00    -0.251 OA
ENDBRANCH  38  39
ENDBRANCH  37  38
ENDBRANCH  27  37
ENDBRANCH  24  25
ENDBRANCH   6  24
BRANCH   1  42
ATOM     42  O   UNL     1       6.338  -5.411  24.903  0.00  0.00    -0.461 OA
BRANCH  42  46
ATOM     43  C   UNL     1       2.670  -5.622  27.147  0.00  0.00    +0.041 C 
ATOM     44  C   UNL     1       3.371  -6.829  26.529  0.00  0.00    +0.150 C 
ATOM     45  O   UNL     1       4.743  -6.514  26.248  0.00  0.00    -0.334 OA
ATOM     46  C   UNL     1       4.944  -5.615  25.152  0.00  0.00    +0.339 C 
ATOM     47  C   UNL     1       4.366  -6.249  23.865  0.00  0.00    +0.214 C 
ATOM     48  C   UNL     1       2.862  -6.472  24.071  0.00  0.00    +0.180 C 
ATOM     49  C   UNL     1       2.625  -7.374  25.295  0.00  0.00    +0.174 C 
BRANCH  49  50
ATOM     50  O   UNL     1       3.058  -8.713  25.018  0.00  0.00    -0.387 OA
ATOM     51  H   UNL     1       2.818  -8.902  24.083  0.00  0.00    +0.210 HD
ENDBRANCH  49  50
BRANCH  48  52
ATOM     52  O   UNL     1       2.254  -6.999  22.888  0.00  0.00    -0.386 OA
ATOM     53  H   UNL     1       2.477  -7.948  22.833  0.00  0.00    +0.210 HD
ENDBRANCH  48  52
BRANCH  47  54
ATOM     54  O   UNL     1       5.017  -7.522  23.624  0.00  0.00    -0.383 OA
ATOM     55  H   UNL     1       5.796  -7.544  24.215  0.00  0.00    +0.210 HD
ENDBRANCH  47  54
ENDBRANCH  42  46
ENDBRANCH   1  42
TORSDOF 17
ENDMDL
MODEL 4
REMARK VINA RESULT:      -6.4      1.502      2.471
REMARK  Name = 
REMARK  19 active torsions:
REMARK  status: ('A' for Active; 'I' for Inactive)
REMARK    1  A    between atoms: C_1  and  C_2
REMARK    2  A    between atoms: C_3  and  O_51
REMARK    3  A    between atoms: C_5  and  O_50
REMARK    4  A    between atoms: C_7  and  O_49
REMARK    5  A    between atoms: C_8  and  O_11
REMARK    6  A    between atoms: O_11  and  C_12
REMARK    7  A    between atoms: C_14  and  O_48
REMARK    8  A    between atoms: C_19  and  C_40
REMARK    9  A    between atoms: C_20  and  O_23
REMARK   10  A    between atoms: O_23  and  C_24
REMARK   11  A    between atoms: C_26  and  O_39
REMARK   12  A    between atoms: C_27  and  O_38
REMARK   13  A    between atoms: C_28  and  O_37
REMARK   14  A    between atoms: C_30  and  C_32
REMARK   15  A    between atoms: C_32  and  O_33
REMARK   16  A    between atoms: O_33  and  C_34
REMARK   17  A    between atoms: C_34  and  C_36
REMARK   18  A    between atoms: C_42  and  O_47
REMARK   19  A    between atoms: C_43  and  O_46
REMARK                            x       y       z     vdW  Elec       q    Type
REMARK                         _______ _______ _______ _____ _____    ______ ____
ROOT
ATOM      1  C   UNL     1       5.196  -5.242  25.212  0.00  0.00    +0.131 A 
ATOM      2  C   UNL     1       5.889  -4.254  24.504  0.00  0.00    +0.093 A 
ATOM      3  C   UNL     1       6.132  -3.001  25.093  0.00  0.00    +0.147 A 
ATOM      4  O   UNL     1       6.809  -2.063  24.351  0.00  0.00    -0.451 OA
ATOM      5  C   UNL     1       7.158  -0.838  24.935  0.00  0.00    +0.181 A 
ATOM      6  C   UNL     1       6.733  -0.437  26.161  0.00  0.00    +0.214 A 
ATOM      7  C   UNL     1       5.828  -1.383  26.903  0.00  0.00    +0.238 A 
ATOM      8  O   UNL     1       5.204  -1.056  27.903  0.00  0.00    -0.283 OA
ATOM      9  C   UNL     1       5.677  -2.744  26.378  0.00  0.00    +0.109 A 
ATOM     10  C   UNL     1       5.039  -3.755  27.107  0.00  0.00    +0.135 A 
ATOM     11  C   UNL     1       4.796  -4.993  26.525  0.00  0.00    +0.092 A 
ENDROOT
BRANCH   5  12
ATOM     12  C   UNL     1       8.033  -0.007  24.040  0.00  0.00    +0.025 A 
ATOM     13  C   UNL     1       7.669   0.205  22.691  0.00  0.00    +0.015 A 
ATOM     14  C   UNL     1       8.448   1.008  21.838  0.00  0.00    +0.050 A 
ATOM     15  C   UNL     1       9.606   1.593  22.330  0.00  0.00    +0.158 A 
ATOM     16  C   UNL     1       9.988   1.404  23.641  0.00  0.00    +0.159 A 
ATOM     17  C   UNL     1       9.203   0.630  24.498  0.00  0.00    +0.060 A 
BRANCH  15  18
ATOM     18  O   UNL     1      10.369   2.371  21.503  0.00  0.00    -0.503 OA
ATOM     19  H   UNL     1      11.290   2.098  21.691  0.00  0.00    +0.292 HD
ENDBRANCH  15  18
BRANCH  16  20
ATOM     20  O   UNL     1      11.144   2.004  24.063  0.00  0.00    -0.503 OA
ATOM     21  H   UNL     1      11.302   1.761  24.991  0.00  0.00    +0.292 HD
ENDBRANCH  16  20
ENDBRANCH   5  12
BRANCH  10  22
ATOM     22  O   UNL     1       4.663  -3.566  28.407  0.00  0.00    -0.506 OA
ATOM     23  H   UNL     1       4.230  -2.705  28.515  0.00  0.00    +0.292 HD
ENDBRANCH  10  22
BRANCH   6  24
ATOM     24  O   UNL     1       7.123   0.796  26.704  0.00  0.00    -0.453 OA
BRANCH  24  25
ATOM     25  C   UNL     1       6.104   1.784  26.936  0.00  0.00    +0.340 C 
ATOM     26  O   UNL     1       5.364   2.096  25.750  0.00  0.00    -0.330 OA
ATOM     27  C   UNL     1       6.113   2.775  24.738  0.00  0.00    +0.191 C 
ATOM     28  C   UNL     1       6.569   4.134  25.267  0.00  0.00    +0.178 C 
ATOM     29  C   UNL     1       7.440   3.919  26.511  0.00  0.00    +0.180 C 
ATOM     30  C   UNL     1       6.702   3.073  27.555  0.00  0.00    +0.214 C 
BRANCH  28  31
ATOM     31  O   UNL     1       7.298   4.834  24.259  0.00  0.00    -0.386 OA
ATOM     32  H   UNL     1       7.922   4.208  23.847  0.00  0.00    +0.210 HD
ENDBRANCH  28  31
BRANCH  29  33
ATOM     33  O   UNL     1       7.820   5.205  27.026  0.00  0.00    -0.386 OA
ATOM     34  H   UNL     1       8.244   5.072  27.894  0.00  0.00    +0.210 HD
ENDBRANCH  29  33
BRANCH  30  35
ATOM     35  O   UNL     1       7.553   2.796  28.673  0.00  0.00    -0.383 OA
ATOM     36  H   UNL     1       8.209   3.514  28.734  0.00  0.00    +0.210 HD
ENDBRANCH  30  35
BRANCH  27  37
ATOM     37  C   UNL     1       5.233   2.936  23.488  0.00  0.00    +0.266 C 
BRANCH  37  38
ATOM     38  O   UNL     1       4.439   4.140  23.557  0.00  0.00    -0.462 OA
BRANCH  38  39
ATOM     39  C   UNL     1       3.098   3.968  23.432  0.00  0.00    +0.304 C 
ATOM     40  C   UNL     1       2.440   5.238  22.985  0.00  0.00    +0.136 C 
ATOM     41  O   UNL     1       2.492   2.928  23.655  0.00  0.00    -0.251 OA
ENDBRANCH  38  39
ENDBRANCH  37  38
ENDBRANCH  27  37
ENDBRANCH  24  25
ENDBRANCH   6  24
BRANCH   1  42
ATOM     42  O   UNL     1       4.823  -6.480  24.776  0.00  0.00    -0.461 OA
BRANCH  42  46
ATOM     43  C   UNL     1       1.102  -8.501  25.550  0.00  0.00    +0.041 C 
ATOM     44  C   UNL     1       1.867  -8.584  24.232  0.00  0.00    +0.150 C 
ATOM     45  O   UNL     1       3.234  -8.189  24.429  0.00  0.00    -0.334 OA
ATOM     46  C   UNL     1       3.431  -6.791  24.658  0.00  0.00    +0.339 C 
ATOM     47  C   UNL     1       2.917  -5.999  23.434  0.00  0.00    +0.214 C 
ATOM     48  C   UNL     1       1.417  -6.281  23.272  0.00  0.00    +0.180 C 
ATOM     49  C   UNL     1       1.180  -7.793  23.103  0.00  0.00    +0.174 C 
BRANCH  49  50
ATOM     50  O   UNL     1       1.673  -8.234  21.830  0.00  0.00    -0.387 OA
ATOM     51  H   UNL     1       1.406  -7.555  21.170  0.00  0.00    +0.210 HD
ENDBRANCH  49  50
BRANCH  48  52
ATOM     52  O   UNL     1       0.866  -5.525  22.190  0.00  0.00    -0.386 OA
ATOM     53  H   UNL     1      -0.075  -5.769  22.101  0.00  0.00    +0.210 HD
ENDBRANCH  48  52
BRANCH  47  54
ATOM     54  O   UNL     1       3.624  -6.439  22.247  0.00  0.00    -0.383 OA
ATOM     55  H   UNL     1       3.302  -7.344  22.060  0.00  0.00    +0.210 HD
ENDBRANCH  47  54
ENDBRANCH  42  46
ENDBRANCH   1  42
TORSDOF 17
ENDMDL
MODEL 5
REMARK VINA RESULT:      -6.2      1.867      4.380
REMARK  Name = 
REMARK  19 active torsions:
REMARK  status: ('A' for Active; 'I' for Inactive)
REMARK    1  A    between atoms: C_1  and  C_2
REMARK    2  A    between atoms: C_3  and  O_51
REMARK    3  A    between atoms: C_5  and  O_50
REMARK    4  A    between atoms: C_7  and  O_49
REMARK    5  A    between atoms: C_8  and  O_11
REMARK    6  A    between atoms: O_11  and  C_12
REMARK    7  A    between atoms: C_14  and  O_48
REMARK    8  A    between atoms: C_19  and  C_40
REMARK    9  A    between atoms: C_20  and  O_23
REMARK   10  A    between atoms: O_23  and  C_24
REMARK   11  A    between atoms: C_26  and  O_39
REMARK   12  A    between atoms: C_27  and  O_38
REMARK   13  A    between atoms: C_28  and  O_37
REMARK   14  A    between atoms: C_30  and  C_32
REMARK   15  A    between atoms: C_32  and  O_33
REMARK   16  A    between atoms: O_33  and  C_34
REMARK   17  A    between atoms: C_34  and  C_36
REMARK   18  A    between atoms: C_42  and  O_47
REMARK   19  A    between atoms: C_43  and  O_46
REMARK                            x       y       z     vdW  Elec       q    Type
REMARK                         _______ _______ _______ _____ _____    ______ ____
ROOT
ATOM      1  C   UNL     1       6.607  -3.841  23.946  0.00  0.00    +0.131 A 
ATOM      2  C   UNL     1       6.026  -2.765  24.626  0.00  0.00    +0.093 A 
ATOM      3  C   UNL     1       6.623  -1.492  24.579  0.00  0.00    +0.147 A 
ATOM      4  O   UNL     1       6.016  -0.472  25.271  0.00  0.00    -0.451 OA
ATOM      5  C   UNL     1       6.522   0.831  25.171  0.00  0.00    +0.181 A 
ATOM      6  C   UNL     1       7.687   1.142  24.546  0.00  0.00    +0.214 A 
ATOM      7  C   UNL     1       8.458  -0.003  23.948  0.00  0.00    +0.238 A 
ATOM      8  O   UNL     1       9.613   0.106  23.558  0.00  0.00    -0.283 OA
ATOM      9  C   UNL     1       7.794  -1.308  23.859  0.00  0.00    +0.109 A 
ATOM     10  C   UNL     1       8.338  -2.371  23.129  0.00  0.00    +0.135 A 
ATOM     11  C   UNL     1       7.751  -3.630  23.177  0.00  0.00    +0.092 A 
ENDROOT
BRANCH   5  12
ATOM     12  C   UNL     1       5.644   1.839  25.855  0.00  0.00    +0.025 A 
ATOM     13  C   UNL     1       4.516   2.366  25.187  0.00  0.00    +0.015 A 
ATOM     14  C   UNL     1       3.654   3.284  25.814  0.00  0.00    +0.050 A 
ATOM     15  C   UNL     1       3.926   3.690  27.112  0.00  0.00    +0.158 A 
ATOM     16  C   UNL     1       5.019   3.194  27.789  0.00  0.00    +0.159 A 
ATOM     17  C   UNL     1       5.862   2.263  27.181  0.00  0.00    +0.060 A 
BRANCH  15  18
ATOM     18  O   UNL     1       3.093   4.586  27.725  0.00  0.00    -0.503 OA
ATOM     19  H   UNL     1       2.225   4.445  27.297  0.00  0.00    +0.292 HD
ENDBRANCH  15  18
BRANCH  16  20
ATOM     20  O   UNL     1       5.236   3.639  29.066  0.00  0.00    -0.503 OA
ATOM     21  H   UNL     1       4.393   3.626  29.551  0.00  0.00    +0.292 HD
ENDBRANCH  16  20
ENDBRANCH   5  12
BRANCH  10  22
ATOM     22  O   UNL     1       9.437  -2.200  22.335  0.00  0.00    -0.506 OA
ATOM     23  H   UNL     1       9.470  -2.884  21.647  0.00  0.00    +0.292 HD
ENDBRANCH  10  22
BRANCH   6  24
ATOM     24  O   UNL     1       8.142   2.466  24.462  0.00  0.00    -0.453 OA
BRANCH  24  25
ATOM     25  C   UNL     1       8.673   2.920  23.205  0.00  0.00    +0.340 C 
ATOM     26  O   UNL     1       9.791   3.800  23.369  0.00  0.00    -0.330 OA
ATOM     27  C   UNL     1       9.474   5.067  23.953  0.00  0.00    +0.191 C 
ATOM     28  C   UNL     1       8.525   5.830  23.030  0.00  0.00    +0.178 C 
ATOM     29  C   UNL     1       7.246   5.005  22.838  0.00  0.00    +0.180 C 
ATOM     30  C   UNL     1       7.576   3.593  22.342  0.00  0.00    +0.214 C 
BRANCH  28  31
ATOM     31  O   UNL     1       8.217   7.108  23.589  0.00  0.00    -0.386 OA
ATOM     32  H   UNL     1       9.058   7.560  23.789  0.00  0.00    +0.210 HD
ENDBRANCH  28  31
BRANCH  29  33
ATOM     33  O   UNL     1       6.384   5.711  21.930  0.00  0.00    -0.386 OA
ATOM     34  H   UNL     1       6.939   6.125  21.244  0.00  0.00    +0.210 HD
ENDBRANCH  29  33
BRANCH  30  35
ATOM     35  O   UNL     1       6.388   2.798  22.254  0.00  0.00    -0.383 OA
ATOM     36  H   UNL     1       5.629   3.404  22.177  0.00  0.00    +0.210 HD
ENDBRANCH  30  35
BRANCH  27  37
ATOM     37  C   UNL     1      10.775   5.854  24.177  0.00  0.00    +0.266 C 
BRANCH  37  38
ATOM     38  O   UNL     1      11.523   5.994  22.950  0.00  0.00    -0.462 OA
BRANCH  38  39
ATOM     39  C   UNL     1      12.758   5.429  22.946  0.00  0.00    +0.304 C 
ATOM     40  C   UNL     1      13.601   6.005  21.849  0.00  0.00    +0.136 C 
ATOM     41  O   UNL     1      13.144   4.563  23.719  0.00  0.00    -0.251 OA
ENDBRANCH  38  39
ENDBRANCH  37  38
ENDBRANCH  27  37
ENDBRANCH  24  25
ENDBRANCH   6  24
BRANCH   1  42
ATOM     42  O   UNL     1       6.200  -5.143  23.935  0.00  0.00    -0.461 OA
BRANCH  42  46
ATOM     43  C   UNL     1       3.226  -6.507  26.732  0.00  0.00    +0.041 C 
ATOM     44  C   UNL     1       3.599  -7.242  25.447  0.00  0.00    +0.150 C 
ATOM     45  O   UNL     1       4.882  -6.798  24.979  0.00  0.00    -0.334 OA
ATOM     46  C   UNL     1       4.901  -5.475  24.435  0.00  0.00    +0.339 C 
ATOM     47  C   UNL     1       3.944  -5.411  23.223  0.00  0.00    +0.214 C 
ATOM     48  C   UNL     1       2.527  -5.740  23.709  0.00  0.00    +0.180 C 
ATOM     49  C   UNL     1       2.505  -7.131  24.368  0.00  0.00    +0.174 C 
BRANCH  49  50
ATOM     50  O   UNL     1       2.692  -8.153  23.379  0.00  0.00    -0.387 OA
ATOM     51  H   UNL     1       3.576  -8.553  23.547  0.00  0.00    +0.210 HD
ENDBRANCH  49  50
BRANCH  48  52
ATOM     52  O   UNL     1       1.580  -5.636  22.641  0.00  0.00    -0.386 OA
ATOM     53  H   UNL     1       0.979  -4.894  22.843  0.00  0.00    +0.210 HD
ENDBRANCH  48  52
BRANCH  47  54
ATOM     54  O   UNL     1       4.357  -6.388  22.234  0.00  0.00    -0.383 OA
ATOM     55  H   UNL     1       5.030  -5.945  21.680  0.00  0.00    +0.210 HD
ENDBRANCH  47  54
ENDBRANCH  42  46
ENDBRANCH   1  42
TORSDOF 17
ENDMDL
MODEL 6
REMARK VINA RESULT:      -6.2      2.045      4.353
REMARK  Name = 
REMARK  19 active torsions:
REMARK  status: ('A' for Active; 'I' for Inactive)
REMARK    1  A    between atoms: C_1  and  C_2
REMARK    2  A    between atoms: C_3  and  O_51
REMARK    3  A    between atoms: C_5  and  O_50
REMARK    4  A    between atoms: C_7  and  O_49
REMARK    5  A    between atoms: C_8  and  O_11
REMARK    6  A    between atoms: O_11  and  C_12
REMARK    7  A    between atoms: C_14  and  O_48
REMARK    8  A    between atoms: C_19  and  C_40
REMARK    9  A    between atoms: C_20  and  O_23
REMARK   10  A    between atoms: O_23  and  C_24
REMARK   11  A    between atoms: C_26  and  O_39
REMARK   12  A    between atoms: C_27  and  O_38
REMARK   13  A    between atoms: C_28  and  O_37
REMARK   14  A    between atoms: C_30  and  C_32
REMARK   15  A    between atoms: C_32  and  O_33
REMARK   16  A    between atoms: O_33  and  C_34
REMARK   17  A    between atoms: C_34  and  C_36
REMARK   18  A    between atoms: C_42  and  O_47
REMARK   19  A    between atoms: C_43  and  O_46
REMARK                            x       y       z     vdW  Elec       q    Type
REMARK                         _______ _______ _______ _____ _____    ______ ____
ROOT
ATOM      1  C   UNL     1       5.352  -4.146  24.549  0.00  0.00    +0.131 A 
ATOM      2  C   UNL     1       4.906  -2.866  24.895  0.00  0.00    +0.093 A 
ATOM      3  C   UNL     1       5.707  -1.742  24.628  0.00  0.00    +0.147 A 
ATOM      4  O   UNL     1       5.225  -0.508  24.995  0.00  0.00    -0.451 OA
ATOM      5  C   UNL     1       5.947   0.646  24.660  0.00  0.00    +0.181 A 
ATOM      6  C   UNL     1       7.193   0.627  24.120  0.00  0.00    +0.214 A 
ATOM      7  C   UNL     1       7.808  -0.727  23.893  0.00  0.00    +0.238 A 
ATOM      8  O   UNL     1       8.992  -0.881  23.624  0.00  0.00    -0.283 OA
ATOM      9  C   UNL     1       6.946  -1.906  24.027  0.00  0.00    +0.109 A 
ATOM     10  C   UNL     1       7.362  -3.181  23.625  0.00  0.00    +0.135 A 
ATOM     11  C   UNL     1       6.573  -4.293  23.890  0.00  0.00    +0.092 A 
ENDROOT
BRANCH   5  12
ATOM     12  C   UNL     1       5.197   1.905  24.991  0.00  0.00    +0.025 A 
ATOM     13  C   UNL     1       4.477   2.585  23.984  0.00  0.00    +0.015 A 
ATOM     14  C   UNL     1       3.734   3.746  24.269  0.00  0.00    +0.050 A 
ATOM     15  C   UNL     1       3.721   4.239  25.566  0.00  0.00    +0.158 A 
ATOM     16  C   UNL     1       4.414   3.597  26.569  0.00  0.00    +0.159 A 
ATOM     17  C   UNL     1       5.130   2.430  26.296  0.00  0.00    +0.060 A 
BRANCH  15  18
ATOM     18  O   UNL     1       3.005   5.370  25.848  0.00  0.00    -0.503 OA
ATOM     19  H   UNL     1       3.682   6.067  25.963  0.00  0.00    +0.292 HD
ENDBRANCH  15  18
BRANCH  16  20
ATOM     20  O   UNL     1       4.366   4.137  27.827  0.00  0.00    -0.503 OA
ATOM     21  H   UNL     1       4.299   5.105  27.751  0.00  0.00    +0.292 HD
ENDBRANCH  16  20
ENDBRANCH   5  12
BRANCH  10  22
ATOM     22  O   UNL     1       8.533  -3.366  22.946  0.00  0.00    -0.506 OA
ATOM     23  H   UNL     1       9.257  -2.884  23.376  0.00  0.00    +0.292 HD
ENDBRANCH  10  22
BRANCH   6  24
ATOM     24  O   UNL     1       7.866   1.812  23.791  0.00  0.00    -0.453 OA
BRANCH  24  25
ATOM     25  C   UNL     1       8.724   2.400  24.785  0.00  0.00    +0.340 C 
ATOM     26  O   UNL     1       8.232   3.658  25.259  0.00  0.00    -0.330 OA
ATOM     27  C   UNL     1       8.251   4.712  24.291  0.00  0.00    +0.191 C 
ATOM     28  C   UNL     1       9.694   5.001  23.881  0.00  0.00    +0.178 C 
ATOM     29  C   UNL     1      10.309   3.728  23.285  0.00  0.00    +0.180 C 
ATOM     30  C   UNL     1      10.174   2.550  24.257  0.00  0.00    +0.214 C 
BRANCH  28  31
ATOM     31  O   UNL     1       9.731   6.066  22.931  0.00  0.00    -0.386 OA
ATOM     32  H   UNL     1      10.646   6.148  22.604  0.00  0.00    +0.210 HD
ENDBRANCH  28  31
BRANCH  29  33
ATOM     33  O   UNL     1      11.679   4.000  22.951  0.00  0.00    -0.386 OA
ATOM     34  H   UNL     1      11.720   4.233  22.005  0.00  0.00    +0.210 HD
ENDBRANCH  29  33
BRANCH  30  35
ATOM     35  O   UNL     1      10.663   1.344  23.660  0.00  0.00    -0.383 OA
ATOM     36  H   UNL     1      11.115   1.584  22.830  0.00  0.00    +0.210 HD
ENDBRANCH  30  35
BRANCH  27  37
ATOM     37  C   UNL     1       7.589   5.960  24.896  0.00  0.00    +0.266 C 
BRANCH  37  38
ATOM     38  O   UNL     1       6.259   6.156  24.370  0.00  0.00    -0.462 OA
BRANCH  38  39
ATOM     39  C   UNL     1       6.191   6.727  23.140  0.00  0.00    +0.304 C 
ATOM     40  C   UNL     1       4.768   6.827  22.680  0.00  0.00    +0.136 C 
ATOM     41  O   UNL     1       7.149   7.107  22.480  0.00  0.00    -0.251 OA
ENDBRANCH  38  39
ENDBRANCH  37  38
ENDBRANCH  27  37
ENDBRANCH  24  25
ENDBRANCH   6  24
BRANCH   1  42
ATOM     42  O   UNL     1       4.737  -5.341  24.787  0.00  0.00    -0.461 OA
BRANCH  42  46
ATOM     43  C   UNL     1       0.475  -4.749  24.902  0.00  0.00    +0.041 C 
ATOM     44  C   UNL     1       1.173  -6.051  25.286  0.00  0.00    +0.150 C 
ATOM     45  O   UNL     1       2.559  -5.804  25.567  0.00  0.00    -0.334 OA
ATOM     46  C   UNL     1       3.364  -5.506  24.422  0.00  0.00    +0.339 C 
ATOM     47  C   UNL     1       3.320  -6.704  23.446  0.00  0.00    +0.214 C 
ATOM     48  C   UNL     1       1.865  -6.914  23.005  0.00  0.00    +0.180 C 
ATOM     49  C   UNL     1       0.971  -7.159  24.234  0.00  0.00    +0.174 C 
BRANCH  49  50
ATOM     50  O   UNL     1       1.262  -8.438  24.813  0.00  0.00    -0.387 OA
ATOM     51  H   UNL     1       1.427  -9.058  24.067  0.00  0.00    +0.210 HD
ENDBRANCH  49  50
BRANCH  48  52
ATOM     52  O   UNL     1       1.766  -7.973  22.048  0.00  0.00    -0.386 OA
ATOM     53  H   UNL     1       2.458  -8.629  22.253  0.00  0.00    +0.210 HD
ENDBRANCH  48  52
BRANCH  47  54
ATOM     54  O   UNL     1       3.797  -7.893  24.125  0.00  0.00    -0.383 OA
ATOM     55  H   UNL     1       4.688  -8.073  23.762  0.00  0.00    +0.210 HD
ENDBRANCH  47  54
ENDBRANCH  42  46
ENDBRANCH   1  42
TORSDOF 17
ENDMDL
MODEL 7
REMARK VINA RESULT:      -6.1      2.462     10.017
REMARK  Name = 
REMARK  19 active torsions:
REMARK  status: ('A' for Active; 'I' for Inactive)
REMARK    1  A    between atoms: C_1  and  C_2
REMARK    2  A    between atoms: C_3  and  O_51
REMARK    3  A    between atoms: C_5  and  O_50
REMARK    4  A    between atoms: C_7  and  O_49
REMARK    5  A    between atoms: C_8  and  O_11
REMARK    6  A    between atoms: O_11  and  C_12
REMARK    7  A    between atoms: C_14  and  O_48
REMARK    8  A    between atoms: C_19  and  C_40
REMARK    9  A    between atoms: C_20  and  O_23
REMARK   10  A    between atoms: O_23  and  C_24
REMARK   11  A    between atoms: C_26  and  O_39
REMARK   12  A    between atoms: C_27  and  O_38
REMARK   13  A    between atoms: C_28  and  O_37
REMARK   14  A    between atoms: C_30  and  C_32
REMARK   15  A    between atoms: C_32  and  O_33
REMARK   16  A    between atoms: O_33  and  C_34
REMARK   17  A    between atoms: C_34  and  C_36
REMARK   18  A    between atoms: C_42  and  O_47
REMARK   19  A    between atoms: C_43  and  O_46
REMARK                            x       y       z     vdW  Elec       q    Type
REMARK                         _______ _______ _______ _____ _____    ______ ____
ROOT
ATOM      1  C   UNL     1       8.489   0.168  23.720  0.00  0.00    +0.131 A 
ATOM      2  C   UNL     1       7.316  -0.067  24.445  0.00  0.00    +0.093 A 
ATOM      3  C   UNL     1       7.066  -1.338  24.994  0.00  0.00    +0.147 A 
ATOM      4  O   UNL     1       5.894  -1.517  25.690  0.00  0.00    -0.451 OA
ATOM      5  C   UNL     1       5.652  -2.737  26.335  0.00  0.00    +0.181 A 
ATOM      6  C   UNL     1       6.438  -3.836  26.194  0.00  0.00    +0.214 A 
ATOM      7  C   UNL     1       7.623  -3.703  25.276  0.00  0.00    +0.238 A 
ATOM      8  O   UNL     1       8.275  -4.664  24.891  0.00  0.00    -0.283 OA
ATOM      9  C   UNL     1       7.984  -2.360  24.808  0.00  0.00    +0.109 A 
ATOM     10  C   UNL     1       9.185  -2.105  24.137  0.00  0.00    +0.135 A 
ATOM     11  C   UNL     1       9.433  -0.851  23.592  0.00  0.00    +0.092 A 
ENDROOT
BRANCH   5  12
ATOM     12  C   UNL     1       4.410  -2.701  27.179  0.00  0.00    +0.025 A 
ATOM     13  C   UNL     1       4.485  -2.975  28.563  0.00  0.00    +0.015 A 
ATOM     14  C   UNL     1       3.346  -2.912  29.387  0.00  0.00    +0.050 A 
ATOM     15  C   UNL     1       2.120  -2.587  28.824  0.00  0.00    +0.158 A 
ATOM     16  C   UNL     1       2.016  -2.315  27.477  0.00  0.00    +0.159 A 
ATOM     17  C   UNL     1       3.148  -2.349  26.661  0.00  0.00    +0.060 A 
BRANCH  15  18
ATOM     18  O   UNL     1       1.009  -2.529  29.619  0.00  0.00    -0.503 OA
ATOM     19  H   UNL     1       1.355  -2.620  30.530  0.00  0.00    +0.292 HD
ENDBRANCH  15  18
BRANCH  16  20
ATOM     20  O   UNL     1       0.777  -2.006  26.981  0.00  0.00    -0.503 OA
ATOM     21  H   UNL     1       0.106  -2.237  27.646  0.00  0.00    +0.292 HD
ENDBRANCH  16  20
ENDBRANCH   5  12
BRANCH  10  22
ATOM     22  O   UNL     1      10.152  -3.063  24.019  0.00  0.00    -0.506 OA
ATOM     23  H   UNL     1      10.571  -3.233  24.878  0.00  0.00    +0.292 HD
ENDBRANCH  10  22
BRANCH   6  24
ATOM     24  O   UNL     1       6.157  -5.029  26.874  0.00  0.00    -0.453 OA
BRANCH  24  25
ATOM     25  C   UNL     1       5.815  -6.188  26.092  0.00  0.00    +0.340 C 
ATOM     26  O   UNL     1       5.304  -5.843  24.799  0.00  0.00    -0.330 OA
ATOM     27  C   UNL     1       4.029  -5.193  24.813  0.00  0.00    +0.191 C 
ATOM     28  C   UNL     1       2.981  -6.141  25.394  0.00  0.00    +0.178 C 
ATOM     29  C   UNL     1       3.391  -6.525  26.821  0.00  0.00    +0.180 C 
ATOM     30  C   UNL     1       4.812  -7.098  26.845  0.00  0.00    +0.214 C 
BRANCH  28  31
ATOM     31  O   UNL     1       1.698  -5.514  25.393  0.00  0.00    -0.386 OA
ATOM     32  H   UNL     1       1.557  -5.110  26.269  0.00  0.00    +0.210 HD
ENDBRANCH  28  31
BRANCH  29  33
ATOM     33  O   UNL     1       2.424  -7.453  27.336  0.00  0.00    -0.386 OA
ATOM     34  H   UNL     1       1.887  -6.993  28.008  0.00  0.00    +0.210 HD
ENDBRANCH  29  33
BRANCH  30  35
ATOM     35  O   UNL     1       5.225  -7.367  28.190  0.00  0.00    -0.383 OA
ATOM     36  H   UNL     1       4.589  -7.995  28.577  0.00  0.00    +0.210 HD
ENDBRANCH  30  35
BRANCH  27  37
ATOM     37  C   UNL     1       3.663  -4.778  23.379  0.00  0.00    +0.266 C 
BRANCH  37  38
ATOM     38  O   UNL     1       4.618  -5.288  22.425  0.00  0.00    -0.462 OA
BRANCH  38  39
ATOM     39  C   UNL     1       5.565  -4.407  22.011  0.00  0.00    +0.304 C 
ATOM     40  C   UNL     1       6.861  -5.109  21.742  0.00  0.00    +0.136 C 
ATOM     41  O   UNL     1       5.402  -3.202  21.877  0.00  0.00    -0.251 OA
ENDBRANCH  38  39
ENDBRANCH  37  38
ENDBRANCH  27  37
ENDBRANCH  24  25
ENDBRANCH   6  24
BRANCH   1  42
ATOM     42  O   UNL     1       8.859   1.311  23.074  0.00  0.00    -0.461 OA
BRANCH  42  46
ATOM     43  C   UNL     1       5.781   4.306  22.771  0.00  0.00    +0.041 C 
ATOM     44  C   UNL     1       7.227   4.510  22.325  0.00  0.00    +0.150 C 
ATOM     45  O   UNL     1       7.871   3.240  22.141  0.00  0.00    -0.334 OA
ATOM     46  C   UNL     1       8.160   2.529  23.349  0.00  0.00    +0.339 C 
ATOM     47  C   UNL     1       9.108   3.380  24.224  0.00  0.00    +0.214 C 
ATOM     48  C   UNL     1       8.397   4.696  24.567  0.00  0.00    +0.180 C 
ATOM     49  C   UNL     1       8.009   5.438  23.275  0.00  0.00    +0.174 C 
BRANCH  49  50
ATOM     50  O   UNL     1       9.182   5.933  22.614  0.00  0.00    -0.387 OA
ATOM     51  H   UNL     1       9.057   5.768  21.652  0.00  0.00    +0.210 HD
ENDBRANCH  49  50
BRANCH  48  52
ATOM     52  O   UNL     1       9.201   5.505  25.431  0.00  0.00    -0.386 OA
ATOM     53  H   UNL     1       8.635   5.819  26.161  0.00  0.00    +0.210 HD
ENDBRANCH  48  52
BRANCH  47  54
ATOM     54  O   UNL     1      10.321   3.663  23.482  0.00  0.00    -0.383 OA
ATOM     55  H   UNL     1      10.200   4.553  23.094  0.00  0.00    +0.210 HD
ENDBRANCH  47  54
ENDBRANCH  42  46
ENDBRANCH   1  42
TORSDOF 17
ENDMDL
MODEL 8
REMARK VINA RESULT:      -6.1      2.094      9.750
REMARK  Name = 
REMARK  19 active torsions:
REMARK  status: ('A' for Active; 'I' for Inactive)
REMARK    1  A    between atoms: C_1  and  C_2
REMARK    2  A    between atoms: C_3  and  O_51
REMARK    3  A    between atoms: C_5  and  O_50
REMARK    4  A    between atoms: C_7  and  O_49
REMARK    5  A    between atoms: C_8  and  O_11
REMARK    6  A    between atoms: O_11  and  C_12
REMARK    7  A    between atoms: C_14  and  O_48
REMARK    8  A    between atoms: C_19  and  C_40
REMARK    9  A    between atoms: C_20  and  O_23
REMARK   10  A    between atoms: O_23  and  C_24
REMARK   11  A    between atoms: C_26  and  O_39
REMARK   12  A    between atoms: C_27  and  O_38
REMARK   13  A    between atoms: C_28  and  O_37
REMARK   14  A    between atoms: C_30  and  C_32
REMARK   15  A    between atoms: C_32  and  O_33
REMARK   16  A    between atoms: O_33  and  C_34
REMARK   17  A    between atoms: C_34  and  C_36
REMARK   18  A    between atoms: C_42  and  O_47
REMARK   19  A    between atoms: C_43  and  O_46
REMARK                            x       y       z     vdW  Elec       q    Type
REMARK                         _______ _______ _______ _____ _____    ______ ____
ROOT
ATOM      1  C   UNL     1       7.335   1.278  25.437  0.00  0.00    +0.131 A 
ATOM      2  C   UNL     1       6.853   0.079  24.902  0.00  0.00    +0.093 A 
ATOM      3  C   UNL     1       5.947  -0.709  25.634  0.00  0.00    +0.147 A 
ATOM      4  O   UNL     1       5.510  -1.882  25.066  0.00  0.00    -0.451 OA
ATOM      5  C   UNL     1       4.534  -2.646  25.719  0.00  0.00    +0.181 A 
ATOM      6  C   UNL     1       4.086  -2.387  26.974  0.00  0.00    +0.214 A 
ATOM      7  C   UNL     1       4.703  -1.211  27.680  0.00  0.00    +0.238 A 
ATOM      8  O   UNL     1       4.554  -1.003  28.877  0.00  0.00    -0.283 OA
ATOM      9  C   UNL     1       5.537  -0.296  26.894  0.00  0.00    +0.109 A 
ATOM     10  C   UNL     1       5.973   0.935  27.399  0.00  0.00    +0.135 A 
ATOM     11  C   UNL     1       6.870   1.713  26.678  0.00  0.00    +0.092 A 
ENDROOT
BRANCH   5  12
ATOM     12  C   UNL     1       4.059  -3.800  24.882  0.00  0.00    +0.025 A 
ATOM     13  C   UNL     1       2.675  -4.048  24.737  0.00  0.00    +0.015 A 
ATOM     14  C   UNL     1       2.198  -5.098  23.930  0.00  0.00    +0.050 A 
ATOM     15  C   UNL     1       3.108  -5.915  23.276  0.00  0.00    +0.158 A 
ATOM     16  C   UNL     1       4.463  -5.699  23.399  0.00  0.00    +0.159 A 
ATOM     17  C   UNL     1       4.940  -4.642  24.176  0.00  0.00    +0.060 A 
BRANCH  15  18
ATOM     18  O   UNL     1       2.649  -6.940  22.495  0.00  0.00    -0.503 OA
ATOM     19  H   UNL     1       3.303  -7.656  22.621  0.00  0.00    +0.292 HD
ENDBRANCH  15  18
BRANCH  16  20
ATOM     20  O   UNL     1       5.309  -6.545  22.732  0.00  0.00    -0.503 OA
ATOM     21  H   UNL     1       5.778  -6.042  22.044  0.00  0.00    +0.292 HD
ENDBRANCH  16  20
ENDBRANCH   5  12
BRANCH  10  22
ATOM     22  O   UNL     1       5.515   1.415  28.594  0.00  0.00    -0.506 OA
ATOM     23  H   UNL     1       5.841   2.316  28.747  0.00  0.00    +0.292 HD
ENDBRANCH  10  22
BRANCH   6  24
ATOM     24  O   UNL     1       3.096  -3.178  27.576  0.00  0.00    -0.453 OA
BRANCH  24  25
ATOM     25  C   UNL     1       3.457  -3.941  28.741  0.00  0.00    +0.340 C 
ATOM     26  O   UNL     1       4.846  -4.293  28.755  0.00  0.00    -0.330 OA
ATOM     27  C   UNL     1       5.238  -5.224  27.742  0.00  0.00    +0.191 C 
ATOM     28  C   UNL     1       4.509  -6.550  27.960  0.00  0.00    +0.178 C 
ATOM     29  C   UNL     1       2.997  -6.305  27.892  0.00  0.00    +0.180 C 
ATOM     30  C   UNL     1       2.576  -5.209  28.877  0.00  0.00    +0.214 C 
BRANCH  28  31
ATOM     31  O   UNL     1       4.908  -7.498  26.969  0.00  0.00    -0.386 OA
ATOM     32  H   UNL     1       4.960  -7.036  26.111  0.00  0.00    +0.210 HD
ENDBRANCH  28  31
BRANCH  29  33
ATOM     33  O   UNL     1       2.325  -7.549  28.147  0.00  0.00    -0.386 OA
ATOM     34  H   UNL     1       2.086  -7.578  29.092  0.00  0.00    +0.210 HD
ENDBRANCH  29  33
BRANCH  30  35
ATOM     35  O   UNL     1       1.180  -4.918  28.743  0.00  0.00    -0.383 OA
ATOM     36  H   UNL     1       1.095  -3.995  28.442  0.00  0.00    +0.210 HD
ENDBRANCH  30  35
BRANCH  27  37
ATOM     37  C   UNL     1       6.761  -5.416  27.802  0.00  0.00    +0.266 C 
BRANCH  37  38
ATOM     38  O   UNL     1       7.283  -5.873  26.536  0.00  0.00    -0.462 OA
BRANCH  38  39
ATOM     39  C   UNL     1       8.317  -5.151  26.030  0.00  0.00    +0.304 C 
ATOM     40  C   UNL     1       8.200  -3.710  26.423  0.00  0.00    +0.136 C 
ATOM     41  O   UNL     1       9.224  -5.599  25.341  0.00  0.00    -0.251 OA
ENDBRANCH  38  39
ENDBRANCH  37  38
ENDBRANCH  27  37
ENDBRANCH  24  25
ENDBRANCH   6  24
BRANCH   1  42
ATOM     42  O   UNL     1       8.256   2.127  24.896  0.00  0.00    -0.461 OA
BRANCH  42  46
ATOM     43  C   UNL     1       5.848   5.694  24.993  0.00  0.00    +0.041 C 
ATOM     44  C   UNL     1       6.298   4.995  23.713  0.00  0.00    +0.150 C 
ATOM     45  O   UNL     1       6.686   3.643  23.999  0.00  0.00    -0.334 OA
ATOM     46  C   UNL     1       7.917   3.505  24.715  0.00  0.00    +0.339 C 
ATOM     47  C   UNL     1       9.061   4.122  23.878  0.00  0.00    +0.214 C 
ATOM     48  C   UNL     1       8.757   5.612  23.671  0.00  0.00    +0.180 C 
ATOM     49  C   UNL     1       7.397   5.780  22.970  0.00  0.00    +0.174 C 
BRANCH  49  50
ATOM     50  O   UNL     1       7.478   5.332  21.610  0.00  0.00    -0.387 OA
ATOM     51  H   UNL     1       8.057   4.536  21.607  0.00  0.00    +0.210 HD
ENDBRANCH  49  50
BRANCH  48  52
ATOM     52  O   UNL     1       9.814   6.257  22.954  0.00  0.00    -0.386 OA
ATOM     53  H   UNL     1       9.659   6.121  22.001  0.00  0.00    +0.210 HD
ENDBRANCH  48  52
BRANCH  47  54
ATOM     54  O   UNL     1       9.128   3.457  22.592  0.00  0.00    -0.383 OA
ATOM     55  H   UNL     1       8.675   2.598  22.708  0.00  0.00    +0.210 HD
ENDBRANCH  47  54
ENDBRANCH  42  46
ENDBRANCH   1  42
TORSDOF 17
ENDMDL
MODEL 9
REMARK VINA RESULT:      -6.0      2.317     10.666
REMARK  Name = 
REMARK  19 active torsions:
REMARK  status: ('A' for Active; 'I' for Inactive)
REMARK    1  A    between atoms: C_1  and  C_2
REMARK    2  A    between atoms: C_3  and  O_51
REMARK    3  A    between atoms: C_5  and  O_50
REMARK    4  A    between atoms: C_7  and  O_49
REMARK    5  A    between atoms: C_8  and  O_11
REMARK    6  A    between atoms: O_11  and  C_12
REMARK    7  A    between atoms: C_14  and  O_48
REMARK    8  A    between atoms: C_19  and  C_40
REMARK    9  A    between atoms: C_20  and  O_23
REMARK   10  A    between atoms: O_23  and  C_24
REMARK   11  A    between atoms: C_26  and  O_39
REMARK   12  A    between atoms: C_27  and  O_38
REMARK   13  A    between atoms: C_28  and  O_37
REMARK   14  A    between atoms: C_30  and  C_32
REMARK   15  A    between atoms: C_32  and  O_33
REMARK   16  A    between atoms: O_33  and  C_34
REMARK   17  A    between atoms: C_34  and  C_36
REMARK   18  A    between atoms: C_42  and  O_47
REMARK   19  A    between atoms: C_43  and  O_46
REMARK                            x       y       z     vdW  Elec       q    Type
REMARK                         _______ _______ _______ _____ _____    ______ ____
ROOT
ATOM      1  C   UNL     1       7.200   1.467  22.748  0.00  0.00    +0.131 A 
ATOM      2  C   UNL     1       6.203   1.153  23.677  0.00  0.00    +0.093 A 
ATOM      3  C   UNL     1       6.220  -0.087  24.341  0.00  0.00    +0.147 A 
ATOM      4  O   UNL     1       5.212  -0.350  25.238  0.00  0.00    -0.451 OA
ATOM      5  C   UNL     1       5.246  -1.530  25.992  0.00  0.00    +0.181 A 
ATOM      6  C   UNL     1       6.140  -2.531  25.788  0.00  0.00    +0.214 A 
ATOM      7  C   UNL     1       7.131  -2.333  24.673  0.00  0.00    +0.238 A 
ATOM      8  O   UNL     1       7.837  -3.236  24.244  0.00  0.00    -0.283 OA
ATOM      9  C   UNL     1       7.226  -1.001  24.066  0.00  0.00    +0.109 A 
ATOM     10  C   UNL     1       8.257  -0.658  23.183  0.00  0.00    +0.135 A 
ATOM     11  C   UNL     1       8.239   0.565  22.524  0.00  0.00    +0.092 A 
ENDROOT
BRANCH   5  12
ATOM     12  C   UNL     1       4.163  -1.575  27.033  0.00  0.00    +0.025 A 
ATOM     13  C   UNL     1       4.448  -1.206  28.367  0.00  0.00    +0.015 A 
ATOM     14  C   UNL     1       3.448  -1.201  29.357  0.00  0.00    +0.050 A 
ATOM     15  C   UNL     1       2.157  -1.581  29.016  0.00  0.00    +0.158 A 
ATOM     16  C   UNL     1       1.849  -1.946  27.724  0.00  0.00    +0.159 A 
ATOM     17  C   UNL     1       2.833  -1.925  26.733  0.00  0.00    +0.060 A 
BRANCH  15  18
ATOM     18  O   UNL     1       1.182  -1.582  29.976  0.00  0.00    -0.503 OA
ATOM     19  H   UNL     1       0.678  -0.760  29.813  0.00  0.00    +0.292 HD
ENDBRANCH  15  18
BRANCH  16  20
ATOM     20  O   UNL     1       0.559  -2.315  27.453  0.00  0.00    -0.503 OA
ATOM     21  H   UNL     1       0.047  -2.297  28.280  0.00  0.00    +0.292 HD
ENDBRANCH  16  20
ENDBRANCH   5  12
BRANCH  10  22
ATOM     22  O   UNL     1       9.313  -1.497  22.962  0.00  0.00    -0.506 OA
ATOM     23  H   UNL     1       9.076  -2.181  22.315  0.00  0.00    +0.292 HD
ENDBRANCH  10  22
BRANCH   6  24
ATOM     24  O   UNL     1       6.138  -3.688  26.581  0.00  0.00    -0.453 OA
BRANCH  24  25
ATOM     25  C   UNL     1       6.023  -4.960  25.919  0.00  0.00    +0.340 C 
ATOM     26  O   UNL     1       4.722  -5.168  25.356  0.00  0.00    -0.330 OA
ATOM     27  C   UNL     1       3.671  -5.315  26.316  0.00  0.00    +0.191 C 
ATOM     28  C   UNL     1       3.922  -6.563  27.159  0.00  0.00    +0.178 C 
ATOM     29  C   UNL     1       5.271  -6.420  27.875  0.00  0.00    +0.180 C 
ATOM     30  C   UNL     1       6.392  -6.125  26.873  0.00  0.00    +0.214 C 
BRANCH  28  31
ATOM     31  O   UNL     1       2.868  -6.736  28.107  0.00  0.00    -0.386 OA
ATOM     32  H   UNL     1       2.902  -7.655  28.434  0.00  0.00    +0.210 HD
ENDBRANCH  28  31
BRANCH  29  33
ATOM     33  O   UNL     1       5.516  -7.621  28.624  0.00  0.00    -0.386 OA
ATOM     34  H   UNL     1       5.563  -8.366  27.997  0.00  0.00    +0.210 HD
ENDBRANCH  29  33
BRANCH  30  35
ATOM     35  O   UNL     1       7.631  -5.899  27.554  0.00  0.00    -0.383 OA
ATOM     36  H   UNL     1       8.330  -5.812  26.880  0.00  0.00    +0.210 HD
ENDBRANCH  30  35
BRANCH  27  37
ATOM     37  C   UNL     1       2.328  -5.410  25.576  0.00  0.00    +0.266 C 
BRANCH  37  38
ATOM     38  O   UNL     1       1.879  -6.778  25.476  0.00  0.00    -0.462 OA
BRANCH  38  39
ATOM     39  C   UNL     1       2.192  -7.418  24.320  0.00  0.00    +0.304 C 
ATOM     40  C   UNL     1       1.834  -6.577  23.133  0.00  0.00    +0.136 C 
ATOM     41  O   UNL     1       2.692  -8.533  24.239  0.00  0.00    -0.251 OA
ENDBRANCH  38  39
ENDBRANCH  37  38
ENDBRANCH  27  37
ENDBRANCH  24  25
ENDBRANCH   6  24
BRANCH   1  42
ATOM     42  O   UNL     1       7.302   2.587  21.976  0.00  0.00    -0.461 OA
BRANCH  42  46
ATOM     43  C   UNL     1       5.918   6.632  22.487  0.00  0.00    +0.041 C 
ATOM     44  C   UNL     1       7.366   6.249  22.190  0.00  0.00    +0.150 C 
ATOM     45  O   UNL     1       7.425   4.921  21.648  0.00  0.00    -0.334 OA
ATOM     46  C   UNL     1       7.156   3.874  22.585  0.00  0.00    +0.339 C 
ATOM     47  C   UNL     1       8.201   3.931  23.723  0.00  0.00    +0.214 C 
ATOM     48  C   UNL     1       8.074   5.288  24.427  0.00  0.00    +0.180 C 
ATOM     49  C   UNL     1       8.284   6.429  23.415  0.00  0.00    +0.174 C 
BRANCH  49  50
ATOM     50  O   UNL     1       9.654   6.475  22.992  0.00  0.00    -0.387 OA
ATOM     51  H   UNL     1      10.181   6.770  23.768  0.00  0.00    +0.210 HD
ENDBRANCH  49  50
BRANCH  48  52
ATOM     52  O   UNL     1       8.975   5.379  25.534  0.00  0.00    -0.386 OA
ATOM     53  H   UNL     1       8.593   6.000  26.183  0.00  0.00    +0.210 HD
ENDBRANCH  48  52
BRANCH  47  54
ATOM     54  O   UNL     1       9.530   3.799  23.159  0.00  0.00    -0.383 OA
ATOM     55  H   UNL     1       9.404   3.557  22.220  0.00  0.00    +0.210 HD
ENDBRANCH  47  54
ENDBRANCH  42  46
ENDBRANCH   1  42
TORSDOF 17
ENDMDL
