MODEL 1
REMARK VINA RESULT:      -7.9      0.000      0.000
REMARK  Name = 
REMARK  23 active torsions:
REMARK  status: ('A' for Active; 'I' for Inactive)
REMARK    1  A    between atoms: C_1  and  C_2
REMARK    2  A    between atoms: C_3  and  O_62
REMARK    3  A    between atoms: C_5  and  O_61
REMARK    4  A    between atoms: C_7  and  O_60
REMARK    5  A    between atoms: C_8  and  O_11
REMARK    6  A    between atoms: O_11  and  C_12
REMARK    7  A    between atoms: C_12  and  C_13
REMARK    8  A    between atoms: C_14  and  O_59
REMARK    9  A    between atoms: C_16  and  O_58
REMARK   10  A    between atoms: C_17  and  O_57
REMARK   11  A    between atoms: C_18  and  O_21
REMARK   12  A    between atoms: O_21  and  C_22
REMARK   13  A    between atoms: C_23  and  C_48
REMARK   14  A    between atoms: C_27  and  O_34
REMARK   15  A    between atoms: C_29  and  O_33
REMARK   16  A    between atoms: O_34  and  C_35
REMARK   17  A    between atoms: C_37  and  O_47
REMARK   18  A    between atoms: C_38  and  O_46
REMARK   19  A    between atoms: C_40  and  O_45
REMARK   20  A    between atoms: C_42  and  C_44
REMARK   21  A    between atoms: C_50  and  O_56
REMARK   22  A    between atoms: C_51  and  O_54
REMARK   23  A    between atoms: O_54  and  C_55
REMARK                            x       y       z     vdW  Elec       q    Type
REMARK                         _______ _______ _______ _____ _____    ______ ____
ROOT
ATOM      1  C   UNL     1       8.687  -1.550  25.732  0.00  0.00    +0.214 A 
ATOM      2  C   UNL     1       8.885  -2.744  24.767  0.00  0.00    +0.238 A 
ATOM      3  O   UNL     1       9.872  -2.786  24.050  0.00  0.00    -0.283 OA
ATOM      4  C   UNL     1       7.782  -3.772  24.711  0.00  0.00    +0.109 A 
ATOM      5  C   UNL     1       6.940  -3.854  25.817  0.00  0.00    +0.147 A 
ATOM      6  C   UNL     1       5.897  -4.809  25.914  0.00  0.00    +0.093 A 
ATOM      7  C   UNL     1       5.602  -5.672  24.858  0.00  0.00    +0.131 A 
ATOM      8  C   UNL     1       6.413  -5.578  23.717  0.00  0.00    +0.092 A 
ATOM      9  O   UNL     1       7.068  -2.968  26.861  0.00  0.00    -0.451 OA
ATOM     10  C   UNL     1       7.505  -4.665  23.654  0.00  0.00    +0.135 A 
ATOM     11  C   UNL     1       7.661  -1.738  26.600  0.00  0.00    +0.181 A 
ENDROOT
BRANCH  11  12
ATOM     12  C   UNL     1       6.761  -0.648  27.028  0.00  0.00    +0.025 A 
ATOM     13  C   UNL     1       7.355   0.295  27.875  0.00  0.00    +0.015 A 
ATOM     14  C   UNL     1       6.813   1.567  28.011  0.00  0.00    +0.050 A 
ATOM     15  C   UNL     1       5.626   1.916  27.372  0.00  0.00    +0.161 A 
ATOM     16  C   UNL     1       4.941   0.912  26.680  0.00  0.00    +0.159 A 
ATOM     17  C   UNL     1       5.522  -0.350  26.455  0.00  0.00    +0.060 A 
BRANCH  16  18
ATOM     18  O   UNL     1       3.662   1.085  26.232  0.00  0.00    -0.503 OA
ATOM     19  H   UNL     1       3.684   1.936  25.754  0.00  0.00    +0.292 HD
ENDBRANCH  16  18
BRANCH  15  20
ATOM     20  O   UNL     1       5.321   3.231  27.546  0.00  0.00    -0.491 OA
ATOM     21  C   UNL     1       6.210   4.109  28.209  0.00  0.00    +0.277 C 
ENDBRANCH  15  20
ENDBRANCH  11  12
BRANCH  10  22
ATOM     22  O   UNL     1       8.257  -4.643  22.512  0.00  0.00    -0.506 OA
ATOM     23  H   UNL     1       7.809  -5.134  21.804  0.00  0.00    +0.292 HD
ENDBRANCH  10  22
BRANCH   7  24
ATOM     24  O   UNL     1       4.546  -6.580  24.808  0.00  0.00    -0.461 OA
BRANCH  24  25
ATOM     25  C   UNL     1       3.208  -6.029  24.777  0.00  0.00    +0.339 C 
ATOM     26  O   UNL     1       2.784  -5.629  26.084  0.00  0.00    -0.334 OA
ATOM     27  C   UNL     1       2.561  -6.740  26.965  0.00  0.00    +0.150 C 
ATOM     28  C   UNL     1       2.296  -6.169  28.352  0.00  0.00    +0.041 C 
ATOM     29  C   UNL     1       1.383  -7.605  26.480  0.00  0.00    +0.174 C 
ATOM     30  C   UNL     1       1.638  -8.102  25.047  0.00  0.00    +0.180 C 
ATOM     31  C   UNL     1       2.110  -6.947  24.148  0.00  0.00    +0.214 C 
BRANCH  31  32
ATOM     32  O   UNL     1       2.421  -7.381  22.825  0.00  0.00    -0.383 OA
ATOM     33  H   UNL     1       1.789  -6.961  22.214  0.00  0.00    +0.210 HD
ENDBRANCH  31  32
BRANCH  30  34
ATOM     34  O   UNL     1       2.544  -9.216  25.060  0.00  0.00    -0.386 OA
ATOM     35  H   UNL     1       3.214  -9.096  24.367  0.00  0.00    +0.210 HD
ENDBRANCH  30  34
BRANCH  29  36
ATOM     36  O   UNL     1       1.166  -8.710  27.361  0.00  0.00    -0.387 OA
ATOM     37  H   UNL     1       0.200  -8.843  27.437  0.00  0.00    +0.210 HD
ENDBRANCH  29  36
ENDBRANCH  24  25
ENDBRANCH   7  24
BRANCH   1  38
ATOM     38  O   UNL     1       9.401  -0.377  25.490  0.00  0.00    -0.453 OA
BRANCH  38  41
ATOM     39  C   UNL     1       7.251   0.850  22.721  0.00  0.00    +0.179 C 
ATOM     40  O   UNL     1       7.679   0.270  23.979  0.00  0.00    -0.331 OA
ATOM     41  C   UNL     1       8.903   0.693  24.620  0.00  0.00    +0.340 C 
ATOM     42  C   UNL     1      10.041   1.033  23.612  0.00  0.00    +0.214 C 
ATOM     43  C   UNL     1       9.502   1.902  22.470  0.00  0.00    +0.180 C 
ATOM     44  C   UNL     1       8.417   1.096  21.738  0.00  0.00    +0.177 C 
BRANCH  44  45
ATOM     45  O   UNL     1       8.001   1.758  20.544  0.00  0.00    -0.386 OA
ATOM     46  H   UNL     1       7.360   2.445  20.806  0.00  0.00    +0.210 HD
ENDBRANCH  44  45
BRANCH  43  47
ATOM     47  O   UNL     1      10.565   2.282  21.587  0.00  0.00    -0.386 OA
ATOM     48  H   UNL     1      10.724   3.232  21.738  0.00  0.00    +0.210 HD
ENDBRANCH  43  47
BRANCH  42  49
ATOM     49  O   UNL     1      10.617  -0.145  23.007  0.00  0.00    -0.383 OA
ATOM     50  H   UNL     1      11.524   0.088  22.722  0.00  0.00    +0.210 HD
ENDBRANCH  42  49
BRANCH  39  51
ATOM     51  C   UNL     1       6.275   2.083  22.823  0.00  0.00    +0.197 C 
BRANCH  51  52
ATOM     52  O   UNL     1       6.621   2.888  23.977  0.00  0.00    -0.346 OA
BRANCH  52  56
ATOM     53  C   UNL     1       6.331   6.809  21.936  0.00  0.00    +0.041 C 
ATOM     54  C   UNL     1       7.586   5.974  22.190  0.00  0.00    +0.149 C 
ATOM     55  O   UNL     1       7.235   4.598  22.464  0.00  0.00    -0.343 OA
ATOM     56  C   UNL     1       6.716   4.320  23.770  0.00  0.00    +0.282 C 
ATOM     57  C   UNL     1       7.700   4.863  24.851  0.00  0.00    +0.201 C 
ATOM     58  C   UNL     1       7.922   6.373  24.664  0.00  0.00    +0.179 C 
ATOM     59  C   UNL     1       8.478   6.644  23.260  0.00  0.00    +0.174 C 
BRANCH  59  60
ATOM     60  O   UNL     1       9.832   6.187  23.147  0.00  0.00    -0.387 OA
ATOM     61  H   UNL     1      10.152   6.012  24.062  0.00  0.00    +0.210 HD
ENDBRANCH  59  60
BRANCH  58  62
ATOM     62  O   UNL     1       8.803   6.889  25.671  0.00  0.00    -0.386 OA
ATOM     63  H   UNL     1       9.456   6.202  25.894  0.00  0.00    +0.210 HD
ENDBRANCH  58  62
BRANCH  57  64
ATOM     64  O   UNL     1       8.980   4.192  24.725  0.00  0.00    -0.384 OA
ATOM     65  H   UNL     1       9.332   4.127  25.636  0.00  0.00    +0.210 HD
ENDBRANCH  57  64
ENDBRANCH  52  56
ENDBRANCH  51  52
ENDBRANCH  39  51
ENDBRANCH  38  41
ENDBRANCH   1  38
TORSDOF 20
ENDMDL
MODEL 2
REMARK VINA RESULT:      -7.8      0.845      1.211
REMARK  Name = 
REMARK  23 active torsions:
REMARK  status: ('A' for Active; 'I' for Inactive)
REMARK    1  A    between atoms: C_1  and  C_2
REMARK    2  A    between atoms: C_3  and  O_62
REMARK    3  A    between atoms: C_5  and  O_61
REMARK    4  A    between atoms: C_7  and  O_60
REMARK    5  A    between atoms: C_8  and  O_11
REMARK    6  A    between atoms: O_11  and  C_12
REMARK    7  A    between atoms: C_12  and  C_13
REMARK    8  A    between atoms: C_14  and  O_59
REMARK    9  A    between atoms: C_16  and  O_58
REMARK   10  A    between atoms: C_17  and  O_57
REMARK   11  A    between atoms: C_18  and  O_21
REMARK   12  A    between atoms: O_21  and  C_22
REMARK   13  A    between atoms: C_23  and  C_48
REMARK   14  A    between atoms: C_27  and  O_34
REMARK   15  A    between atoms: C_29  and  O_33
REMARK   16  A    between atoms: O_34  and  C_35
REMARK   17  A    between atoms: C_37  and  O_47
REMARK   18  A    between atoms: C_38  and  O_46
REMARK   19  A    between atoms: C_40  and  O_45
REMARK   20  A    between atoms: C_42  and  C_44
REMARK   21  A    between atoms: C_50  and  O_56
REMARK   22  A    between atoms: C_51  and  O_54
REMARK   23  A    between atoms: O_54  and  C_55
REMARK                            x       y       z     vdW  Elec       q    Type
REMARK                         _______ _______ _______ _____ _____    ______ ____
ROOT
ATOM      1  C   UNL     1       8.825  -1.693  25.600  0.00  0.00    +0.214 A 
ATOM      2  C   UNL     1       8.936  -2.830  24.556  0.00  0.00    +0.238 A 
ATOM      3  O   UNL     1       9.866  -2.837  23.764  0.00  0.00    -0.283 OA
ATOM      4  C   UNL     1       7.821  -3.846  24.526  0.00  0.00    +0.109 A 
ATOM      5  C   UNL     1       7.065  -3.986  25.686  0.00  0.00    +0.147 A 
ATOM      6  C   UNL     1       6.022  -4.939  25.808  0.00  0.00    +0.093 A 
ATOM      7  C   UNL     1       5.638  -5.738  24.730  0.00  0.00    +0.131 A 
ATOM      8  C   UNL     1       6.361  -5.583  23.538  0.00  0.00    +0.092 A 
ATOM      9  O   UNL     1       7.281  -3.163  26.766  0.00  0.00    -0.451 OA
ATOM     10  C   UNL     1       7.455  -4.675  23.444  0.00  0.00    +0.135 A 
ATOM     11  C   UNL     1       7.865  -1.924  26.532  0.00  0.00    +0.181 A 
ENDROOT
BRANCH  11  12
ATOM     12  C   UNL     1       7.013  -0.855  27.088  0.00  0.00    +0.025 A 
ATOM     13  C   UNL     1       5.645  -1.154  27.107  0.00  0.00    +0.015 A 
ATOM     14  C   UNL     1       4.783  -0.479  27.962  0.00  0.00    +0.050 A 
ATOM     15  C   UNL     1       5.237   0.561  28.769  0.00  0.00    +0.161 A 
ATOM     16  C   UNL     1       6.562   0.978  28.607  0.00  0.00    +0.159 A 
ATOM     17  C   UNL     1       7.469   0.247  27.817  0.00  0.00    +0.060 A 
BRANCH  16  18
ATOM     18  O   UNL     1       7.030   2.134  29.164  0.00  0.00    -0.503 OA
ATOM     19  H   UNL     1       6.608   2.845  28.644  0.00  0.00    +0.292 HD
ENDBRANCH  16  18
BRANCH  15  20
ATOM     20  O   UNL     1       4.266   1.018  29.605  0.00  0.00    -0.491 OA
ATOM     21  C   UNL     1       3.101   1.646  29.104  0.00  0.00    +0.277 C 
ENDBRANCH  15  20
ENDBRANCH  11  12
BRANCH  10  22
ATOM     22  O   UNL     1       8.119  -4.592  22.251  0.00  0.00    -0.506 OA
ATOM     23  H   UNL     1       7.596  -5.006  21.545  0.00  0.00    +0.292 HD
ENDBRANCH  10  22
BRANCH   7  24
ATOM     24  O   UNL     1       4.572  -6.634  24.709  0.00  0.00    -0.461 OA
BRANCH  24  25
ATOM     25  C   UNL     1       3.239  -6.068  24.695  0.00  0.00    +0.339 C 
ATOM     26  O   UNL     1       2.855  -5.621  25.998  0.00  0.00    -0.334 OA
ATOM     27  C   UNL     1       2.643  -6.699  26.922  0.00  0.00    +0.150 C 
ATOM     28  C   UNL     1       2.422  -6.079  28.295  0.00  0.00    +0.041 C 
ATOM     29  C   UNL     1       1.443  -7.566  26.497  0.00  0.00    +0.174 C 
ATOM     30  C   UNL     1       1.655  -8.113  25.075  0.00  0.00    +0.180 C 
ATOM     31  C   UNL     1       2.115  -6.994  24.126  0.00  0.00    +0.214 C 
BRANCH  31  32
ATOM     32  O   UNL     1       2.386  -7.476  22.810  0.00  0.00    -0.383 OA
ATOM     33  H   UNL     1       2.304  -6.726  22.193  0.00  0.00    +0.210 HD
ENDBRANCH  31  32
BRANCH  30  34
ATOM     34  O   UNL     1       2.548  -9.236  25.102  0.00  0.00    -0.386 OA
ATOM     35  H   UNL     1       3.116  -9.217  24.314  0.00  0.00    +0.210 HD
ENDBRANCH  30  34
BRANCH  29  36
ATOM     36  O   UNL     1       1.238  -8.639  27.419  0.00  0.00    -0.387 OA
ATOM     37  H   UNL     1       0.419  -8.447  27.918  0.00  0.00    +0.210 HD
ENDBRANCH  29  36
ENDBRANCH  24  25
ENDBRANCH   7  24
BRANCH   1  38
ATOM     38  O   UNL     1       9.531  -0.512  25.372  0.00  0.00    -0.453 OA
BRANCH  38  41
ATOM     39  C   UNL     1       7.291   0.800  22.715  0.00  0.00    +0.179 C 
ATOM     40  O   UNL     1       7.761   0.181  23.940  0.00  0.00    -0.331 OA
ATOM     41  C   UNL     1       9.006   0.584  24.553  0.00  0.00    +0.340 C 
ATOM     42  C   UNL     1      10.110   0.957  23.519  0.00  0.00    +0.214 C 
ATOM     43  C   UNL     1       9.533   1.861  22.422  0.00  0.00    +0.180 C 
ATOM     44  C   UNL     1       8.424   1.078  21.703  0.00  0.00    +0.177 C 
BRANCH  44  45
ATOM     45  O   UNL     1       7.969   1.776  20.545  0.00  0.00    -0.386 OA
ATOM     46  H   UNL     1       8.410   1.371  19.774  0.00  0.00    +0.210 HD
ENDBRANCH  44  45
BRANCH  43  47
ATOM     47  O   UNL     1      10.567   2.268  21.517  0.00  0.00    -0.386 OA
ATOM     48  H   UNL     1      10.653   3.235  21.613  0.00  0.00    +0.210 HD
ENDBRANCH  43  47
BRANCH  42  49
ATOM     49  O   UNL     1      10.664  -0.202  22.858  0.00  0.00    -0.383 OA
ATOM     50  H   UNL     1      10.731   0.011  21.905  0.00  0.00    +0.210 HD
ENDBRANCH  42  49
BRANCH  39  51
ATOM     51  C   UNL     1       6.320   2.029  22.889  0.00  0.00    +0.197 C 
BRANCH  51  52
ATOM     52  O   UNL     1       6.743   2.833  24.017  0.00  0.00    -0.346 OA
BRANCH  52  56
ATOM     53  C   UNL     1       6.352   6.751  21.988  0.00  0.00    +0.041 C 
ATOM     54  C   UNL     1       7.622   5.929  22.205  0.00  0.00    +0.149 C 
ATOM     55  O   UNL     1       7.294   4.550  22.488  0.00  0.00    -0.343 OA
ATOM     56  C   UNL     1       6.817   4.266  23.808  0.00  0.00    +0.282 C 
ATOM     57  C   UNL     1       7.826   4.819  24.861  0.00  0.00    +0.201 C 
ATOM     58  C   UNL     1       8.026   6.331  24.667  0.00  0.00    +0.179 C 
ATOM     59  C   UNL     1       8.538   6.608  23.248  0.00  0.00    +0.174 C 
BRANCH  59  60
ATOM     60  O   UNL     1       9.894   6.165  23.096  0.00  0.00    -0.387 OA
ATOM     61  H   UNL     1       9.868   5.348  22.548  0.00  0.00    +0.210 HD
ENDBRANCH  59  60
BRANCH  58  62
ATOM     62  O   UNL     1       8.931   6.857  25.649  0.00  0.00    -0.386 OA
ATOM     63  H   UNL     1       9.833   6.569  25.424  0.00  0.00    +0.210 HD
ENDBRANCH  58  62
BRANCH  57  64
ATOM     64  O   UNL     1       9.109   4.162  24.697  0.00  0.00    -0.384 OA
ATOM     65  H   UNL     1       8.907   3.292  24.296  0.00  0.00    +0.210 HD
ENDBRANCH  57  64
ENDBRANCH  52  56
ENDBRANCH  51  52
ENDBRANCH  39  51
ENDBRANCH  38  41
ENDBRANCH   1  38
TORSDOF 20
ENDMDL
MODEL 3
REMARK VINA RESULT:      -7.5      1.573      2.519
REMARK  Name = 
REMARK  23 active torsions:
REMARK  status: ('A' for Active; 'I' for Inactive)
REMARK    1  A    between atoms: C_1  and  C_2
REMARK    2  A    between atoms: C_3  and  O_62
REMARK    3  A    between atoms: C_5  and  O_61
REMARK    4  A    between atoms: C_7  and  O_60
REMARK    5  A    between atoms: C_8  and  O_11
REMARK    6  A    between atoms: O_11  and  C_12
REMARK    7  A    between atoms: C_12  and  C_13
REMARK    8  A    between atoms: C_14  and  O_59
REMARK    9  A    between atoms: C_16  and  O_58
REMARK   10  A    between atoms: C_17  and  O_57
REMARK   11  A    between atoms: C_18  and  O_21
REMARK   12  A    between atoms: O_21  and  C_22
REMARK   13  A    between atoms: C_23  and  C_48
REMARK   14  A    between atoms: C_27  and  O_34
REMARK   15  A    between atoms: C_29  and  O_33
REMARK   16  A    between atoms: O_34  and  C_35
REMARK   17  A    between atoms: C_37  and  O_47
REMARK   18  A    between atoms: C_38  and  O_46
REMARK   19  A    between atoms: C_40  and  O_45
REMARK   20  A    between atoms: C_42  and  C_44
REMARK   21  A    between atoms: C_50  and  O_56
REMARK   22  A    between atoms: C_51  and  O_54
REMARK   23  A    between atoms: O_54  and  C_55
REMARK                            x       y       z     vdW  Elec       q    Type
REMARK                         _______ _______ _______ _____ _____    ______ ____
ROOT
ATOM      1  C   UNL     1       7.926  -3.227  23.541  0.00  0.00    +0.214 A 
ATOM      2  C   UNL     1       7.273  -4.454  22.861  0.00  0.00    +0.238 A 
ATOM      3  O   UNL     1       7.514  -4.699  21.690  0.00  0.00    -0.283 OA
ATOM      4  C   UNL     1       6.293  -5.254  23.684  0.00  0.00    +0.109 A 
ATOM      5  C   UNL     1       6.401  -5.152  25.068  0.00  0.00    +0.147 A 
ATOM      6  C   UNL     1       5.576  -5.888  25.956  0.00  0.00    +0.093 A 
ATOM      7  C   UNL     1       4.544  -6.699  25.483  0.00  0.00    +0.131 A 
ATOM      8  C   UNL     1       4.390  -6.784  24.091  0.00  0.00    +0.092 A 
ATOM      9  O   UNL     1       7.306  -4.287  25.637  0.00  0.00    -0.451 OA
ATOM     10  C   UNL     1       5.269  -6.097  23.204  0.00  0.00    +0.135 A 
ATOM     11  C   UNL     1       7.727  -3.198  24.883  0.00  0.00    +0.181 A 
ENDROOT
BRANCH  11  12
ATOM     12  C   UNL     1       7.493  -1.948  25.634  0.00  0.00    +0.025 A 
ATOM     13  C   UNL     1       6.178  -1.473  25.573  0.00  0.00    +0.015 A 
ATOM     14  C   UNL     1       5.695  -0.595  26.536  0.00  0.00    +0.050 A 
ATOM     15  C   UNL     1       6.523  -0.105  27.543  0.00  0.00    +0.161 A 
ATOM     16  C   UNL     1       7.880  -0.436  27.486  0.00  0.00    +0.159 A 
ATOM     17  C   UNL     1       8.363  -1.396  26.576  0.00  0.00    +0.060 A 
BRANCH  16  18
ATOM     18  O   UNL     1       8.810   0.183  28.272  0.00  0.00    -0.503 OA
ATOM     19  H   UNL     1       9.039  -0.481  28.951  0.00  0.00    +0.292 HD
ENDBRANCH  16  18
BRANCH  15  20
ATOM     20  O   UNL     1       5.839   0.653  28.442  0.00  0.00    -0.491 OA
ATOM     21  C   UNL     1       5.660   2.043  28.244  0.00  0.00    +0.277 C 
ENDBRANCH  15  20
ENDBRANCH  11  12
BRANCH  10  22
ATOM     22  O   UNL     1       5.063  -6.242  21.859  0.00  0.00    -0.506 OA
ATOM     23  H   UNL     1       5.567  -5.572  21.367  0.00  0.00    +0.292 HD
ENDBRANCH  10  22
BRANCH   7  24
ATOM     24  O   UNL     1       3.617  -7.389  26.262  0.00  0.00    -0.461 OA
BRANCH  24  25
ATOM     25  C   UNL     1       2.250  -6.914  26.231  0.00  0.00    +0.339 C 
ATOM     26  O   UNL     1       2.169  -5.549  26.653  0.00  0.00    -0.334 OA
ATOM     27  C   UNL     1       2.446  -5.376  28.051  0.00  0.00    +0.150 C 
ATOM     28  C   UNL     1       2.504  -3.878  28.316  0.00  0.00    +0.041 C 
ATOM     29  C   UNL     1       1.374  -6.060  28.918  0.00  0.00    +0.174 C 
ATOM     30  C   UNL     1       1.279  -7.555  28.572  0.00  0.00    +0.180 C 
ATOM     31  C   UNL     1       1.219  -7.758  27.049  0.00  0.00    +0.214 C 
BRANCH  31  32
ATOM     32  O   UNL     1       1.197  -9.138  26.686  0.00  0.00    -0.383 OA
ATOM     33  H   UNL     1       0.354  -9.517  26.995  0.00  0.00    +0.210 HD
ENDBRANCH  31  32
BRANCH  30  34
ATOM     34  O   UNL     1       2.349  -8.280  29.198  0.00  0.00    -0.386 OA
ATOM     35  H   UNL     1       2.411  -9.167  28.808  0.00  0.00    +0.210 HD
ENDBRANCH  30  34
BRANCH  29  36
ATOM     36  O   UNL     1       1.657  -5.885  30.309  0.00  0.00    -0.387 OA
ATOM     37  H   UNL     1       0.862  -5.497  30.725  0.00  0.00    +0.210 HD
ENDBRANCH  29  36
ENDBRANCH  24  25
ENDBRANCH   7  24
BRANCH   1  38
ATOM     38  O   UNL     1       8.441  -2.216  22.729  0.00  0.00    -0.453 OA
BRANCH  38  41
ATOM     39  C   UNL     1       6.817   1.120  22.560  0.00  0.00    +0.179 C 
ATOM     40  O   UNL     1       7.046  -0.289  22.813  0.00  0.00    -0.331 OA
ATOM     41  C   UNL     1       8.372  -0.796  23.085  0.00  0.00    +0.340 C 
ATOM     42  C   UNL     1       9.488  -0.065  22.280  0.00  0.00    +0.214 C 
ATOM     43  C   UNL     1       9.282   1.454  22.338  0.00  0.00    +0.180 C 
ATOM     44  C   UNL     1       7.922   1.769  21.697  0.00  0.00    +0.177 C 
BRANCH  44  45
ATOM     45  O   UNL     1       7.741   3.175  21.537  0.00  0.00    -0.386 OA
ATOM     46  H   UNL     1       8.473   3.497  20.978  0.00  0.00    +0.210 HD
ENDBRANCH  44  45
BRANCH  43  47
ATOM     47  O   UNL     1      10.353   2.128  21.666  0.00  0.00    -0.386 OA
ATOM     48  H   UNL     1      11.118   2.103  22.271  0.00  0.00    +0.210 HD
ENDBRANCH  43  47
BRANCH  42  49
ATOM     49  O   UNL     1       9.496  -0.433  20.883  0.00  0.00    -0.383 OA
ATOM     50  H   UNL     1       8.848  -1.157  20.770  0.00  0.00    +0.210 HD
ENDBRANCH  42  49
BRANCH  39  51
ATOM     51  C   UNL     1       6.436   1.996  23.814  0.00  0.00    +0.197 C 
BRANCH  51  52
ATOM     52  O   UNL     1       7.635   2.554  24.404  0.00  0.00    -0.346 OA
BRANCH  52  56
ATOM     53  C   UNL     1       5.834   6.417  25.616  0.00  0.00    +0.041 C 
ATOM     54  C   UNL     1       6.607   6.102  24.335  0.00  0.00    +0.149 C 
ATOM     55  O   UNL     1       6.639   4.676  24.096  0.00  0.00    -0.343 OA
ATOM     56  C   UNL     1       7.548   3.915  24.899  0.00  0.00    +0.282 C 
ATOM     57  C   UNL     1       8.979   4.523  24.790  0.00  0.00    +0.201 C 
ATOM     58  C   UNL     1       8.970   5.997  25.226  0.00  0.00    +0.179 C 
ATOM     59  C   UNL     1       7.991   6.790  24.351  0.00  0.00    +0.174 C 
BRANCH  59  60
ATOM     60  O   UNL     1       8.498   6.938  23.018  0.00  0.00    -0.387 OA
ATOM     61  H   UNL     1       9.363   6.469  22.988  0.00  0.00    +0.210 HD
ENDBRANCH  59  60
BRANCH  58  62
ATOM     62  O   UNL     1      10.288   6.559  25.158  0.00  0.00    -0.386 OA
ATOM     63  H   UNL     1      10.489   6.765  24.227  0.00  0.00    +0.210 HD
ENDBRANCH  58  62
BRANCH  57  64
ATOM     64  O   UNL     1       9.432   4.455  23.413  0.00  0.00    -0.384 OA
ATOM     65  H   UNL     1      10.062   5.197  23.308  0.00  0.00    +0.210 HD
ENDBRANCH  57  64
ENDBRANCH  52  56
ENDBRANCH  51  52
ENDBRANCH  39  51
ENDBRANCH  38  41
ENDBRANCH   1  38
TORSDOF 20
ENDMDL
MODEL 4
REMARK VINA RESULT:      -7.3      1.218      1.992
REMARK  Name = 
REMARK  23 active torsions:
REMARK  status: ('A' for Active; 'I' for Inactive)
REMARK    1  A    between atoms: C_1  and  C_2
REMARK    2  A    between atoms: C_3  and  O_62
REMARK    3  A    between atoms: C_5  and  O_61
REMARK    4  A    between atoms: C_7  and  O_60
REMARK    5  A    between atoms: C_8  and  O_11
REMARK    6  A    between atoms: O_11  and  C_12
REMARK    7  A    between atoms: C_12  and  C_13
REMARK    8  A    between atoms: C_14  and  O_59
REMARK    9  A    between atoms: C_16  and  O_58
REMARK   10  A    between atoms: C_17  and  O_57
REMARK   11  A    between atoms: C_18  and  O_21
REMARK   12  A    between atoms: O_21  and  C_22
REMARK   13  A    between atoms: C_23  and  C_48
REMARK   14  A    between atoms: C_27  and  O_34
REMARK   15  A    between atoms: C_29  and  O_33
REMARK   16  A    between atoms: O_34  and  C_35
REMARK   17  A    between atoms: C_37  and  O_47
REMARK   18  A    between atoms: C_38  and  O_46
REMARK   19  A    between atoms: C_40  and  O_45
REMARK   20  A    between atoms: C_42  and  C_44
REMARK   21  A    between atoms: C_50  and  O_56
REMARK   22  A    between atoms: C_51  and  O_54
REMARK   23  A    between atoms: O_54  and  C_55
REMARK                            x       y       z     vdW  Elec       q    Type
REMARK                         _______ _______ _______ _____ _____    ______ ____
ROOT
ATOM      1  C   UNL     1       8.657  -1.387  25.882  0.00  0.00    +0.214 A 
ATOM      2  C   UNL     1       8.915  -2.639  25.009  0.00  0.00    +0.238 A 
ATOM      3  O   UNL     1       9.917  -2.697  24.314  0.00  0.00    -0.283 OA
ATOM      4  C   UNL     1       7.850  -3.707  25.009  0.00  0.00    +0.109 A 
ATOM      5  C   UNL     1       6.990  -3.740  26.103  0.00  0.00    +0.147 A 
ATOM      6  C   UNL     1       5.979  -4.722  26.252  0.00  0.00    +0.093 A 
ATOM      7  C   UNL     1       5.735  -5.669  25.256  0.00  0.00    +0.131 A 
ATOM      8  C   UNL     1       6.564  -5.629  24.125  0.00  0.00    +0.092 A 
ATOM      9  O   UNL     1       7.067  -2.777  27.082  0.00  0.00    -0.451 OA
ATOM     10  C   UNL     1       7.624  -4.683  24.015  0.00  0.00    +0.135 A 
ATOM     11  C   UNL     1       7.621  -1.549  26.743  0.00  0.00    +0.181 A 
ENDROOT
BRANCH  11  12
ATOM     12  C   UNL     1       6.676  -0.464  27.075  0.00  0.00    +0.025 A 
ATOM     13  C   UNL     1       7.049   0.313  28.178  0.00  0.00    +0.015 A 
ATOM     14  C   UNL     1       6.533   1.591  28.354  0.00  0.00    +0.050 A 
ATOM     15  C   UNL     1       5.575   2.106  27.483  0.00  0.00    +0.161 A 
ATOM     16  C   UNL     1       5.070   1.255  26.496  0.00  0.00    +0.159 A 
ATOM     17  C   UNL     1       5.649  -0.004  26.247  0.00  0.00    +0.060 A 
BRANCH  16  18
ATOM     18  O   UNL     1       3.967   1.577  25.757  0.00  0.00    -0.503 OA
ATOM     19  H   UNL     1       3.280   1.782  26.420  0.00  0.00    +0.292 HD
ENDBRANCH  16  18
BRANCH  15  20
ATOM     20  O   UNL     1       5.278   3.405  27.763  0.00  0.00    -0.491 OA
ATOM     21  C   UNL     1       5.212   3.871  29.097  0.00  0.00    +0.277 C 
ENDBRANCH  15  20
ENDBRANCH  11  12
BRANCH  10  22
ATOM     22  O   UNL     1       8.398  -4.716  22.887  0.00  0.00    -0.506 OA
ATOM     23  H   UNL     1       8.337  -3.871  22.413  0.00  0.00    +0.292 HD
ENDBRANCH  10  22
BRANCH   7  24
ATOM     24  O   UNL     1       4.712  -6.616  25.254  0.00  0.00    -0.461 OA
BRANCH  24  25
ATOM     25  C   UNL     1       3.368  -6.130  25.488  0.00  0.00    +0.339 C 
ATOM     26  O   UNL     1       2.493  -7.197  25.866  0.00  0.00    -0.334 OA
ATOM     27  C   UNL     1       2.229  -8.113  24.792  0.00  0.00    +0.150 C 
ATOM     28  C   UNL     1       1.445  -9.279  25.378  0.00  0.00    +0.041 C 
ATOM     29  C   UNL     1       1.450  -7.426  23.656  0.00  0.00    +0.174 C 
ATOM     30  C   UNL     1       2.226  -6.203  23.138  0.00  0.00    +0.180 C 
ATOM     31  C   UNL     1       2.718  -5.337  24.309  0.00  0.00    +0.214 C 
BRANCH  31  32
ATOM     32  O   UNL     1       3.500  -4.226  23.871  0.00  0.00    -0.383 OA
ATOM     33  H   UNL     1       4.116  -4.543  23.186  0.00  0.00    +0.210 HD
ENDBRANCH  31  32
BRANCH  30  34
ATOM     34  O   UNL     1       3.282  -6.620  22.258  0.00  0.00    -0.386 OA
ATOM     35  H   UNL     1       3.439  -5.930  21.592  0.00  0.00    +0.210 HD
ENDBRANCH  30  34
BRANCH  29  36
ATOM     36  O   UNL     1       1.192  -8.342  22.589  0.00  0.00    -0.387 OA
ATOM     37  H   UNL     1       0.416  -8.881  22.843  0.00  0.00    +0.210 HD
ENDBRANCH  29  36
ENDBRANCH  24  25
ENDBRANCH   7  24
BRANCH   1  38
ATOM     38  O   UNL     1       9.334  -0.209  25.567  0.00  0.00    -0.453 OA
BRANCH  38  41
ATOM     39  C   UNL     1       7.380   0.653  22.528  0.00  0.00    +0.179 C 
ATOM     40  O   UNL     1       7.727   0.187  23.857  0.00  0.00    -0.331 OA
ATOM     41  C   UNL     1       8.835   0.759  24.586  0.00  0.00    +0.340 C 
ATOM     42  C   UNL     1      10.036   1.150  23.674  0.00  0.00    +0.214 C 
ATOM     43  C   UNL     1       9.542   1.899  22.430  0.00  0.00    +0.180 C 
ATOM     44  C   UNL     1       8.614   0.955  21.650  0.00  0.00    +0.177 C 
BRANCH  44  45
ATOM     45  O   UNL     1       8.266   1.506  20.381  0.00  0.00    -0.386 OA
ATOM     46  H   UNL     1       7.294   1.591  20.362  0.00  0.00    +0.210 HD
ENDBRANCH  44  45
BRANCH  43  47
ATOM     47  O   UNL     1      10.652   2.330  21.633  0.00  0.00    -0.386 OA
ATOM     48  H   UNL     1      10.437   2.098  20.710  0.00  0.00    +0.210 HD
ENDBRANCH  43  47
BRANCH  42  49
ATOM     49  O   UNL     1      10.774   0.001  23.205  0.00  0.00    -0.383 OA
ATOM     50  H   UNL     1      11.716   0.262  23.151  0.00  0.00    +0.210 HD
ENDBRANCH  42  49
BRANCH  39  51
ATOM     51  C   UNL     1       6.292   1.791  22.455  0.00  0.00    +0.197 C 
BRANCH  51  52
ATOM     52  O   UNL     1       6.235   2.497  23.718  0.00  0.00    -0.346 OA
BRANCH  52  56
ATOM     53  C   UNL     1       8.427   5.905  25.509  0.00  0.00    +0.041 C 
ATOM     54  C   UNL     1       6.982   5.876  25.010  0.00  0.00    +0.149 C 
ATOM     55  O   UNL     1       6.502   4.515  24.920  0.00  0.00    -0.343 OA
ATOM     56  C   UNL     1       6.963   3.748  23.802  0.00  0.00    +0.282 C 
ATOM     57  C   UNL     1       6.673   4.523  22.480  0.00  0.00    +0.201 C 
ATOM     58  C   UNL     1       7.349   5.903  22.509  0.00  0.00    +0.179 C 
ATOM     59  C   UNL     1       6.838   6.704  23.713  0.00  0.00    +0.174 C 
BRANCH  59  60
ATOM     60  O   UNL     1       5.475   7.108  23.520  0.00  0.00    -0.387 OA
ATOM     61  H   UNL     1       4.961   6.293  23.318  0.00  0.00    +0.210 HD
ENDBRANCH  59  60
BRANCH  58  62
ATOM     62  O   UNL     1       7.114   6.614  21.285  0.00  0.00    -0.386 OA
ATOM     63  H   UNL     1       6.425   6.143  20.782  0.00  0.00    +0.210 HD
ENDBRANCH  58  62
BRANCH  57  64
ATOM     64  O   UNL     1       5.243   4.714  22.332  0.00  0.00    -0.384 OA
ATOM     65  H   UNL     1       5.123   5.673  22.173  0.00  0.00    +0.210 HD
ENDBRANCH  57  64
ENDBRANCH  52  56
ENDBRANCH  51  52
ENDBRANCH  39  51
ENDBRANCH  38  41
ENDBRANCH   1  38
TORSDOF 20
ENDMDL
MODEL 5
REMARK VINA RESULT:      -7.1      1.870      2.922
REMARK  Name = 
REMARK  23 active torsions:
REMARK  status: ('A' for Active; 'I' for Inactive)
REMARK    1  A    between atoms: C_1  and  C_2
REMARK    2  A    between atoms: C_3  and  O_62
REMARK    3  A    between atoms: C_5  and  O_61
REMARK    4  A    between atoms: C_7  and  O_60
REMARK    5  A    between atoms: C_8  and  O_11
REMARK    6  A    between atoms: O_11  and  C_12
REMARK    7  A    between atoms: C_12  and  C_13
REMARK    8  A    between atoms: C_14  and  O_59
REMARK    9  A    between atoms: C_16  and  O_58
REMARK   10  A    between atoms: C_17  and  O_57
REMARK   11  A    between atoms: C_18  and  O_21
REMARK   12  A    between atoms: O_21  and  C_22
REMARK   13  A    between atoms: C_23  and  C_48
REMARK   14  A    between atoms: C_27  and  O_34
REMARK   15  A    between atoms: C_29  and  O_33
REMARK   16  A    between atoms: O_34  and  C_35
REMARK   17  A    between atoms: C_37  and  O_47
REMARK   18  A    between atoms: C_38  and  O_46
REMARK   19  A    between atoms: C_40  and  O_45
REMARK   20  A    between atoms: C_42  and  C_44
REMARK   21  A    between atoms: C_50  and  O_56
REMARK   22  A    between atoms: C_51  and  O_54
REMARK   23  A    between atoms: O_54  and  C_55
REMARK                            x       y       z     vdW  Elec       q    Type
REMARK                         _______ _______ _______ _____ _____    ______ ____
ROOT
ATOM      1  C   UNL     1       7.271  -2.314  23.743  0.00  0.00    +0.214 A 
ATOM      2  C   UNL     1       6.957  -3.561  22.881  0.00  0.00    +0.238 A 
ATOM      3  O   UNL     1       7.370  -3.624  21.734  0.00  0.00    -0.283 OA
ATOM      4  C   UNL     1       6.073  -4.617  23.498  0.00  0.00    +0.109 A 
ATOM      5  C   UNL     1       6.006  -4.649  24.887  0.00  0.00    +0.147 A 
ATOM      6  C   UNL     1       5.253  -5.622  25.594  0.00  0.00    +0.093 A 
ATOM      7  C   UNL     1       4.463  -6.556  24.923  0.00  0.00    +0.131 A 
ATOM      8  C   UNL     1       4.483  -6.514  23.520  0.00  0.00    +0.092 A 
ATOM      9  O   UNL     1       6.650  -3.697  25.642  0.00  0.00    -0.451 OA
ATOM     10  C   UNL     1       5.298  -5.580  22.817  0.00  0.00    +0.135 A 
ATOM     11  C   UNL     1       6.924  -2.472  25.046  0.00  0.00    +0.181 A 
ENDROOT
BRANCH  11  12
ATOM     12  C   UNL     1       6.363  -1.379  25.865  0.00  0.00    +0.025 A 
ATOM     13  C   UNL     1       7.175  -0.980  26.933  0.00  0.00    +0.015 A 
ATOM     14  C   UNL     1       7.017   0.273  27.514  0.00  0.00    +0.050 A 
ATOM     15  C   UNL     1       6.003   1.134  27.103  0.00  0.00    +0.161 A 
ATOM     16  C   UNL     1       5.082   0.653  26.168  0.00  0.00    +0.159 A 
ATOM     17  C   UNL     1       5.282  -0.571  25.504  0.00  0.00    +0.060 A 
BRANCH  16  18
ATOM     18  O   UNL     1       3.922   1.319  25.886  0.00  0.00    -0.503 OA
ATOM     19  H   UNL     1       3.552   0.849  25.115  0.00  0.00    +0.292 HD
ENDBRANCH  16  18
BRANCH  15  20
ATOM     20  O   UNL     1       6.084   2.346  27.718  0.00  0.00    -0.491 OA
ATOM     21  C   UNL     1       6.796   2.508  28.930  0.00  0.00    +0.277 C 
ENDBRANCH  15  20
ENDBRANCH  11  12
BRANCH  10  22
ATOM     22  O   UNL     1       5.275  -5.612  21.449  0.00  0.00    -0.506 OA
ATOM     23  H   UNL     1       5.021  -6.496  21.138  0.00  0.00    +0.292 HD
ENDBRANCH  10  22
BRANCH   7  24
ATOM     24  O   UNL     1       3.614  -7.490  25.513  0.00  0.00    -0.461 OA
BRANCH  24  25
ATOM     25  C   UNL     1       2.191  -7.282  25.345  0.00  0.00    +0.339 C 
ATOM     26  O   UNL     1       1.547  -7.076  26.606  0.00  0.00    -0.334 OA
ATOM     27  C   UNL     1       1.518  -8.259  27.420  0.00  0.00    +0.150 C 
ATOM     28  C   UNL     1       0.977  -7.852  28.784  0.00  0.00    +0.041 C 
ATOM     29  C   UNL     1       0.651  -9.355  26.775  0.00  0.00    +0.174 C 
ATOM     30  C   UNL     1       1.169  -9.688  25.366  0.00  0.00    +0.180 C 
ATOM     31  C   UNL     1       1.429  -8.402  24.565  0.00  0.00    +0.214 C 
BRANCH  31  32
ATOM     32  O   UNL     1       1.974  -8.668  23.273  0.00  0.00    -0.383 OA
ATOM     33  H   UNL     1       2.523  -9.471  23.337  0.00  0.00    +0.210 HD
ENDBRANCH  31  32
BRANCH  30  34
ATOM     34  O   UNL     1       2.318 -10.546  25.448  0.00  0.00    -0.386 OA
ATOM     35  H   UNL     1       2.100 -11.329  25.980  0.00  0.00    +0.210 HD
ENDBRANCH  30  34
BRANCH  29  36
ATOM     36  O   UNL     1       0.627 -10.530  27.590  0.00  0.00    -0.387 OA
ATOM     37  H   UNL     1       0.053 -10.344  28.359  0.00  0.00    +0.210 HD
ENDBRANCH  29  36
ENDBRANCH  24  25
ENDBRANCH   7  24
BRANCH   1  38
ATOM     38  O   UNL     1       7.659  -1.142  23.095  0.00  0.00    -0.453 OA
BRANCH  38  41
ATOM     39  C   UNL     1       8.803   2.391  23.198  0.00  0.00    +0.179 C 
ATOM     40  O   UNL     1       7.963   1.219  23.046  0.00  0.00    -0.331 OA
ATOM     41  C   UNL     1       8.212   0.015  23.807  0.00  0.00    +0.340 C 
ATOM     42  C   UNL     1       9.727  -0.266  24.036  0.00  0.00    +0.214 C 
ATOM     43  C   UNL     1      10.448   1.013  24.477  0.00  0.00    +0.180 C 
ATOM     44  C   UNL     1      10.302   2.047  23.350  0.00  0.00    +0.177 C 
BRANCH  44  45
ATOM     45  O   UNL     1      11.108   3.198  23.598  0.00  0.00    -0.386 OA
ATOM     46  H   UNL     1      10.513   3.971  23.598  0.00  0.00    +0.210 HD
ENDBRANCH  44  45
BRANCH  43  47
ATOM     47  O   UNL     1      11.824   0.736  24.766  0.00  0.00    -0.386 OA
ATOM     48  H   UNL     1      11.879   0.581  25.728  0.00  0.00    +0.210 HD
ENDBRANCH  43  47
BRANCH  42  49
ATOM     49  O   UNL     1      10.392  -0.732  22.842  0.00  0.00    -0.383 OA
ATOM     50  H   UNL     1      11.334  -0.478  22.916  0.00  0.00    +0.210 HD
ENDBRANCH  42  49
BRANCH  39  51
ATOM     51  C   UNL     1       8.318   3.460  24.250  0.00  0.00    +0.197 C 
BRANCH  51  52
ATOM     52  O   UNL     1       6.989   3.122  24.715  0.00  0.00    -0.346 OA
BRANCH  52  56
ATOM     53  C   UNL     1       3.860   6.238  25.066  0.00  0.00    +0.041 C 
ATOM     54  C   UNL     1       3.672   4.722  25.008  0.00  0.00    +0.149 C 
ATOM     55  O   UNL     1       4.905   4.043  25.343  0.00  0.00    -0.343 OA
ATOM     56  C   UNL     1       5.914   4.014  24.328  0.00  0.00    +0.282 C 
ATOM     57  C   UNL     1       5.312   3.443  23.007  0.00  0.00    +0.201 C 
ATOM     58  C   UNL     1       4.110   4.288  22.556  0.00  0.00    +0.179 C 
ATOM     59  C   UNL     1       3.044   4.303  23.660  0.00  0.00    +0.174 C 
BRANCH  59  60
ATOM     60  O   UNL     1       2.408   3.023  23.774  0.00  0.00    -0.387 OA
ATOM     61  H   UNL     1       1.789   2.942  23.013  0.00  0.00    +0.210 HD
ENDBRANCH  59  60
BRANCH  58  62
ATOM     62  O   UNL     1       3.566   3.789  21.326  0.00  0.00    -0.386 OA
ATOM     63  H   UNL     1       4.206   3.168  20.935  0.00  0.00    +0.210 HD
ENDBRANCH  58  62
BRANCH  57  64
ATOM     64  O   UNL     1       4.859   2.082  23.228  0.00  0.00    -0.384 OA
ATOM     65  H   UNL     1       5.595   1.634  23.693  0.00  0.00    +0.210 HD
ENDBRANCH  57  64
ENDBRANCH  52  56
ENDBRANCH  51  52
ENDBRANCH  39  51
ENDBRANCH  38  41
ENDBRANCH   1  38
TORSDOF 20
ENDMDL
MODEL 6
REMARK VINA RESULT:      -7.0      1.923      3.241
REMARK  Name = 
REMARK  23 active torsions:
REMARK  status: ('A' for Active; 'I' for Inactive)
REMARK    1  A    between atoms: C_1  and  C_2
REMARK    2  A    between atoms: C_3  and  O_62
REMARK    3  A    between atoms: C_5  and  O_61
REMARK    4  A    between atoms: C_7  and  O_60
REMARK    5  A    between atoms: C_8  and  O_11
REMARK    6  A    between atoms: O_11  and  C_12
REMARK    7  A    between atoms: C_12  and  C_13
REMARK    8  A    between atoms: C_14  and  O_59
REMARK    9  A    between atoms: C_16  and  O_58
REMARK   10  A    between atoms: C_17  and  O_57
REMARK   11  A    between atoms: C_18  and  O_21
REMARK   12  A    between atoms: O_21  and  C_22
REMARK   13  A    between atoms: C_23  and  C_48
REMARK   14  A    between atoms: C_27  and  O_34
REMARK   15  A    between atoms: C_29  and  O_33
REMARK   16  A    between atoms: O_34  and  C_35
REMARK   17  A    between atoms: C_37  and  O_47
REMARK   18  A    between atoms: C_38  and  O_46
REMARK   19  A    between atoms: C_40  and  O_45
REMARK   20  A    between atoms: C_42  and  C_44
REMARK   21  A    between atoms: C_50  and  O_56
REMARK   22  A    between atoms: C_51  and  O_54
REMARK   23  A    between atoms: O_54  and  C_55
REMARK                            x       y       z     vdW  Elec       q    Type
REMARK                         _______ _______ _______ _____ _____    ______ ____
ROOT
ATOM      1  C   UNL     1       7.596  -2.934  23.636  0.00  0.00    +0.214 A 
ATOM      2  C   UNL     1       7.113  -4.261  23.002  0.00  0.00    +0.238 A 
ATOM      3  O   UNL     1       7.446  -4.545  21.862  0.00  0.00    -0.283 OA
ATOM      4  C   UNL     1       6.174  -5.111  23.821  0.00  0.00    +0.109 A 
ATOM      5  C   UNL     1       6.190  -4.919  25.199  0.00  0.00    +0.147 A 
ATOM      6  C   UNL     1       5.394  -5.686  26.088  0.00  0.00    +0.093 A 
ATOM      7  C   UNL     1       4.479  -6.627  25.614  0.00  0.00    +0.131 A 
ATOM      8  C   UNL     1       4.417  -6.807  24.224  0.00  0.00    +0.092 A 
ATOM      9  O   UNL     1       6.967  -3.931  25.760  0.00  0.00    -0.451 OA
ATOM     10  C   UNL     1       5.271  -6.084  23.342  0.00  0.00    +0.135 A 
ATOM     11  C   UNL     1       7.317  -2.850  24.961  0.00  0.00    +0.181 A 
ENDROOT
BRANCH  11  12
ATOM     12  C   UNL     1       6.914  -1.590  25.618  0.00  0.00    +0.025 A 
ATOM     13  C   UNL     1       5.577  -1.230  25.409  0.00  0.00    +0.015 A 
ATOM     14  C   UNL     1       4.935  -0.352  26.274  0.00  0.00    +0.050 A 
ATOM     15  C   UNL     1       5.620   0.251  27.326  0.00  0.00    +0.161 A 
ATOM     16  C   UNL     1       6.998   0.032  27.415  0.00  0.00    +0.159 A 
ATOM     17  C   UNL     1       7.642  -0.925  26.607  0.00  0.00    +0.060 A 
BRANCH  16  18
ATOM     18  O   UNL     1       7.795   0.763  28.250  0.00  0.00    -0.503 OA
ATOM     19  H   UNL     1       8.695   0.416  28.095  0.00  0.00    +0.292 HD
ENDBRANCH  16  18
BRANCH  15  20
ATOM     20  O   UNL     1       4.793   0.990  28.115  0.00  0.00    -0.491 OA
ATOM     21  C   UNL     1       4.503   0.597  29.443  0.00  0.00    +0.277 C 
ENDBRANCH  15  20
ENDBRANCH  11  12
BRANCH  10  22
ATOM     22  O   UNL     1       5.160  -6.326  22.000  0.00  0.00    -0.506 OA
ATOM     23  H   UNL     1       5.917  -6.849  21.689  0.00  0.00    +0.292 HD
ENDBRANCH  10  22
BRANCH   7  24
ATOM     24  O   UNL     1       3.585  -7.365  26.386  0.00  0.00    -0.461 OA
BRANCH  24  25
ATOM     25  C   UNL     1       2.187  -6.994  26.305  0.00  0.00    +0.339 C 
ATOM     26  O   UNL     1       1.991  -5.635  26.705  0.00  0.00    -0.334 OA
ATOM     27  C   UNL     1       2.209  -5.425  28.108  0.00  0.00    +0.150 C 
ATOM     28  C   UNL     1       2.146  -3.924  28.355  0.00  0.00    +0.041 C 
ATOM     29  C   UNL     1       1.164  -6.178  28.951  0.00  0.00    +0.174 C 
ATOM     30  C   UNL     1       1.192  -7.680  28.624  0.00  0.00    +0.180 C 
ATOM     31  C   UNL     1       1.197  -7.904  27.102  0.00  0.00    +0.214 C 
BRANCH  31  32
ATOM     32  O   UNL     1       1.290  -9.286  26.758  0.00  0.00    -0.383 OA
ATOM     33  H   UNL     1       0.534  -9.504  26.181  0.00  0.00    +0.210 HD
ENDBRANCH  31  32
BRANCH  30  34
ATOM     34  O   UNL     1       2.292  -8.315  29.293  0.00  0.00    -0.386 OA
ATOM     35  H   UNL     1       2.240  -9.276  29.161  0.00  0.00    +0.210 HD
ENDBRANCH  30  34
BRANCH  29  36
ATOM     36  O   UNL     1       1.387  -5.967  30.348  0.00  0.00    -0.387 OA
ATOM     37  H   UNL     1       0.691  -5.361  30.670  0.00  0.00    +0.210 HD
ENDBRANCH  29  36
ENDBRANCH  24  25
ENDBRANCH   7  24
BRANCH   1  38
ATOM     38  O   UNL     1       8.052  -1.923  22.790  0.00  0.00    -0.453 OA
BRANCH  38  41
ATOM     39  C   UNL     1       8.592   1.697  22.154  0.00  0.00    +0.179 C 
ATOM     40  O   UNL     1       7.976   0.385  22.212  0.00  0.00    -0.331 OA
ATOM     41  C   UNL     1       8.319  -0.558  23.252  0.00  0.00    +0.340 C 
ATOM     42  C   UNL     1       9.819  -0.498  23.668  0.00  0.00    +0.214 C 
ATOM     43  C   UNL     1      10.265   0.958  23.854  0.00  0.00    +0.180 C 
ATOM     44  C   UNL     1      10.095   1.677  22.507  0.00  0.00    +0.177 C 
BRANCH  44  45
ATOM     45  O   UNL     1      10.670   2.983  22.544  0.00  0.00    -0.386 OA
ATOM     46  H   UNL     1      11.505   2.915  23.043  0.00  0.00    +0.210 HD
ENDBRANCH  44  45
BRANCH  43  47
ATOM     47  O   UNL     1      11.621   1.009  24.315  0.00  0.00    -0.386 OA
ATOM     48  H   UNL     1      12.186   0.908  23.526  0.00  0.00    +0.210 HD
ENDBRANCH  43  47
BRANCH  42  49
ATOM     49  O   UNL     1      10.694  -1.081  22.677  0.00  0.00    -0.383 OA
ATOM     50  H   UNL     1      11.488  -0.512  22.619  0.00  0.00    +0.210 HD
ENDBRANCH  42  49
BRANCH  39  51
ATOM     51  C   UNL     1       7.815   2.860  22.879  0.00  0.00    +0.197 C 
BRANCH  51  52
ATOM     52  O   UNL     1       6.625   3.199  22.126  0.00  0.00    -0.346 OA
BRANCH  52  56
ATOM     53  C   UNL     1       4.858   6.452  24.559  0.00  0.00    +0.041 C 
ATOM     54  C   UNL     1       5.138   5.010  24.982  0.00  0.00    +0.149 C 
ATOM     55  O   UNL     1       6.103   4.398  24.095  0.00  0.00    -0.343 OA
ATOM     56  C   UNL     1       5.620   3.988  22.812  0.00  0.00    +0.282 C 
ATOM     57  C   UNL     1       4.375   3.066  22.991  0.00  0.00    +0.201 C 
ATOM     58  C   UNL     1       3.275   3.797  23.779  0.00  0.00    +0.179 C 
ATOM     59  C   UNL     1       3.818   4.225  25.148  0.00  0.00    +0.174 C 
BRANCH  59  60
ATOM     60  O   UNL     1       4.009   3.089  26.002  0.00  0.00    -0.387 OA
ATOM     61  H   UNL     1       3.396   2.387  25.685  0.00  0.00    +0.210 HD
ENDBRANCH  59  60
BRANCH  58  62
ATOM     62  O   UNL     1       2.113   2.969  23.925  0.00  0.00    -0.386 OA
ATOM     63  H   UNL     1       2.401   2.041  23.993  0.00  0.00    +0.210 HD
ENDBRANCH  58  62
BRANCH  57  64
ATOM     64  O   UNL     1       4.753   1.876  23.729  0.00  0.00    -0.384 OA
ATOM     65  H   UNL     1       3.918   1.391  23.890  0.00  0.00    +0.210 HD
ENDBRANCH  57  64
ENDBRANCH  52  56
ENDBRANCH  51  52
ENDBRANCH  39  51
ENDBRANCH  38  41
ENDBRANCH   1  38
TORSDOF 20
ENDMDL
MODEL 7
REMARK VINA RESULT:      -6.9      2.703      3.634
REMARK  Name = 
REMARK  23 active torsions:
REMARK  status: ('A' for Active; 'I' for Inactive)
REMARK    1  A    between atoms: C_1  and  C_2
REMARK    2  A    between atoms: C_3  and  O_62
REMARK    3  A    between atoms: C_5  and  O_61
REMARK    4  A    between atoms: C_7  and  O_60
REMARK    5  A    between atoms: C_8  and  O_11
REMARK    6  A    between atoms: O_11  and  C_12
REMARK    7  A    between atoms: C_12  and  C_13
REMARK    8  A    between atoms: C_14  and  O_59
REMARK    9  A    between atoms: C_16  and  O_58
REMARK   10  A    between atoms: C_17  and  O_57
REMARK   11  A    between atoms: C_18  and  O_21
REMARK   12  A    between atoms: O_21  and  C_22
REMARK   13  A    between atoms: C_23  and  C_48
REMARK   14  A    between atoms: C_27  and  O_34
REMARK   15  A    between atoms: C_29  and  O_33
REMARK   16  A    between atoms: O_34  and  C_35
REMARK   17  A    between atoms: C_37  and  O_47
REMARK   18  A    between atoms: C_38  and  O_46
REMARK   19  A    between atoms: C_40  and  O_45
REMARK   20  A    between atoms: C_42  and  C_44
REMARK   21  A    between atoms: C_50  and  O_56
REMARK   22  A    between atoms: C_51  and  O_54
REMARK   23  A    between atoms: O_54  and  C_55
REMARK                            x       y       z     vdW  Elec       q    Type
REMARK                         _______ _______ _______ _____ _____    ______ ____
ROOT
ATOM      1  C   UNL     1       8.168  -1.435  23.648  0.00  0.00    +0.214 A 
ATOM      2  C   UNL     1       7.820  -2.529  22.608  0.00  0.00    +0.238 A 
ATOM      3  O   UNL     1       8.263  -2.449  21.473  0.00  0.00    -0.283 OA
ATOM      4  C   UNL     1       6.869  -3.615  23.047  0.00  0.00    +0.109 A 
ATOM      5  C   UNL     1       6.759  -3.842  24.415  0.00  0.00    +0.147 A 
ATOM      6  C   UNL     1       5.940  -4.864  24.958  0.00  0.00    +0.093 A 
ATOM      7  C   UNL     1       5.126  -5.652  24.142  0.00  0.00    +0.131 A 
ATOM      8  C   UNL     1       5.190  -5.412  22.761  0.00  0.00    +0.092 A 
ATOM      9  O   UNL     1       7.426  -3.041  25.313  0.00  0.00    -0.451 OA
ATOM     10  C   UNL     1       6.070  -4.430  22.218  0.00  0.00    +0.135 A 
ATOM     11  C   UNL     1       7.775  -1.759  24.906  0.00  0.00    +0.181 A 
ENDROOT
BRANCH  11  12
ATOM     12  C   UNL     1       7.243  -0.767  25.861  0.00  0.00    +0.025 A 
ATOM     13  C   UNL     1       5.856  -0.588  25.798  0.00  0.00    +0.015 A 
ATOM     14  C   UNL     1       5.161  -0.048  26.873  0.00  0.00    +0.050 A 
ATOM     15  C   UNL     1       5.829   0.399  28.011  0.00  0.00    +0.161 A 
ATOM     16  C   UNL     1       7.227   0.390  27.988  0.00  0.00    +0.159 A 
ATOM     17  C   UNL     1       7.940  -0.238  26.950  0.00  0.00    +0.060 A 
BRANCH  16  18
ATOM     18  O   UNL     1       7.970   1.028  28.942  0.00  0.00    -0.503 OA
ATOM     19  H   UNL     1       7.333   1.607  29.402  0.00  0.00    +0.292 HD
ENDBRANCH  16  18
BRANCH  15  20
ATOM     20  O   UNL     1       4.966   0.793  28.986  0.00  0.00    -0.491 OA
ATOM     21  C   UNL     1       4.050   1.851  28.773  0.00  0.00    +0.277 C 
ENDBRANCH  15  20
ENDBRANCH  11  12
BRANCH  10  22
ATOM     22  O   UNL     1       6.085  -4.265  20.860  0.00  0.00    -0.506 OA
ATOM     23  H   UNL     1       5.723  -5.053  20.421  0.00  0.00    +0.292 HD
ENDBRANCH  10  22
BRANCH   7  24
ATOM     24  O   UNL     1       4.217  -6.615  24.573  0.00  0.00    -0.461 OA
BRANCH  24  25
ATOM     25  C   UNL     1       2.817  -6.246  24.566  0.00  0.00    +0.339 C 
ATOM     26  O   UNL     1       2.416  -5.723  25.836  0.00  0.00    -0.334 OA
ATOM     27  C   UNL     1       2.392  -6.718  26.870  0.00  0.00    +0.150 C 
ATOM     28  C   UNL     1       2.130  -5.996  28.184  0.00  0.00    +0.041 C 
ATOM     29  C   UNL     1       1.316  -7.784  26.590  0.00  0.00    +0.174 C 
ATOM     30  C   UNL     1       1.557  -8.441  25.221  0.00  0.00    +0.180 C 
ATOM     31  C   UNL     1       1.820  -7.374  24.145  0.00  0.00    +0.214 C 
BRANCH  31  32
ATOM     32  O   UNL     1       2.113  -7.947  22.872  0.00  0.00    -0.383 OA
ATOM     33  H   UNL     1       3.050  -8.213  22.870  0.00  0.00    +0.210 HD
ENDBRANCH  31  32
BRANCH  30  34
ATOM     34  O   UNL     1       2.603  -9.420  25.315  0.00  0.00    -0.386 OA
ATOM     35  H   UNL     1       3.223  -9.303  24.577  0.00  0.00    +0.210 HD
ENDBRANCH  30  34
BRANCH  29  36
ATOM     36  O   UNL     1       1.298  -8.773  27.623  0.00  0.00    -0.387 OA
ATOM     37  H   UNL     1       2.226  -9.010  27.821  0.00  0.00    +0.210 HD
ENDBRANCH  29  36
ENDBRANCH  24  25
ENDBRANCH   7  24
BRANCH   1  38
ATOM     38  O   UNL     1       8.630  -0.204  23.184  0.00  0.00    -0.453 OA
BRANCH  38  41
ATOM     39  C   UNL     1       6.191   2.480  22.380  0.00  0.00    +0.179 C 
ATOM     40  O   UNL     1       6.758   1.183  22.695  0.00  0.00    -0.331 OA
ATOM     41  C   UNL     1       7.960   1.064  23.488  0.00  0.00    +0.340 C 
ATOM     42  C   UNL     1       8.989   2.203  23.223  0.00  0.00    +0.214 C 
ATOM     43  C   UNL     1       8.285   3.566  23.201  0.00  0.00    +0.180 C 
ATOM     44  C   UNL     1       7.260   3.546  22.056  0.00  0.00    +0.177 C 
BRANCH  44  45
ATOM     45  O   UNL     1       6.700   4.842  21.844  0.00  0.00    -0.386 OA
ATOM     46  H   UNL     1       7.410   5.406  21.484  0.00  0.00    +0.210 HD
ENDBRANCH  44  45
BRANCH  43  47
ATOM     47  O   UNL     1       9.243   4.619  23.037  0.00  0.00    -0.386 OA
ATOM     48  H   UNL     1       9.753   4.661  23.867  0.00  0.00    +0.210 HD
ENDBRANCH  43  47
BRANCH  42  49
ATOM     49  O   UNL     1       9.662   2.059  21.952  0.00  0.00    -0.383 OA
ATOM     50  H   UNL     1       9.303   1.256  21.523  0.00  0.00    +0.210 HD
ENDBRANCH  42  49
BRANCH  39  51
ATOM     51  C   UNL     1       5.086   3.012  23.369  0.00  0.00    +0.197 C 
BRANCH  51  52
ATOM     52  O   UNL     1       4.424   4.163  22.791  0.00  0.00    -0.346 OA
BRANCH  52  56
ATOM     53  C   UNL     1       0.795   2.161  21.228  0.00  0.00    +0.041 C 
ATOM     54  C   UNL     1       1.709   3.148  20.502  0.00  0.00    +0.149 C 
ATOM     55  O   UNL     1       2.996   3.227  21.157  0.00  0.00    -0.343 OA
ATOM     56  C   UNL     1       3.048   3.984  22.371  0.00  0.00    +0.282 C 
ATOM     57  C   UNL     1       2.467   5.410  22.124  0.00  0.00    +0.201 C 
ATOM     58  C   UNL     1       1.024   5.318  21.601  0.00  0.00    +0.179 C 
ATOM     59  C   UNL     1       0.996   4.504  20.302  0.00  0.00    +0.174 C 
BRANCH  59  60
ATOM     60  O   UNL     1       1.594   5.236  19.224  0.00  0.00    -0.387 OA
ATOM     61  H   UNL     1       0.866   5.490  18.612  0.00  0.00    +0.210 HD
ENDBRANCH  59  60
BRANCH  58  62
ATOM     62  O   UNL     1       0.469   6.626  21.398  0.00  0.00    -0.386 OA
ATOM     63  H   UNL     1      -0.083   6.850  22.168  0.00  0.00    +0.210 HD
ENDBRANCH  58  62
BRANCH  57  64
ATOM     64  O   UNL     1       3.272   6.098  21.131  0.00  0.00    -0.384 OA
ATOM     65  H   UNL     1       4.200   5.971  21.414  0.00  0.00    +0.210 HD
ENDBRANCH  57  64
ENDBRANCH  52  56
ENDBRANCH  51  52
ENDBRANCH  39  51
ENDBRANCH  38  41
ENDBRANCH   1  38
TORSDOF 20
ENDMDL
MODEL 8
REMARK VINA RESULT:      -6.7      2.321      9.565
REMARK  Name = 
REMARK  23 active torsions:
REMARK  status: ('A' for Active; 'I' for Inactive)
REMARK    1  A    between atoms: C_1  and  C_2
REMARK    2  A    between atoms: C_3  and  O_62
REMARK    3  A    between atoms: C_5  and  O_61
REMARK    4  A    between atoms: C_7  and  O_60
REMARK    5  A    between atoms: C_8  and  O_11
REMARK    6  A    between atoms: O_11  and  C_12
REMARK    7  A    between atoms: C_12  and  C_13
REMARK    8  A    between atoms: C_14  and  O_59
REMARK    9  A    between atoms: C_16  and  O_58
REMARK   10  A    between atoms: C_17  and  O_57
REMARK   11  A    between atoms: C_18  and  O_21
REMARK   12  A    between atoms: O_21  and  C_22
REMARK   13  A    between atoms: C_23  and  C_48
REMARK   14  A    between atoms: C_27  and  O_34
REMARK   15  A    between atoms: C_29  and  O_33
REMARK   16  A    between atoms: O_34  and  C_35
REMARK   17  A    between atoms: C_37  and  O_47
REMARK   18  A    between atoms: C_38  and  O_46
REMARK   19  A    between atoms: C_40  and  O_45
REMARK   20  A    between atoms: C_42  and  C_44
REMARK   21  A    between atoms: C_50  and  O_56
REMARK   22  A    between atoms: C_51  and  O_54
REMARK   23  A    between atoms: O_54  and  C_55
REMARK                            x       y       z     vdW  Elec       q    Type
REMARK                         _______ _______ _______ _____ _____    ______ ____
ROOT
ATOM      1  C   UNL     1       6.157  -1.830  26.525  0.00  0.00    +0.214 A 
ATOM      2  C   UNL     1       7.582  -1.488  26.026  0.00  0.00    +0.238 A 
ATOM      3  O   UNL     1       8.506  -2.249  26.263  0.00  0.00    -0.283 OA
ATOM      4  C   UNL     1       7.763  -0.165  25.323  0.00  0.00    +0.109 A 
ATOM      5  C   UNL     1       6.629   0.408  24.756  0.00  0.00    +0.147 A 
ATOM      6  C   UNL     1       6.670   1.622  24.025  0.00  0.00    +0.093 A 
ATOM      7  C   UNL     1       7.850   2.358  23.906  0.00  0.00    +0.131 A 
ATOM      8  C   UNL     1       8.997   1.819  24.506  0.00  0.00    +0.092 A 
ATOM      9  O   UNL     1       5.394  -0.175  24.919  0.00  0.00    -0.451 OA
ATOM     10  C   UNL     1       8.963   0.562  25.178  0.00  0.00    +0.135 A 
ATOM     11  C   UNL     1       5.207  -1.004  26.018  0.00  0.00    +0.181 A 
ENDROOT
BRANCH  11  12
ATOM     12  C   UNL     1       4.043  -0.543  26.801  0.00  0.00    +0.025 A 
ATOM     13  C   UNL     1       3.960   0.846  26.954  0.00  0.00    +0.015 A 
ATOM     14  C   UNL     1       2.751   1.454  27.267  0.00  0.00    +0.050 A 
ATOM     15  C   UNL     1       1.606   0.699  27.510  0.00  0.00    +0.161 A 
ATOM     16  C   UNL     1       1.741  -0.693  27.540  0.00  0.00    +0.159 A 
ATOM     17  C   UNL     1       2.933  -1.323  27.134  0.00  0.00    +0.060 A 
BRANCH  16  18
ATOM     18  O   UNL     1       0.747  -1.506  28.006  0.00  0.00    -0.503 OA
ATOM     19  H   UNL     1       0.605  -1.215  28.928  0.00  0.00    +0.292 HD
ENDBRANCH  16  18
BRANCH  15  20
ATOM     20  O   UNL     1       0.508   1.481  27.693  0.00  0.00    -0.491 OA
ATOM     21  C   UNL     1       0.443   2.417  28.752  0.00  0.00    +0.277 C 
ENDBRANCH  15  20
ENDBRANCH  11  12
BRANCH  10  22
ATOM     22  O   UNL     1      10.128   0.096  25.725  0.00  0.00    -0.506 OA
ATOM     23  H   UNL     1       9.950  -0.676  26.287  0.00  0.00    +0.292 HD
ENDBRANCH  10  22
BRANCH   7  24
ATOM     24  O   UNL     1       7.984   3.603  23.295  0.00  0.00    -0.461 OA
BRANCH  24  25
ATOM     25  C   UNL     1       7.791   4.769  24.132  0.00  0.00    +0.339 C 
ATOM     26  O   UNL     1       6.426   4.889  24.543  0.00  0.00    -0.334 OA
ATOM     27  C   UNL     1       5.543   5.226  23.462  0.00  0.00    +0.150 C 
ATOM     28  C   UNL     1       4.121   5.141  23.999  0.00  0.00    +0.041 C 
ATOM     29  C   UNL     1       5.852   6.630  22.910  0.00  0.00    +0.174 C 
ATOM     30  C   UNL     1       7.317   6.713  22.450  0.00  0.00    +0.180 C 
ATOM     31  C   UNL     1       8.256   6.130  23.519  0.00  0.00    +0.214 C 
BRANCH  31  32
ATOM     32  O   UNL     1       9.621   6.129  23.101  0.00  0.00    -0.383 OA
ATOM     33  H   UNL     1       9.668   5.700  22.227  0.00  0.00    +0.210 HD
ENDBRANCH  31  32
BRANCH  30  34
ATOM     34  O   UNL     1       7.471   6.096  21.163  0.00  0.00    -0.386 OA
ATOM     35  H   UNL     1       8.106   6.606  20.633  0.00  0.00    +0.210 HD
ENDBRANCH  30  34
BRANCH  29  36
ATOM     36  O   UNL     1       4.971   6.959  21.833  0.00  0.00    -0.387 OA
ATOM     37  H   UNL     1       5.440   6.766  20.998  0.00  0.00    +0.210 HD
ENDBRANCH  29  36
ENDBRANCH  24  25
ENDBRANCH   7  24
BRANCH   1  38
ATOM     38  O   UNL     1       6.022  -2.763  27.554  0.00  0.00    -0.453 OA
BRANCH  38  41
ATOM     39  C   UNL     1       3.783  -5.550  26.546  0.00  0.00    +0.179 C 
ATOM     40  O   UNL     1       4.568  -4.331  26.509  0.00  0.00    -0.331 OA
ATOM     41  C   UNL     1       5.762  -4.185  27.310  0.00  0.00    +0.340 C 
ATOM     42  C   UNL     1       5.659  -4.878  28.701  0.00  0.00    +0.214 C 
ATOM     43  C   UNL     1       5.071  -6.287  28.554  0.00  0.00    +0.180 C 
ATOM     44  C   UNL     1       3.659  -6.148  27.965  0.00  0.00    +0.177 C 
BRANCH  44  45
ATOM     45  O   UNL     1       2.970  -7.398  27.977  0.00  0.00    -0.386 OA
ATOM     46  H   UNL     1       3.599  -8.069  28.304  0.00  0.00    +0.210 HD
ENDBRANCH  44  45
BRANCH  43  47
ATOM     47  O   UNL     1       5.053  -6.954  29.823  0.00  0.00    -0.386 OA
ATOM     48  H   UNL     1       4.500  -6.410  30.414  0.00  0.00    +0.210 HD
ENDBRANCH  43  47
BRANCH  42  49
ATOM     49  O   UNL     1       4.803  -4.161  29.618  0.00  0.00    -0.383 OA
ATOM     50  H   UNL     1       5.098  -3.228  29.620  0.00  0.00    +0.210 HD
ENDBRANCH  42  49
BRANCH  39  51
ATOM     51  C   UNL     1       4.136  -6.635  25.460  0.00  0.00    +0.197 C 
BRANCH  51  52
ATOM     52  O   UNL     1       3.722  -6.173  24.151  0.00  0.00    -0.346 OA
BRANCH  52  56
ATOM     53  C   UNL     1       7.580  -6.459  21.993  0.00  0.00    +0.041 C 
ATOM     54  C   UNL     1       7.187  -5.465  23.085  0.00  0.00    +0.149 C 
ATOM     55  O   UNL     1       6.055  -5.957  23.839  0.00  0.00    -0.343 OA
ATOM     56  C   UNL     1       4.774  -5.854  23.206  0.00  0.00    +0.282 C 
ATOM     57  C   UNL     1       4.533  -4.384  22.747  0.00  0.00    +0.201 C 
ATOM     58  C   UNL     1       5.650  -3.930  21.793  0.00  0.00    +0.179 C 
ATOM     59  C   UNL     1       7.009  -4.048  22.493  0.00  0.00    +0.174 C 
BRANCH  59  60
ATOM     60  O   UNL     1       7.148  -3.052  23.515  0.00  0.00    -0.387 OA
ATOM     61  H   UNL     1       7.781  -2.379  23.174  0.00  0.00    +0.210 HD
ENDBRANCH  59  60
BRANCH  58  62
ATOM     62  O   UNL     1       5.422  -2.588  21.340  0.00  0.00    -0.386 OA
ATOM     63  H   UNL     1       4.483  -2.370  21.479  0.00  0.00    +0.210 HD
ENDBRANCH  58  62
BRANCH  57  64
ATOM     64  O   UNL     1       4.533  -3.507  23.903  0.00  0.00    -0.384 OA
ATOM     65  H   UNL     1       4.722  -2.613  23.553  0.00  0.00    +0.210 HD
ENDBRANCH  57  64
ENDBRANCH  52  56
ENDBRANCH  51  52
ENDBRANCH  39  51
ENDBRANCH  38  41
ENDBRANCH   1  38
TORSDOF 20
ENDMDL
MODEL 9
REMARK VINA RESULT:      -6.6      1.936      2.823
REMARK  Name = 
REMARK  23 active torsions:
REMARK  status: ('A' for Active; 'I' for Inactive)
REMARK    1  A    between atoms: C_1  and  C_2
REMARK    2  A    between atoms: C_3  and  O_62
REMARK    3  A    between atoms: C_5  and  O_61
REMARK    4  A    between atoms: C_7  and  O_60
REMARK    5  A    between atoms: C_8  and  O_11
REMARK    6  A    between atoms: O_11  and  C_12
REMARK    7  A    between atoms: C_12  and  C_13
REMARK    8  A    between atoms: C_14  and  O_59
REMARK    9  A    between atoms: C_16  and  O_58
REMARK   10  A    between atoms: C_17  and  O_57
REMARK   11  A    between atoms: C_18  and  O_21
REMARK   12  A    between atoms: O_21  and  C_22
REMARK   13  A    between atoms: C_23  and  C_48
REMARK   14  A    between atoms: C_27  and  O_34
REMARK   15  A    between atoms: C_29  and  O_33
REMARK   16  A    between atoms: O_34  and  C_35
REMARK   17  A    between atoms: C_37  and  O_47
REMARK   18  A    between atoms: C_38  and  O_46
REMARK   19  A    between atoms: C_40  and  O_45
REMARK   20  A    between atoms: C_42  and  C_44
REMARK   21  A    between atoms: C_50  and  O_56
REMARK   22  A    between atoms: C_51  and  O_54
REMARK   23  A    between atoms: O_54  and  C_55
REMARK                            x       y       z     vdW  Elec       q    Type
REMARK                         _______ _______ _______ _____ _____    ______ ____
ROOT
ATOM      1  C   UNL     1       7.617  -3.009  23.616  0.00  0.00    +0.214 A 
ATOM      2  C   UNL     1       7.167  -4.353  22.994  0.00  0.00    +0.238 A 
ATOM      3  O   UNL     1       7.550  -4.662  21.876  0.00  0.00    -0.283 OA
ATOM      4  C   UNL     1       6.199  -5.190  23.793  0.00  0.00    +0.109 A 
ATOM      5  C   UNL     1       6.156  -4.965  25.166  0.00  0.00    +0.147 A 
ATOM      6  C   UNL     1       5.328  -5.716  26.038  0.00  0.00    +0.093 A 
ATOM      7  C   UNL     1       4.439  -6.674  25.549  0.00  0.00    +0.131 A 
ATOM      8  C   UNL     1       4.435  -6.887  24.162  0.00  0.00    +0.092 A 
ATOM      9  O   UNL     1       6.904  -3.960  25.734  0.00  0.00    -0.451 OA
ATOM     10  C   UNL     1       5.322  -6.179  23.300  0.00  0.00    +0.135 A 
ATOM     11  C   UNL     1       7.282  -2.895  24.926  0.00  0.00    +0.181 A 
ENDROOT
BRANCH  11  12
ATOM     12  C   UNL     1       6.844  -1.623  25.535  0.00  0.00    +0.025 A 
ATOM     13  C   UNL     1       7.705  -1.127  26.521  0.00  0.00    +0.015 A 
ATOM     14  C   UNL     1       7.683   0.218  26.870  0.00  0.00    +0.050 A 
ATOM     15  C   UNL     1       6.757   1.093  26.307  0.00  0.00    +0.161 A 
ATOM     16  C   UNL     1       5.781   0.551  25.465  0.00  0.00    +0.159 A 
ATOM     17  C   UNL     1       5.847  -0.785  25.030  0.00  0.00    +0.060 A 
BRANCH  16  18
ATOM     18  O   UNL     1       4.692   1.272  25.062  0.00  0.00    -0.503 OA
ATOM     19  H   UNL     1       3.946   0.646  25.130  0.00  0.00    +0.292 HD
ENDBRANCH  16  18
BRANCH  15  20
ATOM     20  O   UNL     1       6.968   2.379  26.698  0.00  0.00    -0.491 OA
ATOM     21  C   UNL     1       7.665   3.292  25.873  0.00  0.00    +0.277 C 
ENDBRANCH  15  20
ENDBRANCH  11  12
BRANCH  10  22
ATOM     22  O   UNL     1       5.269  -6.454  21.961  0.00  0.00    -0.506 OA
ATOM     23  H   UNL     1       4.503  -6.012  21.557  0.00  0.00    +0.292 HD
ENDBRANCH  10  22
BRANCH   7  24
ATOM     24  O   UNL     1       3.516  -7.399  26.300  0.00  0.00    -0.461 OA
BRANCH  24  25
ATOM     25  C   UNL     1       2.116  -7.097  26.089  0.00  0.00    +0.339 C 
ATOM     26  O   UNL     1       1.806  -5.765  26.512  0.00  0.00    -0.334 OA
ATOM     27  C   UNL     1       1.871  -5.600  27.937  0.00  0.00    +0.150 C 
ATOM     28  C   UNL     1       1.702  -4.114  28.225  0.00  0.00    +0.041 C 
ATOM     29  C   UNL     1       0.789  -6.436  28.643  0.00  0.00    +0.174 C 
ATOM     30  C   UNL     1       0.932  -7.921  28.270  0.00  0.00    +0.180 C 
ATOM     31  C   UNL     1       1.101  -8.086  26.750  0.00  0.00    +0.214 C 
BRANCH  31  32
ATOM     32  O   UNL     1       1.303  -9.446  26.371  0.00  0.00    -0.383 OA
ATOM     33  H   UNL     1       0.474  -9.776  25.978  0.00  0.00    +0.210 HD
ENDBRANCH  31  32
BRANCH  30  34
ATOM     34  O   UNL     1       1.992  -8.524  29.026  0.00  0.00    -0.386 OA
ATOM     35  H   UNL     1       2.084  -9.457  28.769  0.00  0.00    +0.210 HD
ENDBRANCH  30  34
BRANCH  29  36
ATOM     36  O   UNL     1       0.859  -6.268  30.061  0.00  0.00    -0.387 OA
ATOM     37  H   UNL     1       1.544  -6.879  30.397  0.00  0.00    +0.210 HD
ENDBRANCH  29  36
ENDBRANCH  24  25
ENDBRANCH   7  24
BRANCH   1  38
ATOM     38  O   UNL     1       8.103  -2.016  22.766  0.00  0.00    -0.453 OA
BRANCH  38  41
ATOM     39  C   UNL     1       8.546   1.596  22.017  0.00  0.00    +0.179 C 
ATOM     40  O   UNL     1       7.980   0.262  22.085  0.00  0.00    -0.331 OA
ATOM     41  C   UNL     1       8.279  -0.623  23.188  0.00  0.00    +0.340 C 
ATOM     42  C   UNL     1       9.740  -0.483  23.712  0.00  0.00    +0.214 C 
ATOM     43  C   UNL     1      10.112   0.997  23.868  0.00  0.00    +0.180 C 
ATOM     44  C   UNL     1      10.018   1.654  22.482  0.00  0.00    +0.177 C 
BRANCH  44  45
ATOM     45  O   UNL     1      10.535   2.984  22.507  0.00  0.00    -0.386 OA
ATOM     46  H   UNL     1      11.489   2.917  22.703  0.00  0.00    +0.210 HD
ENDBRANCH  44  45
BRANCH  43  47
ATOM     47  O   UNL     1      11.426   1.124  24.427  0.00  0.00    -0.386 OA
ATOM     48  H   UNL     1      11.308   1.436  25.343  0.00  0.00    +0.210 HD
ENDBRANCH  43  47
BRANCH  42  49
ATOM     49  O   UNL     1      10.710  -1.067  22.815  0.00  0.00    -0.383 OA
ATOM     50  H   UNL     1      10.960  -1.937  23.185  0.00  0.00    +0.210 HD
ENDBRANCH  42  49
BRANCH  39  51
ATOM     51  C   UNL     1       7.670   2.753  22.632  0.00  0.00    +0.197 C 
BRANCH  51  52
ATOM     52  O   UNL     1       6.350   2.737  22.038  0.00  0.00    -0.346 OA
BRANCH  52  56
ATOM     53  C   UNL     1       2.320   3.945  23.424  0.00  0.00    +0.041 C 
ATOM     54  C   UNL     1       3.155   4.571  22.307  0.00  0.00    +0.149 C 
ATOM     55  O   UNL     1       4.178   3.652  21.860  0.00  0.00    -0.343 OA
ATOM     56  C   UNL     1       5.321   3.506  22.710  0.00  0.00    +0.282 C 
ATOM     57  C   UNL     1       5.934   4.908  23.009  0.00  0.00    +0.201 C 
ATOM     58  C   UNL     1       4.885   5.824  23.660  0.00  0.00    +0.179 C 
ATOM     59  C   UNL     1       3.672   5.964  22.730  0.00  0.00    +0.174 C 
BRANCH  59  60
ATOM     60  O   UNL     1       3.998   6.754  21.578  0.00  0.00    -0.387 OA
ATOM     61  H   UNL     1       4.955   6.614  21.397  0.00  0.00    +0.210 HD
ENDBRANCH  59  60
BRANCH  58  62
ATOM     62  O   UNL     1       5.446   7.108  23.966  0.00  0.00    -0.386 OA
ATOM     63  H   UNL     1       6.374   7.118  23.671  0.00  0.00    +0.210 HD
ENDBRANCH  58  62
BRANCH  57  64
ATOM     64  O   UNL     1       6.372   5.521  21.769  0.00  0.00    -0.384 OA
ATOM     65  H   UNL     1       7.102   4.957  21.442  0.00  0.00    +0.210 HD
ENDBRANCH  57  64
ENDBRANCH  52  56
ENDBRANCH  51  52
ENDBRANCH  39  51
ENDBRANCH  38  41
ENDBRANCH   1  38
TORSDOF 20
ENDMDL
