MODEL 1
REMARK VINA RESULT:      -7.3      0.000      0.000
REMARK  Name = 
REMARK  18 active torsions:
REMARK  status: ('A' for Active; 'I' for Inactive)
REMARK    1  A    between atoms: C_1  and  O_2
REMARK    2  A    between atoms: O_2  and  C_3
REMARK    3  A    between atoms: C_4  and  C_42
REMARK    4  A    between atoms: C_8  and  O_15
REMARK    5  A    between atoms: C_10  and  O_14
REMARK    6  A    between atoms: O_15  and  C_16
REMARK    7  A    between atoms: C_18  and  O_41
REMARK    8  A    between atoms: C_19  and  O_40
REMARK    9  A    between atoms: C_21  and  O_39
REMARK   10  A    between atoms: C_23  and  C_25
REMARK   11  A    between atoms: C_25  and  O_26
REMARK   12  A    between atoms: O_26  and  C_27
REMARK   13  A    between atoms: C_29  and  O_38
REMARK   14  A    between atoms: C_31  and  O_37
REMARK   15  A    between atoms: C_32  and  C_35
REMARK   16  A    between atoms: C_35  and  O_36
REMARK   17  A    between atoms: C_44  and  O_49
REMARK   18  A    between atoms: C_45  and  O_48
REMARK                            x       y       z     vdW  Elec       q    Type
REMARK                         _______ _______ _______ _____ _____    ______ ____
ROOT
ATOM      1  O   UNL     1       6.675  -4.949  28.089  0.00  0.00    -0.461 OA
ENDROOT
BRANCH   1   8
ATOM      2  C   UNL     1       9.265  -0.873  23.773  0.00  0.00    +0.211 A 
ATOM      3  C   UNL     1       9.600  -2.341  23.946  0.00  0.00    +0.238 A 
ATOM      4  O   UNL     1      10.475  -2.870  23.269  0.00  0.00    -0.283 OA
ATOM      5  C   UNL     1       8.865  -3.088  24.994  0.00  0.00    +0.109 A 
ATOM      6  C   UNL     1       7.741  -2.465  25.515  0.00  0.00    +0.147 A 
ATOM      7  C   UNL     1       6.965  -3.082  26.501  0.00  0.00    +0.093 A 
ATOM      8  C   UNL     1       7.330  -4.315  27.051  0.00  0.00    +0.131 A 
ATOM      9  C   UNL     1       8.464  -4.956  26.524  0.00  0.00    +0.092 A 
ATOM     10  O   UNL     1       7.320  -1.215  25.150  0.00  0.00    -0.451 OA
ATOM     11  C   UNL     1       9.221  -4.346  25.502  0.00  0.00    +0.135 A 
ATOM     12  C   UNL     1       8.169  -0.404  24.418  0.00  0.00    +0.181 A 
BRANCH  12  13
ATOM     13  C   UNL     1       7.709   1.005  24.513  0.00  0.00    +0.025 A 
ATOM     14  C   UNL     1       8.646   1.960  24.963  0.00  0.00    +0.015 A 
ATOM     15  C   UNL     1       8.284   3.291  25.175  0.00  0.00    +0.050 A 
ATOM     16  C   UNL     1       6.972   3.675  24.964  0.00  0.00    +0.158 A 
ATOM     17  C   UNL     1       6.026   2.748  24.529  0.00  0.00    +0.159 A 
ATOM     18  C   UNL     1       6.384   1.416  24.284  0.00  0.00    +0.060 A 
BRANCH  17  19
ATOM     19  O   UNL     1       4.742   3.203  24.390  0.00  0.00    -0.503 OA
ATOM     20  H   UNL     1       4.759   4.175  24.394  0.00  0.00    +0.292 HD
ENDBRANCH  17  19
BRANCH  16  21
ATOM     21  O   UNL     1       6.610   4.966  25.220  0.00  0.00    -0.503 OA
ATOM     22  H   UNL     1       6.781   5.447  24.386  0.00  0.00    +0.292 HD
ENDBRANCH  16  21
ENDBRANCH  12  13
BRANCH  11  23
ATOM     23  O   UNL     1      10.317  -5.012  25.047  0.00  0.00    -0.506 OA
ATOM     24  H   UNL     1      10.524  -5.777  25.612  0.00  0.00    +0.292 HD
ENDBRANCH  11  23
BRANCH   2  26
ATOM     25  C   UNL     1       9.736   0.161  21.658  0.00  0.00    +0.277 C 
ATOM     26  O   UNL     1      10.145  -0.177  22.972  0.00  0.00    -0.488 OA
ENDBRANCH   2  26
ENDBRANCH   1   8
BRANCH   1  27
ATOM     27  C   UNL     1       6.039  -6.194  27.734  0.00  0.00    +0.339 C 
ATOM     28  O   UNL     1       5.237  -6.038  26.556  0.00  0.00    -0.331 OA
ATOM     29  C   UNL     1       4.005  -5.331  26.797  0.00  0.00    +0.179 C 
ATOM     30  C   UNL     1       3.112  -6.184  27.716  0.00  0.00    +0.177 C 
ATOM     31  C   UNL     1       3.819  -6.386  29.064  0.00  0.00    +0.180 C 
ATOM     32  C   UNL     1       5.264  -6.866  28.896  0.00  0.00    +0.214 C 
BRANCH  32  33
ATOM     33  O   UNL     1       5.977  -6.795  30.138  0.00  0.00    -0.383 OA
ATOM     34  H   UNL     1       6.299  -5.879  30.240  0.00  0.00    +0.210 HD
ENDBRANCH  32  33
BRANCH  31  35
ATOM     35  O   UNL     1       3.768  -5.203  29.869  0.00  0.00    -0.386 OA
ATOM     36  H   UNL     1       4.024  -5.434  30.781  0.00  0.00    +0.210 HD
ENDBRANCH  31  35
BRANCH  30  37
ATOM     37  O   UNL     1       2.877  -7.460  27.104  0.00  0.00    -0.386 OA
ATOM     38  H   UNL     1       3.670  -7.703  26.594  0.00  0.00    +0.210 HD
ENDBRANCH  30  37
BRANCH  29  39
ATOM     39  C   UNL     1       3.332  -5.025  25.444  0.00  0.00    +0.197 C 
BRANCH  39  40
ATOM     40  O   UNL     1       4.073  -4.034  24.719  0.00  0.00    -0.346 OA
BRANCH  40  41
ATOM     41  C   UNL     1       4.617  -4.547  23.495  0.00  0.00    +0.282 C 
ATOM     42  O   UNL     1       5.782  -5.360  23.689  0.00  0.00    -0.341 OA
ATOM     43  C   UNL     1       6.838  -4.880  22.819  0.00  0.00    +0.178 C 
ATOM     44  C   UNL     1       6.210  -3.903  21.820  0.00  0.00    +0.179 C 
ATOM     45  C   UNL     1       5.012  -3.369  22.583  0.00  0.00    +0.201 C 
BRANCH  45  46
ATOM     46  O   UNL     1       5.403  -2.219  23.342  0.00  0.00    -0.384 OA
ATOM     47  H   UNL     1       6.354  -2.092  23.152  0.00  0.00    +0.210 HD
ENDBRANCH  45  46
BRANCH  44  48
ATOM     48  O   UNL     1       5.805  -4.523  20.597  0.00  0.00    -0.386 OA
ATOM     49  H   UNL     1       6.429  -5.227  20.358  0.00  0.00    +0.210 HD
ENDBRANCH  44  48
BRANCH  43  50
ATOM     50  C   UNL     1       7.524  -6.078  22.156  0.00  0.00    +0.190 C 
BRANCH  50  51
ATOM     51  O   UNL     1       8.674  -6.478  22.899  0.00  0.00    -0.392 OA
ATOM     52  H   UNL     1       8.468  -6.298  23.835  0.00  0.00    +0.210 HD
ENDBRANCH  50  51
ENDBRANCH  43  50
ENDBRANCH  40  41
ENDBRANCH  39  40
ENDBRANCH  29  39
ENDBRANCH   1  27
TORSDOF 17
ENDMDL
MODEL 2
REMARK VINA RESULT:      -7.3      1.856      4.072
REMARK  Name = 
REMARK  18 active torsions:
REMARK  status: ('A' for Active; 'I' for Inactive)
REMARK    1  A    between atoms: C_1  and  O_2
REMARK    2  A    between atoms: O_2  and  C_3
REMARK    3  A    between atoms: C_4  and  C_42
REMARK    4  A    between atoms: C_8  and  O_15
REMARK    5  A    between atoms: C_10  and  O_14
REMARK    6  A    between atoms: O_15  and  C_16
REMARK    7  A    between atoms: C_18  and  O_41
REMARK    8  A    between atoms: C_19  and  O_40
REMARK    9  A    between atoms: C_21  and  O_39
REMARK   10  A    between atoms: C_23  and  C_25
REMARK   11  A    between atoms: C_25  and  O_26
REMARK   12  A    between atoms: O_26  and  C_27
REMARK   13  A    between atoms: C_29  and  O_38
REMARK   14  A    between atoms: C_31  and  O_37
REMARK   15  A    between atoms: C_32  and  C_35
REMARK   16  A    between atoms: C_35  and  O_36
REMARK   17  A    between atoms: C_44  and  O_49
REMARK   18  A    between atoms: C_45  and  O_48
REMARK                            x       y       z     vdW  Elec       q    Type
REMARK                         _______ _______ _______ _____ _____    ______ ____
ROOT
ATOM      1  O   UNL     1       3.912  -5.712  22.618  0.00  0.00    -0.461 OA
ENDROOT
BRANCH   1   8
ATOM      2  C   UNL     1       8.482  -1.177  23.321  0.00  0.00    +0.211 A 
ATOM      3  C   UNL     1       8.704  -2.666  23.141  0.00  0.00    +0.238 A 
ATOM      4  O   UNL     1       9.835  -3.140  23.172  0.00  0.00    -0.283 OA
ATOM      5  C   UNL     1       7.503  -3.518  22.982  0.00  0.00    +0.109 A 
ATOM      6  C   UNL     1       6.314  -2.857  22.713  0.00  0.00    +0.147 A 
ATOM      7  C   UNL     1       5.121  -3.562  22.533  0.00  0.00    +0.093 A 
ATOM      8  C   UNL     1       5.063  -4.950  22.687  0.00  0.00    +0.131 A 
ATOM      9  C   UNL     1       6.264  -5.629  22.952  0.00  0.00    +0.092 A 
ATOM     10  O   UNL     1       6.196  -1.495  22.637  0.00  0.00    -0.451 OA
ATOM     11  C   UNL     1       7.472  -4.916  23.094  0.00  0.00    +0.135 A 
ATOM     12  C   UNL     1       7.234  -0.701  23.092  0.00  0.00    +0.181 A 
BRANCH  12  13
ATOM     13  C   UNL     1       6.735   0.679  23.322  0.00  0.00    +0.025 A 
ATOM     14  C   UNL     1       5.911   0.887  24.448  0.00  0.00    +0.015 A 
ATOM     15  C   UNL     1       5.318   2.125  24.698  0.00  0.00    +0.050 A 
ATOM     16  C   UNL     1       5.522   3.162  23.805  0.00  0.00    +0.158 A 
ATOM     17  C   UNL     1       6.324   2.979  22.680  0.00  0.00    +0.159 A 
ATOM     18  C   UNL     1       6.949   1.749  22.435  0.00  0.00    +0.060 A 
BRANCH  17  19
ATOM     19  O   UNL     1       6.434   4.044  21.827  0.00  0.00    -0.503 OA
ATOM     20  H   UNL     1       6.466   3.706  20.916  0.00  0.00    +0.292 HD
ENDBRANCH  17  19
BRANCH  16  21
ATOM     21  O   UNL     1       4.900   4.358  24.025  0.00  0.00    -0.503 OA
ATOM     22  H   UNL     1       4.552   4.297  24.937  0.00  0.00    +0.292 HD
ENDBRANCH  16  21
ENDBRANCH  12  13
BRANCH  11  23
ATOM     23  O   UNL     1       8.598  -5.631  23.367  0.00  0.00    -0.506 OA
ATOM     24  H   UNL     1       9.398  -5.134  23.122  0.00  0.00    +0.292 HD
ENDBRANCH  11  23
BRANCH   2  26
ATOM     25  C   UNL     1       9.776  -0.205  25.095  0.00  0.00    +0.277 C 
ATOM     26  O   UNL     1       9.602  -0.476  23.715  0.00  0.00    -0.488 OA
ENDBRANCH   2  26
ENDBRANCH   1   8
BRANCH   1  27
ATOM     27  C   UNL     1       2.836  -5.264  23.467  0.00  0.00    +0.339 C 
ATOM     28  O   UNL     1       3.214  -5.339  24.849  0.00  0.00    -0.331 OA
ATOM     29  C   UNL     1       3.229  -6.684  25.362  0.00  0.00    +0.179 C 
ATOM     30  C   UNL     1       1.791  -7.233  25.364  0.00  0.00    +0.177 C 
ATOM     31  C   UNL     1       1.263  -7.277  23.923  0.00  0.00    +0.180 C 
ATOM     32  C   UNL     1       1.475  -5.951  23.186  0.00  0.00    +0.214 C 
BRANCH  32  33
ATOM     33  O   UNL     1       1.220  -6.097  21.782  0.00  0.00    -0.383 OA
ATOM     34  H   UNL     1       1.625  -5.332  21.329  0.00  0.00    +0.210 HD
ENDBRANCH  32  33
BRANCH  31  35
ATOM     35  O   UNL     1       1.832  -8.364  23.186  0.00  0.00    -0.386 OA
ATOM     36  H   UNL     1       2.239  -8.012  22.373  0.00  0.00    +0.210 HD
ENDBRANCH  31  35
BRANCH  30  37
ATOM     37  O   UNL     1       0.953  -6.376  26.154  0.00  0.00    -0.386 OA
ATOM     38  H   UNL     1       1.498  -5.641  26.484  0.00  0.00    +0.210 HD
ENDBRANCH  30  37
BRANCH  29  39
ATOM     39  C   UNL     1       3.856  -6.674  26.771  0.00  0.00    +0.197 C 
BRANCH  39  40
ATOM     40  O   UNL     1       5.262  -6.947  26.705  0.00  0.00    -0.346 OA
BRANCH  40  41
ATOM     41  C   UNL     1       6.020  -5.803  26.288  0.00  0.00    +0.282 C 
ATOM     42  O   UNL     1       7.437  -6.021  26.312  0.00  0.00    -0.341 OA
ATOM     43  C   UNL     1       8.063  -4.947  27.056  0.00  0.00    +0.178 C 
ATOM     44  C   UNL     1       7.015  -3.847  27.258  0.00  0.00    +0.179 C 
ATOM     45  C   UNL     1       5.710  -4.620  27.226  0.00  0.00    +0.201 C 
BRANCH  45  46
ATOM     46  O   UNL     1       5.384  -5.064  28.548  0.00  0.00    -0.384 OA
ATOM     47  H   UNL     1       4.851  -5.875  28.427  0.00  0.00    +0.210 HD
ENDBRANCH  45  46
BRANCH  44  48
ATOM     48  O   UNL     1       7.043  -2.843  26.241  0.00  0.00    -0.386 OA
ATOM     49  H   UNL     1       6.310  -2.219  26.369  0.00  0.00    +0.210 HD
ENDBRANCH  44  48
BRANCH  43  50
ATOM     50  C   UNL     1       9.309  -4.474  26.303  0.00  0.00    +0.190 C 
BRANCH  50  51
ATOM     51  O   UNL     1      10.071  -5.586  25.835  0.00  0.00    -0.392 OA
ATOM     52  H   UNL     1      10.672  -5.234  25.152  0.00  0.00    +0.210 HD
ENDBRANCH  50  51
ENDBRANCH  43  50
ENDBRANCH  40  41
ENDBRANCH  39  40
ENDBRANCH  29  39
ENDBRANCH   1  27
TORSDOF 17
ENDMDL
MODEL 3
REMARK VINA RESULT:      -7.1      2.468      8.155
REMARK  Name = 
REMARK  18 active torsions:
REMARK  status: ('A' for Active; 'I' for Inactive)
REMARK    1  A    between atoms: C_1  and  O_2
REMARK    2  A    between atoms: O_2  and  C_3
REMARK    3  A    between atoms: C_4  and  C_42
REMARK    4  A    between atoms: C_8  and  O_15
REMARK    5  A    between atoms: C_10  and  O_14
REMARK    6  A    between atoms: O_15  and  C_16
REMARK    7  A    between atoms: C_18  and  O_41
REMARK    8  A    between atoms: C_19  and  O_40
REMARK    9  A    between atoms: C_21  and  O_39
REMARK   10  A    between atoms: C_23  and  C_25
REMARK   11  A    between atoms: C_25  and  O_26
REMARK   12  A    between atoms: O_26  and  C_27
REMARK   13  A    between atoms: C_29  and  O_38
REMARK   14  A    between atoms: C_31  and  O_37
REMARK   15  A    between atoms: C_32  and  C_35
REMARK   16  A    between atoms: C_35  and  O_36
REMARK   17  A    between atoms: C_44  and  O_49
REMARK   18  A    between atoms: C_45  and  O_48
REMARK                            x       y       z     vdW  Elec       q    Type
REMARK                         _______ _______ _______ _____ _____    ______ ____
ROOT
ATOM      1  O   UNL     1       7.833   0.773  25.410  0.00  0.00    -0.461 OA
ENDROOT
BRANCH   1   8
ATOM      2  C   UNL     1       2.817  -2.986  27.042  0.00  0.00    +0.211 A 
ATOM      3  C   UNL     1       3.315  -1.765  27.790  0.00  0.00    +0.238 A 
ATOM      4  O   UNL     1       2.796  -1.422  28.847  0.00  0.00    -0.283 OA
ATOM      5  C   UNL     1       4.477  -1.044  27.219  0.00  0.00    +0.109 A 
ATOM      6  C   UNL     1       4.816  -1.365  25.913  0.00  0.00    +0.147 A 
ATOM      7  C   UNL     1       5.887  -0.739  25.271  0.00  0.00    +0.093 A 
ATOM      8  C   UNL     1       6.702   0.179  25.939  0.00  0.00    +0.131 A 
ATOM      9  C   UNL     1       6.363   0.515  27.260  0.00  0.00    +0.092 A 
ATOM     10  O   UNL     1       4.174  -2.318  25.168  0.00  0.00    -0.451 OA
ATOM     11  C   UNL     1       5.257  -0.090  27.891  0.00  0.00    +0.135 A 
ATOM     12  C   UNL     1       3.310  -3.198  25.797  0.00  0.00    +0.181 A 
BRANCH  12  13
ATOM     13  C   UNL     1       3.083  -4.376  24.922  0.00  0.00    +0.025 A 
ATOM     14  C   UNL     1       1.837  -4.460  24.266  0.00  0.00    +0.015 A 
ATOM     15  C   UNL     1       1.492  -5.572  23.496  0.00  0.00    +0.050 A 
ATOM     16  C   UNL     1       2.384  -6.626  23.398  0.00  0.00    +0.158 A 
ATOM     17  C   UNL     1       3.617  -6.570  24.045  0.00  0.00    +0.159 A 
ATOM     18  C   UNL     1       3.986  -5.446  24.795  0.00  0.00    +0.060 A 
BRANCH  17  19
ATOM     19  O   UNL     1       4.418  -7.675  23.932  0.00  0.00    -0.503 OA
ATOM     20  H   UNL     1       3.975  -8.316  23.350  0.00  0.00    +0.292 HD
ENDBRANCH  17  19
BRANCH  16  21
ATOM     21  O   UNL     1       2.024  -7.734  22.687  0.00  0.00    -0.503 OA
ATOM     22  H   UNL     1       1.080  -7.874  22.898  0.00  0.00    +0.292 HD
ENDBRANCH  16  21
ENDBRANCH  12  13
BRANCH  11  23
ATOM     23  O   UNL     1       4.991   0.266  29.177  0.00  0.00    -0.506 OA
ATOM     24  H   UNL     1       4.414   1.050  29.213  0.00  0.00    +0.292 HD
ENDBRANCH  11  23
BRANCH   2  26
ATOM     25  C   UNL     1       2.393  -4.881  28.454  0.00  0.00    +0.277 C 
ATOM     26  O   UNL     1       1.911  -3.755  27.741  0.00  0.00    -0.488 OA
ENDBRANCH   2  26
ENDBRANCH   1   8
BRANCH   1  27
ATOM     27  C   UNL     1       7.634   1.440  24.147  0.00  0.00    +0.339 C 
ATOM     28  O   UNL     1       7.658   0.497  23.066  0.00  0.00    -0.331 OA
ATOM     29  C   UNL     1       8.982   0.026  22.752  0.00  0.00    +0.179 C 
ATOM     30  C   UNL     1       9.815   1.201  22.209  0.00  0.00    +0.177 C 
ATOM     31  C   UNL     1       9.936   2.280  23.294  0.00  0.00    +0.180 C 
ATOM     32  C   UNL     1       8.580   2.644  23.906  0.00  0.00    +0.214 C 
BRANCH  32  33
ATOM     33  O   UNL     1       8.745   3.448  25.082  0.00  0.00    -0.383 OA
ATOM     34  H   UNL     1       8.664   2.857  25.856  0.00  0.00    +0.210 HD
ENDBRANCH  32  33
BRANCH  31  35
ATOM     35  O   UNL     1      10.867   1.901  24.314  0.00  0.00    -0.386 OA
ATOM     36  H   UNL     1      11.771   1.997  23.962  0.00  0.00    +0.210 HD
ENDBRANCH  31  35
BRANCH  30  37
ATOM     37  O   UNL     1       9.165   1.755  21.056  0.00  0.00    -0.386 OA
ATOM     38  H   UNL     1       9.774   1.678  20.300  0.00  0.00    +0.210 HD
ENDBRANCH  30  37
BRANCH  29  39
ATOM     39  C   UNL     1       8.873  -1.133  21.741  0.00  0.00    +0.197 C 
BRANCH  39  40
ATOM     40  O   UNL     1       9.477  -2.324  22.264  0.00  0.00    -0.346 OA
BRANCH  40  41
ATOM     41  C   UNL     1       8.947  -2.686  23.547  0.00  0.00    +0.282 C 
ATOM     42  O   UNL     1       9.818  -3.538  24.302  0.00  0.00    -0.341 OA
ATOM     43  C   UNL     1       9.068  -4.694  24.752  0.00  0.00    +0.178 C 
ATOM     44  C   UNL     1       7.582  -4.405  24.515  0.00  0.00    +0.179 C 
ATOM     45  C   UNL     1       7.612  -3.432  23.352  0.00  0.00    +0.201 C 
BRANCH  45  46
ATOM     46  O   UNL     1       7.587  -4.159  22.118  0.00  0.00    -0.384 OA
ATOM     47  H   UNL     1       8.448  -3.976  21.690  0.00  0.00    +0.210 HD
ENDBRANCH  45  46
BRANCH  44  48
ATOM     48  O   UNL     1       6.927  -3.832  25.648  0.00  0.00    -0.386 OA
ATOM     49  H   UNL     1       7.100  -2.878  25.686  0.00  0.00    +0.210 HD
ENDBRANCH  44  48
BRANCH  43  50
ATOM     50  C   UNL     1       9.411  -4.975  26.217  0.00  0.00    +0.190 C 
BRANCH  50  51
ATOM     51  O   UNL     1       8.440  -5.835  26.810  0.00  0.00    -0.392 OA
ATOM     52  H   UNL     1       7.642  -5.291  26.944  0.00  0.00    +0.210 HD
ENDBRANCH  50  51
ENDBRANCH  43  50
ENDBRANCH  40  41
ENDBRANCH  39  40
ENDBRANCH  29  39
ENDBRANCH   1  27
TORSDOF 17
ENDMDL
MODEL 4
REMARK VINA RESULT:      -7.0      2.243      4.418
REMARK  Name = 
REMARK  18 active torsions:
REMARK  status: ('A' for Active; 'I' for Inactive)
REMARK    1  A    between atoms: C_1  and  O_2
REMARK    2  A    between atoms: O_2  and  C_3
REMARK    3  A    between atoms: C_4  and  C_42
REMARK    4  A    between atoms: C_8  and  O_15
REMARK    5  A    between atoms: C_10  and  O_14
REMARK    6  A    between atoms: O_15  and  C_16
REMARK    7  A    between atoms: C_18  and  O_41
REMARK    8  A    between atoms: C_19  and  O_40
REMARK    9  A    between atoms: C_21  and  O_39
REMARK   10  A    between atoms: C_23  and  C_25
REMARK   11  A    between atoms: C_25  and  O_26
REMARK   12  A    between atoms: O_26  and  C_27
REMARK   13  A    between atoms: C_29  and  O_38
REMARK   14  A    between atoms: C_31  and  O_37
REMARK   15  A    between atoms: C_32  and  C_35
REMARK   16  A    between atoms: C_35  and  O_36
REMARK   17  A    between atoms: C_44  and  O_49
REMARK   18  A    between atoms: C_45  and  O_48
REMARK                            x       y       z     vdW  Elec       q    Type
REMARK                         _______ _______ _______ _____ _____    ______ ____
ROOT
ATOM      1  O   UNL     1       4.496  -5.704  22.615  0.00  0.00    -0.461 OA
ENDROOT
BRANCH   1   8
ATOM      2  C   UNL     1       8.917  -1.034  23.384  0.00  0.00    +0.211 A 
ATOM      3  C   UNL     1       9.147  -2.527  23.506  0.00  0.00    +0.238 A 
ATOM      4  O   UNL     1      10.245  -2.969  23.830  0.00  0.00    -0.283 OA
ATOM      5  C   UNL     1       7.985  -3.416  23.271  0.00  0.00    +0.109 A 
ATOM      6  C   UNL     1       6.878  -2.831  22.674  0.00  0.00    +0.147 A 
ATOM      7  C   UNL     1       5.730  -3.578  22.395  0.00  0.00    +0.093 A 
ATOM      8  C   UNL     1       5.624  -4.921  22.769  0.00  0.00    +0.131 A 
ATOM      9  C   UNL     1       6.744  -5.523  23.367  0.00  0.00    +0.092 A 
ATOM     10  O   UNL     1       6.796  -1.504  22.346  0.00  0.00    -0.451 OA
ATOM     11  C   UNL     1       7.914  -4.775  23.612  0.00  0.00    +0.135 A 
ATOM     12  C   UNL     1       7.742  -0.626  22.847  0.00  0.00    +0.181 A 
BRANCH  12  13
ATOM     13  C   UNL     1       7.228   0.763  22.740  0.00  0.00    +0.025 A 
ATOM     14  C   UNL     1       7.812   1.592  21.758  0.00  0.00    +0.015 A 
ATOM     15  C   UNL     1       7.464   2.939  21.640  0.00  0.00    +0.050 A 
ATOM     16  C   UNL     1       6.546   3.476  22.525  0.00  0.00    +0.158 A 
ATOM     17  C   UNL     1       5.963   2.681  23.509  0.00  0.00    +0.159 A 
ATOM     18  C   UNL     1       6.282   1.321  23.618  0.00  0.00    +0.060 A 
BRANCH  17  19
ATOM     19  O   UNL     1       5.101   3.306  24.370  0.00  0.00    -0.503 OA
ATOM     20  H   UNL     1       5.211   4.267  24.270  0.00  0.00    +0.292 HD
ENDBRANCH  17  19
BRANCH  16  21
ATOM     21  O   UNL     1       6.245   4.806  22.440  0.00  0.00    -0.503 OA
ATOM     22  H   UNL     1       5.551   4.864  21.753  0.00  0.00    +0.292 HD
ENDBRANCH  16  21
ENDBRANCH  12  13
BRANCH  11  23
ATOM     23  O   UNL     1       8.957  -5.413  24.210  0.00  0.00    -0.506 OA
ATOM     24  H   UNL     1       8.766  -5.597  25.147  0.00  0.00    +0.292 HD
ENDBRANCH  11  23
BRANCH   2  26
ATOM     25  C   UNL     1       9.884   0.218  25.192  0.00  0.00    +0.277 C 
ATOM     26  O   UNL     1       9.952  -0.255  23.857  0.00  0.00    -0.488 OA
ENDBRANCH   2  26
ENDBRANCH   1   8
BRANCH   1  27
ATOM     27  C   UNL     1       3.328  -5.230  23.316  0.00  0.00    +0.339 C 
ATOM     28  O   UNL     1       3.686  -4.702  24.601  0.00  0.00    -0.331 OA
ATOM     29  C   UNL     1       4.006  -5.722  25.565  0.00  0.00    +0.179 C 
ATOM     30  C   UNL     1       2.739  -6.541  25.866  0.00  0.00    +0.177 C 
ATOM     31  C   UNL     1       2.265  -7.232  24.579  0.00  0.00    +0.180 C 
ATOM     32  C   UNL     1       2.173  -6.261  23.398  0.00  0.00    +0.214 C 
BRANCH  32  33
ATOM     33  O   UNL     1       1.988  -6.968  22.164  0.00  0.00    -0.383 OA
ATOM     34  H   UNL     1       2.417  -7.840  22.257  0.00  0.00    +0.210 HD
ENDBRANCH  32  33
BRANCH  31  35
ATOM     35  O   UNL     1       3.089  -8.356  24.249  0.00  0.00    -0.386 OA
ATOM     36  H   UNL     1       3.559  -8.645  25.052  0.00  0.00    +0.210 HD
ENDBRANCH  31  35
BRANCH  30  37
ATOM     37  O   UNL     1       1.707  -5.667  26.346  0.00  0.00    -0.386 OA
ATOM     38  H   UNL     1       0.847  -6.092  26.177  0.00  0.00    +0.210 HD
ENDBRANCH  30  37
BRANCH  29  39
ATOM     39  C   UNL     1       4.585  -5.051  26.827  0.00  0.00    +0.197 C 
BRANCH  39  40
ATOM     40  O   UNL     1       3.991  -3.764  27.039  0.00  0.00    -0.346 OA
BRANCH  40  41
ATOM     41  C   UNL     1       4.950  -2.782  27.456  0.00  0.00    +0.282 C 
ATOM     42  O   UNL     1       4.408  -1.803  28.352  0.00  0.00    -0.341 OA
ATOM     43  C   UNL     1       4.727  -0.481  27.849  0.00  0.00    +0.178 C 
ATOM     44  C   UNL     1       5.771  -0.645  26.740  0.00  0.00    +0.179 C 
ATOM     45  C   UNL     1       5.487  -2.040  26.217  0.00  0.00    +0.201 C 
BRANCH  45  46
ATOM     46  O   UNL     1       4.507  -1.970  25.175  0.00  0.00    -0.384 OA
ATOM     47  H   UNL     1       4.581  -1.067  24.807  0.00  0.00    +0.210 HD
ENDBRANCH  45  46
BRANCH  44  48
ATOM     48  O   UNL     1       7.117  -0.535  27.206  0.00  0.00    -0.386 OA
ATOM     49  H   UNL     1       7.141  -0.047  28.045  0.00  0.00    +0.210 HD
ENDBRANCH  44  48
BRANCH  43  50
ATOM     50  C   UNL     1       5.199   0.397  29.011  0.00  0.00    +0.190 C 
BRANCH  50  51
ATOM     51  O   UNL     1       5.732   1.629  28.531  0.00  0.00    -0.392 OA
ATOM     52  H   UNL     1       6.467   1.393  27.934  0.00  0.00    +0.210 HD
ENDBRANCH  50  51
ENDBRANCH  43  50
ENDBRANCH  40  41
ENDBRANCH  39  40
ENDBRANCH  29  39
ENDBRANCH   1  27
TORSDOF 17
ENDMDL
MODEL 5
REMARK VINA RESULT:      -7.0      2.388      8.015
REMARK  Name = 
REMARK  18 active torsions:
REMARK  status: ('A' for Active; 'I' for Inactive)
REMARK    1  A    between atoms: C_1  and  O_2
REMARK    2  A    between atoms: O_2  and  C_3
REMARK    3  A    between atoms: C_4  and  C_42
REMARK    4  A    between atoms: C_8  and  O_15
REMARK    5  A    between atoms: C_10  and  O_14
REMARK    6  A    between atoms: O_15  and  C_16
REMARK    7  A    between atoms: C_18  and  O_41
REMARK    8  A    between atoms: C_19  and  O_40
REMARK    9  A    between atoms: C_21  and  O_39
REMARK   10  A    between atoms: C_23  and  C_25
REMARK   11  A    between atoms: C_25  and  O_26
REMARK   12  A    between atoms: O_26  and  C_27
REMARK   13  A    between atoms: C_29  and  O_38
REMARK   14  A    between atoms: C_31  and  O_37
REMARK   15  A    between atoms: C_32  and  C_35
REMARK   16  A    between atoms: C_35  and  O_36
REMARK   17  A    between atoms: C_44  and  O_49
REMARK   18  A    between atoms: C_45  and  O_48
REMARK                            x       y       z     vdW  Elec       q    Type
REMARK                         _______ _______ _______ _____ _____    ______ ____
ROOT
ATOM      1  O   UNL     1       7.337   1.595  24.079  0.00  0.00    -0.461 OA
ENDROOT
BRANCH   1   8
ATOM      2  C   UNL     1       3.420  -1.780  27.980  0.00  0.00    +0.211 A 
ATOM      3  C   UNL     1       3.297  -0.312  27.623  0.00  0.00    +0.238 A 
ATOM      4  O   UNL     1       2.420   0.384  28.124  0.00  0.00    -0.283 OA
ATOM      5  C   UNL     1       4.304   0.249  26.692  0.00  0.00    +0.109 A 
ATOM      6  C   UNL     1       5.080  -0.671  26.003  0.00  0.00    +0.147 A 
ATOM      7  C   UNL     1       6.053  -0.255  25.091  0.00  0.00    +0.093 A 
ATOM      8  C   UNL     1       6.333   1.100  24.890  0.00  0.00    +0.131 A 
ATOM      9  C   UNL     1       5.546   2.039  25.577  0.00  0.00    +0.092 A 
ATOM     10  O   UNL     1       4.992  -2.027  26.174  0.00  0.00    -0.451 OA
ATOM     11  C   UNL     1       4.538   1.614  26.468  0.00  0.00    +0.135 A 
ATOM     12  C   UNL     1       4.287  -2.527  27.255  0.00  0.00    +0.181 A 
BRANCH  12  13
ATOM     13  C   UNL     1       4.681  -3.940  27.489  0.00  0.00    +0.025 A 
ATOM     14  C   UNL     1       3.646  -4.860  27.760  0.00  0.00    +0.015 A 
ATOM     15  C   UNL     1       3.921  -6.190  28.085  0.00  0.00    +0.050 A 
ATOM     16  C   UNL     1       5.239  -6.605  28.166  0.00  0.00    +0.158 A 
ATOM     17  C   UNL     1       6.278  -5.712  27.912  0.00  0.00    +0.159 A 
ATOM     18  C   UNL     1       6.013  -4.383  27.556  0.00  0.00    +0.060 A 
BRANCH  17  19
ATOM     19  O   UNL     1       7.550  -6.196  28.061  0.00  0.00    -0.503 OA
ATOM     20  H   UNL     1       7.500  -7.058  28.507  0.00  0.00    +0.292 HD
ENDBRANCH  17  19
BRANCH  16  21
ATOM     21  O   UNL     1       5.505  -7.892  28.533  0.00  0.00    -0.503 OA
ATOM     22  H   UNL     1       6.365  -7.850  28.998  0.00  0.00    +0.292 HD
ENDBRANCH  16  21
ENDBRANCH  12  13
BRANCH  11  23
ATOM     23  O   UNL     1       3.823   2.573  27.115  0.00  0.00    -0.506 OA
ATOM     24  H   UNL     1       2.913   2.274  27.292  0.00  0.00    +0.292 HD
ENDBRANCH  11  23
BRANCH   2  26
ATOM     25  C   UNL     1       3.177  -2.173  30.337  0.00  0.00    +0.277 C 
ATOM     26  O   UNL     1       2.624  -2.181  29.032  0.00  0.00    -0.488 OA
ENDBRANCH   2  26
ENDBRANCH   1   8
BRANCH   1  27
ATOM     27  C   UNL     1       7.356   1.058  22.740  0.00  0.00    +0.339 C 
ATOM     28  O   UNL     1       7.520  -0.367  22.767  0.00  0.00    -0.331 OA
ATOM     29  C   UNL     1       8.862  -0.779  23.087  0.00  0.00    +0.179 C 
ATOM     30  C   UNL     1       9.803  -0.340  21.951  0.00  0.00    +0.177 C 
ATOM     31  C   UNL     1       9.787   1.191  21.842  0.00  0.00    +0.180 C 
ATOM     32  C   UNL     1       8.363   1.754  21.790  0.00  0.00    +0.214 C 
BRANCH  32  33
ATOM     33  O   UNL     1       8.367   3.179  21.953  0.00  0.00    -0.383 OA
ATOM     34  H   UNL     1       9.036   3.543  21.341  0.00  0.00    +0.210 HD
ENDBRANCH  32  33
BRANCH  31  35
ATOM     35  O   UNL     1      10.537   1.804  22.896  0.00  0.00    -0.386 OA
ATOM     36  H   UNL     1      11.185   2.416  22.503  0.00  0.00    +0.210 HD
ENDBRANCH  31  35
BRANCH  30  37
ATOM     37  O   UNL     1       9.358  -0.912  20.713  0.00  0.00    -0.386 OA
ATOM     38  H   UNL     1       8.938  -0.208  20.187  0.00  0.00    +0.210 HD
ENDBRANCH  30  37
BRANCH  29  39
ATOM     39  C   UNL     1       8.877  -2.305  23.306  0.00  0.00    +0.197 C 
BRANCH  39  40
ATOM     40  O   UNL     1       7.862  -2.943  22.520  0.00  0.00    -0.346 OA
BRANCH  40  41
ATOM     41  C   UNL     1       6.767  -3.413  23.319  0.00  0.00    +0.282 C 
ATOM     42  O   UNL     1       6.865  -4.803  23.655  0.00  0.00    -0.341 OA
ATOM     43  C   UNL     1       5.618  -5.456  23.307  0.00  0.00    +0.178 C 
ATOM     44  C   UNL     1       4.587  -4.363  23.010  0.00  0.00    +0.179 C 
ATOM     45  C   UNL     1       5.451  -3.206  22.546  0.00  0.00    +0.201 C 
BRANCH  45  46
ATOM     46  O   UNL     1       5.648  -3.294  21.130  0.00  0.00    -0.384 OA
ATOM     47  H   UNL     1       6.259  -4.046  20.998  0.00  0.00    +0.210 HD
ENDBRANCH  45  46
BRANCH  44  48
ATOM     48  O   UNL     1       3.804  -3.996  24.149  0.00  0.00    -0.386 OA
ATOM     49  H   UNL     1       4.201  -3.229  24.593  0.00  0.00    +0.210 HD
ENDBRANCH  44  48
BRANCH  43  50
ATOM     50  C   UNL     1       5.208  -6.393  24.447  0.00  0.00    +0.190 C 
BRANCH  50  51
ATOM     51  O   UNL     1       4.446  -7.492  23.951  0.00  0.00    -0.392 OA
ATOM     52  H   UNL     1       4.176  -7.248  23.047  0.00  0.00    +0.210 HD
ENDBRANCH  50  51
ENDBRANCH  43  50
ENDBRANCH  40  41
ENDBRANCH  39  40
ENDBRANCH  29  39
ENDBRANCH   1  27
TORSDOF 17
ENDMDL
MODEL 6
REMARK VINA RESULT:      -7.0      2.347      7.891
REMARK  Name = 
REMARK  18 active torsions:
REMARK  status: ('A' for Active; 'I' for Inactive)
REMARK    1  A    between atoms: C_1  and  O_2
REMARK    2  A    between atoms: O_2  and  C_3
REMARK    3  A    between atoms: C_4  and  C_42
REMARK    4  A    between atoms: C_8  and  O_15
REMARK    5  A    between atoms: C_10  and  O_14
REMARK    6  A    between atoms: O_15  and  C_16
REMARK    7  A    between atoms: C_18  and  O_41
REMARK    8  A    between atoms: C_19  and  O_40
REMARK    9  A    between atoms: C_21  and  O_39
REMARK   10  A    between atoms: C_23  and  C_25
REMARK   11  A    between atoms: C_25  and  O_26
REMARK   12  A    between atoms: O_26  and  C_27
REMARK   13  A    between atoms: C_29  and  O_38
REMARK   14  A    between atoms: C_31  and  O_37
REMARK   15  A    between atoms: C_32  and  C_35
REMARK   16  A    between atoms: C_35  and  O_36
REMARK   17  A    between atoms: C_44  and  O_49
REMARK   18  A    between atoms: C_45  and  O_48
REMARK                            x       y       z     vdW  Elec       q    Type
REMARK                         _______ _______ _______ _____ _____    ______ ____
ROOT
ATOM      1  O   UNL     1       5.211   1.865  25.945  0.00  0.00    -0.461 OA
ENDROOT
BRANCH   1   8
ATOM      2  C   UNL     1       7.185  -4.303  26.024  0.00  0.00    +0.211 A 
ATOM      3  C   UNL     1       7.919  -3.110  26.604  0.00  0.00    +0.238 A 
ATOM      4  O   UNL     1       9.028  -3.241  27.111  0.00  0.00    -0.283 OA
ATOM      5  C   UNL     1       7.266  -1.785  26.483  0.00  0.00    +0.109 A 
ATOM      6  C   UNL     1       5.926  -1.794  26.126  0.00  0.00    +0.147 A 
ATOM      7  C   UNL     1       5.206  -0.603  25.995  0.00  0.00    +0.093 A 
ATOM      8  C   UNL     1       5.823   0.642  26.147  0.00  0.00    +0.131 A 
ATOM      9  C   UNL     1       7.178   0.660  26.516  0.00  0.00    +0.092 A 
ATOM     10  O   UNL     1       5.216  -2.930  25.845  0.00  0.00    -0.451 OA
ATOM     11  C   UNL     1       7.890  -0.545  26.685  0.00  0.00    +0.135 A 
ATOM     12  C   UNL     1       5.896  -4.120  25.651  0.00  0.00    +0.181 A 
BRANCH  12  13
ATOM     13  C   UNL     1       5.012  -5.083  24.946  0.00  0.00    +0.025 A 
ATOM     14  C   UNL     1       4.401  -4.642  23.753  0.00  0.00    +0.015 A 
ATOM     15  C   UNL     1       3.482  -5.439  23.067  0.00  0.00    +0.050 A 
ATOM     16  C   UNL     1       3.145  -6.677  23.587  0.00  0.00    +0.158 A 
ATOM     17  C   UNL     1       3.728  -7.130  24.769  0.00  0.00    +0.159 A 
ATOM     18  C   UNL     1       4.674  -6.351  25.449  0.00  0.00    +0.060 A 
BRANCH  17  19
ATOM     19  O   UNL     1       3.302  -8.345  25.234  0.00  0.00    -0.503 OA
ATOM     20  H   UNL     1       3.770  -9.042  24.745  0.00  0.00    +0.292 HD
ENDBRANCH  17  19
BRANCH  16  21
ATOM     21  O   UNL     1       2.209  -7.432  22.942  0.00  0.00    -0.503 OA
ATOM     22  H   UNL     1       2.716  -7.972  22.303  0.00  0.00    +0.292 HD
ENDBRANCH  16  21
ENDBRANCH  12  13
BRANCH  11  23
ATOM     23  O   UNL     1       9.205  -0.459  27.026  0.00  0.00    -0.506 OA
ATOM     24  H   UNL     1       9.680   0.157  26.441  0.00  0.00    +0.292 HD
ENDBRANCH  11  23
BRANCH   2  26
ATOM     25  C   UNL     1       8.839  -5.587  24.847  0.00  0.00    +0.277 C 
ATOM     26  O   UNL     1       7.943  -5.452  25.937  0.00  0.00    -0.488 OA
ENDBRANCH   2  26
ENDBRANCH   1   8
BRANCH   1  27
ATOM     27  C   UNL     1       4.821   2.130  24.581  0.00  0.00    +0.339 C 
ATOM     28  O   UNL     1       5.956   2.068  23.707  0.00  0.00    -0.331 OA
ATOM     29  C   UNL     1       6.820   3.214  23.816  0.00  0.00    +0.179 C 
ATOM     30  C   UNL     1       6.064   4.459  23.318  0.00  0.00    +0.177 C 
ATOM     31  C   UNL     1       4.839   4.698  24.211  0.00  0.00    +0.180 C 
ATOM     32  C   UNL     1       3.999   3.431  24.396  0.00  0.00    +0.214 C 
BRANCH  32  33
ATOM     33  O   UNL     1       3.022   3.607  25.431  0.00  0.00    -0.383 OA
ATOM     34  H   UNL     1       3.392   4.235  26.081  0.00  0.00    +0.210 HD
ENDBRANCH  32  33
BRANCH  31  35
ATOM     35  O   UNL     1       5.209   5.251  25.479  0.00  0.00    -0.386 OA
ATOM     36  H   UNL     1       6.080   5.679  25.391  0.00  0.00    +0.210 HD
ENDBRANCH  31  35
BRANCH  30  37
ATOM     37  O   UNL     1       5.636   4.249  21.965  0.00  0.00    -0.386 OA
ATOM     38  H   UNL     1       4.663   4.204  21.959  0.00  0.00    +0.210 HD
ENDBRANCH  30  37
BRANCH  29  39
ATOM     39  C   UNL     1       8.108   2.948  23.010  0.00  0.00    +0.197 C 
BRANCH  39  40
ATOM     40  O   UNL     1       8.924   1.966  23.663  0.00  0.00    -0.346 OA
BRANCH  40  41
ATOM     41  C   UNL     1       9.088   0.780  22.872  0.00  0.00    +0.282 C 
ATOM     42  O   UNL     1       8.064  -0.198  23.095  0.00  0.00    -0.341 OA
ATOM     43  C   UNL     1       8.690  -1.474  23.377  0.00  0.00    +0.178 C 
ATOM     44  C   UNL     1      10.176  -1.353  23.024  0.00  0.00    +0.179 C 
ATOM     45  C   UNL     1      10.443   0.129  23.211  0.00  0.00    +0.201 C 
BRANCH  45  46
ATOM     46  O   UNL     1      10.826   0.378  24.568  0.00  0.00    -0.384 OA
ATOM     47  H   UNL     1      10.512  -0.397  25.074  0.00  0.00    +0.210 HD
ENDBRANCH  45  46
BRANCH  44  48
ATOM     48  O   UNL     1      10.478  -1.765  21.689  0.00  0.00    -0.386 OA
ATOM     49  H   UNL     1       9.706  -1.632  21.116  0.00  0.00    +0.210 HD
ENDBRANCH  44  48
BRANCH  43  50
ATOM     50  C   UNL     1       7.963  -2.572  22.596  0.00  0.00    +0.190 C 
BRANCH  50  51
ATOM     51  O   UNL     1       6.577  -2.265  22.460  0.00  0.00    -0.392 OA
ATOM     52  H   UNL     1       6.533  -1.333  22.176  0.00  0.00    +0.210 HD
ENDBRANCH  50  51
ENDBRANCH  43  50
ENDBRANCH  40  41
ENDBRANCH  39  40
ENDBRANCH  29  39
ENDBRANCH   1  27
TORSDOF 17
ENDMDL
MODEL 7
REMARK VINA RESULT:      -6.9      2.334      8.056
REMARK  Name = 
REMARK  18 active torsions:
REMARK  status: ('A' for Active; 'I' for Inactive)
REMARK    1  A    between atoms: C_1  and  O_2
REMARK    2  A    between atoms: O_2  and  C_3
REMARK    3  A    between atoms: C_4  and  C_42
REMARK    4  A    between atoms: C_8  and  O_15
REMARK    5  A    between atoms: C_10  and  O_14
REMARK    6  A    between atoms: O_15  and  C_16
REMARK    7  A    between atoms: C_18  and  O_41
REMARK    8  A    between atoms: C_19  and  O_40
REMARK    9  A    between atoms: C_21  and  O_39
REMARK   10  A    between atoms: C_23  and  C_25
REMARK   11  A    between atoms: C_25  and  O_26
REMARK   12  A    between atoms: O_26  and  C_27
REMARK   13  A    between atoms: C_29  and  O_38
REMARK   14  A    between atoms: C_31  and  O_37
REMARK   15  A    between atoms: C_32  and  C_35
REMARK   16  A    between atoms: C_35  and  O_36
REMARK   17  A    between atoms: C_44  and  O_49
REMARK   18  A    between atoms: C_45  and  O_48
REMARK                            x       y       z     vdW  Elec       q    Type
REMARK                         _______ _______ _______ _____ _____    ______ ____
ROOT
ATOM      1  O   UNL     1       7.181   1.290  24.375  0.00  0.00    -0.461 OA
ENDROOT
BRANCH   1   8
ATOM      2  C   UNL     1       3.730  -2.990  27.799  0.00  0.00    +0.211 A 
ATOM      3  C   UNL     1       4.267  -1.660  28.290  0.00  0.00    +0.238 A 
ATOM      4  O   UNL     1       4.115  -1.314  29.456  0.00  0.00    -0.283 OA
ATOM      5  C   UNL     1       5.021  -0.831  27.320  0.00  0.00    +0.109 A 
ATOM      6  C   UNL     1       4.914  -1.198  25.987  0.00  0.00    +0.147 A 
ATOM      7  C   UNL     1       5.573  -0.480  24.986  0.00  0.00    +0.093 A 
ATOM      8  C   UNL     1       6.421   0.588  25.292  0.00  0.00    +0.131 A 
ATOM      9  C   UNL     1       6.530   0.972  26.639  0.00  0.00    +0.092 A 
ATOM     10  O   UNL     1       4.205  -2.283  25.547  0.00  0.00    -0.451 OA
ATOM     11  C   UNL     1       5.831   0.268  27.642  0.00  0.00    +0.135 A 
ATOM     12  C   UNL     1       3.771  -3.224  26.465  0.00  0.00    +0.181 A 
BRANCH  12  13
ATOM     13  C   UNL     1       3.431  -4.484  25.756  0.00  0.00    +0.025 A 
ATOM     14  C   UNL     1       3.927  -5.686  26.304  0.00  0.00    +0.015 A 
ATOM     15  C   UNL     1       3.740  -6.911  25.662  0.00  0.00    +0.050 A 
ATOM     16  C   UNL     1       3.078  -6.941  24.447  0.00  0.00    +0.158 A 
ATOM     17  C   UNL     1       2.588  -5.766  23.881  0.00  0.00    +0.159 A 
ATOM     18  C   UNL     1       2.743  -4.535  24.531  0.00  0.00    +0.060 A 
BRANCH  17  19
ATOM     19  O   UNL     1       1.987  -5.882  22.656  0.00  0.00    -0.503 OA
ATOM     20  H   UNL     1       1.047  -6.088  22.794  0.00  0.00    +0.292 HD
ENDBRANCH  17  19
BRANCH  16  21
ATOM     21  O   UNL     1       2.941  -8.134  23.797  0.00  0.00    -0.503 OA
ATOM     22  H   UNL     1       2.493  -8.721  24.438  0.00  0.00    +0.292 HD
ENDBRANCH  16  21
ENDBRANCH  12  13
BRANCH  11  23
ATOM     23  O   UNL     1       5.992   0.679  28.929  0.00  0.00    -0.506 OA
ATOM     24  H   UNL     1       6.933   0.819  29.139  0.00  0.00    +0.292 HD
ENDBRANCH  11  23
BRANCH   2  26
ATOM     25  C   UNL     1       1.868  -3.892  29.017  0.00  0.00    +0.277 C 
ATOM     26  O   UNL     1       3.266  -3.822  28.796  0.00  0.00    -0.488 OA
ENDBRANCH   2  26
ENDBRANCH   1   8
BRANCH   1  27
ATOM     27  C   UNL     1       7.170   0.750  23.038  0.00  0.00    +0.339 C 
ATOM     28  O   UNL     1       7.892  -0.488  22.984  0.00  0.00    -0.331 OA
ATOM     29  C   UNL     1       9.321  -0.315  23.039  0.00  0.00    +0.179 C 
ATOM     30  C   UNL     1       9.785   0.416  21.766  0.00  0.00    +0.177 C 
ATOM     31  C   UNL     1       9.137   1.806  21.715  0.00  0.00    +0.180 C 
ATOM     32  C   UNL     1       7.623   1.751  21.944  0.00  0.00    +0.214 C 
BRANCH  32  33
ATOM     33  O   UNL     1       7.086   3.064  22.153  0.00  0.00    -0.383 OA
ATOM     34  H   UNL     1       7.747   3.707  21.831  0.00  0.00    +0.210 HD
ENDBRANCH  32  33
BRANCH  31  35
ATOM     35  O   UNL     1       9.756   2.712  22.635  0.00  0.00    -0.386 OA
ATOM     36  H   UNL     1      10.508   3.143  22.190  0.00  0.00    +0.210 HD
ENDBRANCH  31  35
BRANCH  30  37
ATOM     37  O   UNL     1       9.389  -0.338  20.611  0.00  0.00    -0.386 OA
ATOM     38  H   UNL     1       8.651   0.130  20.182  0.00  0.00    +0.210 HD
ENDBRANCH  30  37
BRANCH  29  39
ATOM     39  C   UNL     1       9.985  -1.697  23.198  0.00  0.00    +0.197 C 
BRANCH  39  40
ATOM     40  O   UNL     1       9.887  -2.157  24.553  0.00  0.00    -0.346 OA
BRANCH  40  41
ATOM     41  C   UNL     1       9.234  -3.431  24.650  0.00  0.00    +0.282 C 
ATOM     42  O   UNL     1       8.215  -3.623  23.660  0.00  0.00    -0.341 OA
ATOM     43  C   UNL     1       6.995  -4.042  24.322  0.00  0.00    +0.178 C 
ATOM     44  C   UNL     1       7.351  -4.412  25.765  0.00  0.00    +0.179 C 
ATOM     45  C   UNL     1       8.575  -3.558  26.037  0.00  0.00    +0.201 C 
BRANCH  45  46
ATOM     46  O   UNL     1       8.166  -2.284  26.547  0.00  0.00    -0.384 OA
ATOM     47  H   UNL     1       7.620  -2.481  27.335  0.00  0.00    +0.210 HD
ENDBRANCH  45  46
BRANCH  44  48
ATOM     48  O   UNL     1       7.644  -5.800  25.940  0.00  0.00    -0.386 OA
ATOM     49  H   UNL     1       8.490  -6.018  25.518  0.00  0.00    +0.210 HD
ENDBRANCH  44  48
BRANCH  43  50
ATOM     50  C   UNL     1       6.366  -5.193  23.532  0.00  0.00    +0.190 C 
BRANCH  50  51
ATOM     51  O   UNL     1       7.354  -5.887  22.773  0.00  0.00    -0.392 OA
ATOM     52  H   UNL     1       7.806  -5.211  22.235  0.00  0.00    +0.210 HD
ENDBRANCH  50  51
ENDBRANCH  43  50
ENDBRANCH  40  41
ENDBRANCH  39  40
ENDBRANCH  29  39
ENDBRANCH   1  27
TORSDOF 17
ENDMDL
MODEL 8
REMARK VINA RESULT:      -6.9      2.489      4.581
REMARK  Name = 
REMARK  18 active torsions:
REMARK  status: ('A' for Active; 'I' for Inactive)
REMARK    1  A    between atoms: C_1  and  O_2
REMARK    2  A    between atoms: O_2  and  C_3
REMARK    3  A    between atoms: C_4  and  C_42
REMARK    4  A    between atoms: C_8  and  O_15
REMARK    5  A    between atoms: C_10  and  O_14
REMARK    6  A    between atoms: O_15  and  C_16
REMARK    7  A    between atoms: C_18  and  O_41
REMARK    8  A    between atoms: C_19  and  O_40
REMARK    9  A    between atoms: C_21  and  O_39
REMARK   10  A    between atoms: C_23  and  C_25
REMARK   11  A    between atoms: C_25  and  O_26
REMARK   12  A    between atoms: O_26  and  C_27
REMARK   13  A    between atoms: C_29  and  O_38
REMARK   14  A    between atoms: C_31  and  O_37
REMARK   15  A    between atoms: C_32  and  C_35
REMARK   16  A    between atoms: C_35  and  O_36
REMARK   17  A    between atoms: C_44  and  O_49
REMARK   18  A    between atoms: C_45  and  O_48
REMARK                            x       y       z     vdW  Elec       q    Type
REMARK                         _______ _______ _______ _____ _____    ______ ____
ROOT
ATOM      1  O   UNL     1       2.623  -3.562  25.373  0.00  0.00    -0.461 OA
ENDROOT
BRANCH   1   8
ATOM      2  C   UNL     1       6.860   1.060  26.997  0.00  0.00    +0.211 A 
ATOM      3  C   UNL     1       5.847   0.399  27.911  0.00  0.00    +0.238 A 
ATOM      4  O   UNL     1       5.725   0.758  29.077  0.00  0.00    -0.283 OA
ATOM      5  C   UNL     1       4.985  -0.653  27.322  0.00  0.00    +0.109 A 
ATOM      6  C   UNL     1       5.376  -1.146  26.087  0.00  0.00    +0.147 A 
ATOM      7  C   UNL     1       4.645  -2.148  25.444  0.00  0.00    +0.093 A 
ATOM      8  C   UNL     1       3.454  -2.642  25.984  0.00  0.00    +0.131 A 
ATOM      9  C   UNL     1       3.053  -2.154  27.239  0.00  0.00    +0.092 A 
ATOM     10  O   UNL     1       6.461  -0.686  25.389  0.00  0.00    -0.451 OA
ATOM     11  C   UNL     1       3.817  -1.171  27.902  0.00  0.00    +0.135 A 
ATOM     12  C   UNL     1       7.069   0.493  25.784  0.00  0.00    +0.181 A 
BRANCH  12  13
ATOM     13  C   UNL     1       7.902   1.015  24.672  0.00  0.00    +0.025 A 
ATOM     14  C   UNL     1       9.264   0.647  24.659  0.00  0.00    +0.015 A 
ATOM     15  C   UNL     1      10.148   1.161  23.709  0.00  0.00    +0.050 A 
ATOM     16  C   UNL     1       9.682   2.072  22.777  0.00  0.00    +0.158 A 
ATOM     17  C   UNL     1       8.343   2.458  22.776  0.00  0.00    +0.159 A 
ATOM     18  C   UNL     1       7.439   1.926  23.706  0.00  0.00    +0.060 A 
BRANCH  17  19
ATOM     19  O   UNL     1       7.978   3.397  21.849  0.00  0.00    -0.503 OA
ATOM     20  H   UNL     1       8.199   4.277  22.200  0.00  0.00    +0.292 HD
ENDBRANCH  17  19
BRANCH  16  21
ATOM     21  O   UNL     1      10.560   2.611  21.881  0.00  0.00    -0.503 OA
ATOM     22  H   UNL     1      11.412   2.169  22.066  0.00  0.00    +0.292 HD
ENDBRANCH  16  21
ENDBRANCH  12  13
BRANCH  11  23
ATOM     23  O   UNL     1       3.365  -0.728  29.107  0.00  0.00    -0.506 OA
ATOM     24  H   UNL     1       2.793   0.053  29.003  0.00  0.00    +0.292 HD
ENDBRANCH  11  23
BRANCH   2  26
ATOM     25  C   UNL     1       6.899   3.454  27.186  0.00  0.00    +0.277 C 
ATOM     26  O   UNL     1       7.449   2.191  27.521  0.00  0.00    -0.488 OA
ENDBRANCH   2  26
ENDBRANCH   1   8
BRANCH   1  27
ATOM     27  C   UNL     1       2.933  -4.942  25.658  0.00  0.00    +0.339 C 
ATOM     28  O   UNL     1       4.130  -5.345  24.978  0.00  0.00    -0.331 OA
ATOM     29  C   UNL     1       3.940  -5.547  23.565  0.00  0.00    +0.179 C 
ATOM     30  C   UNL     1       2.998  -6.747  23.354  0.00  0.00    +0.177 C 
ATOM     31  C   UNL     1       1.632  -6.434  23.980  0.00  0.00    +0.180 C 
ATOM     32  C   UNL     1       1.756  -5.921  25.418  0.00  0.00    +0.214 C 
BRANCH  32  33
ATOM     33  O   UNL     1       0.507  -5.393  25.885  0.00  0.00    -0.383 OA
ATOM     34  H   UNL     1       0.420  -4.487  25.531  0.00  0.00    +0.210 HD
ENDBRANCH  32  33
BRANCH  31  35
ATOM     35  O   UNL     1       0.880  -5.517  23.177  0.00  0.00    -0.386 OA
ATOM     36  H   UNL     1       0.321  -4.976  23.763  0.00  0.00    +0.210 HD
ENDBRANCH  31  35
BRANCH  30  37
ATOM     37  O   UNL     1       3.557  -7.909  23.983  0.00  0.00    -0.386 OA
ATOM     38  H   UNL     1       3.036  -8.101  24.782  0.00  0.00    +0.210 HD
ENDBRANCH  30  37
BRANCH  29  39
ATOM     39  C   UNL     1       5.316  -5.757  22.901  0.00  0.00    +0.197 C 
BRANCH  39  40
ATOM     40  O   UNL     1       6.003  -4.507  22.746  0.00  0.00    -0.346 OA
BRANCH  40  41
ATOM     41  C   UNL     1       7.329  -4.544  23.292  0.00  0.00    +0.282 C 
ATOM     42  O   UNL     1       7.359  -4.852  24.691  0.00  0.00    -0.341 OA
ATOM     43  C   UNL     1       8.156  -3.851  25.373  0.00  0.00    +0.178 C 
ATOM     44  C   UNL     1       8.903  -3.044  24.306  0.00  0.00    +0.179 C 
ATOM     45  C   UNL     1       7.994  -3.167  23.098  0.00  0.00    +0.201 C 
BRANCH  45  46
ATOM     46  O   UNL     1       7.031  -2.107  23.114  0.00  0.00    -0.384 OA
ATOM     47  H   UNL     1       7.348  -1.477  23.792  0.00  0.00    +0.210 HD
ENDBRANCH  45  46
BRANCH  44  48
ATOM     48  O   UNL     1      10.208  -3.551  24.021  0.00  0.00    -0.386 OA
ATOM     49  H   UNL     1      10.785  -2.833  23.713  0.00  0.00    +0.210 HD
ENDBRANCH  44  48
BRANCH  43  50
ATOM     50  C   UNL     1       9.082  -4.546  26.376  0.00  0.00    +0.190 C 
BRANCH  50  51
ATOM     51  O   UNL     1       9.715  -5.678  25.781  0.00  0.00    -0.392 OA
ATOM     52  H   UNL     1       9.383  -5.723  24.865  0.00  0.00    +0.210 HD
ENDBRANCH  50  51
ENDBRANCH  43  50
ENDBRANCH  40  41
ENDBRANCH  39  40
ENDBRANCH  29  39
ENDBRANCH   1  27
TORSDOF 17
ENDMDL
MODEL 9
REMARK VINA RESULT:      -6.9      2.220      3.246
REMARK  Name = 
REMARK  18 active torsions:
REMARK  status: ('A' for Active; 'I' for Inactive)
REMARK    1  A    between atoms: C_1  and  O_2
REMARK    2  A    between atoms: O_2  and  C_3
REMARK    3  A    between atoms: C_4  and  C_42
REMARK    4  A    between atoms: C_8  and  O_15
REMARK    5  A    between atoms: C_10  and  O_14
REMARK    6  A    between atoms: O_15  and  C_16
REMARK    7  A    between atoms: C_18  and  O_41
REMARK    8  A    between atoms: C_19  and  O_40
REMARK    9  A    between atoms: C_21  and  O_39
REMARK   10  A    between atoms: C_23  and  C_25
REMARK   11  A    between atoms: C_25  and  O_26
REMARK   12  A    between atoms: O_26  and  C_27
REMARK   13  A    between atoms: C_29  and  O_38
REMARK   14  A    between atoms: C_31  and  O_37
REMARK   15  A    between atoms: C_32  and  C_35
REMARK   16  A    between atoms: C_35  and  O_36
REMARK   17  A    between atoms: C_44  and  O_49
REMARK   18  A    between atoms: C_45  and  O_48
REMARK                            x       y       z     vdW  Elec       q    Type
REMARK                         _______ _______ _______ _____ _____    ______ ____
ROOT
ATOM      1  O   UNL     1       6.281  -3.630  26.658  0.00  0.00    -0.461 OA
ENDROOT
BRANCH   1   8
ATOM      2  C   UNL     1       8.830   0.509  22.378  0.00  0.00    +0.211 A 
ATOM      3  C   UNL     1       9.318  -0.893  22.682  0.00  0.00    +0.238 A 
ATOM      4  O   UNL     1      10.322  -1.341  22.137  0.00  0.00    -0.283 OA
ATOM      5  C   UNL     1       8.566  -1.671  23.695  0.00  0.00    +0.109 A 
ATOM      6  C   UNL     1       7.323  -1.170  24.052  0.00  0.00    +0.147 A 
ATOM      7  C   UNL     1       6.521  -1.828  24.989  0.00  0.00    +0.093 A 
ATOM      8  C   UNL     1       6.968  -2.973  25.655  0.00  0.00    +0.131 A 
ATOM      9  C   UNL     1       8.223  -3.491  25.294  0.00  0.00    +0.092 A 
ATOM     10  O   UNL     1       6.798  -0.004  23.562  0.00  0.00    -0.451 OA
ATOM     11  C   UNL     1       9.011  -2.846  24.319  0.00  0.00    +0.135 A 
ATOM     12  C   UNL     1       7.621   0.869  22.871  0.00  0.00    +0.181 A 
BRANCH  12  13
ATOM     13  C   UNL     1       6.986   2.211  22.824  0.00  0.00    +0.025 A 
ATOM     14  C   UNL     1       5.652   2.308  23.273  0.00  0.00    +0.015 A 
ATOM     15  C   UNL     1       4.938   3.505  23.182  0.00  0.00    +0.050 A 
ATOM     16  C   UNL     1       5.547   4.610  22.614  0.00  0.00    +0.158 A 
ATOM     17  C   UNL     1       6.860   4.536  22.155  0.00  0.00    +0.159 A 
ATOM     18  C   UNL     1       7.596   3.349  22.268  0.00  0.00    +0.060 A 
BRANCH  17  19
ATOM     19  O   UNL     1       7.367   5.663  21.566  0.00  0.00    -0.503 OA
ATOM     20  H   UNL     1       7.826   6.185  22.246  0.00  0.00    +0.292 HD
ENDBRANCH  17  19
BRANCH  16  21
ATOM     21  O   UNL     1       4.830   5.765  22.480  0.00  0.00    -0.503 OA
ATOM     22  H   UNL     1       5.157   6.170  21.653  0.00  0.00    +0.292 HD
ENDBRANCH  16  21
ENDBRANCH  12  13
BRANCH  11  23
ATOM     23  O   UNL     1      10.224  -3.389  24.027  0.00  0.00    -0.506 OA
ATOM     24  H   UNL     1      10.813  -3.373  24.802  0.00  0.00    +0.292 HD
ENDBRANCH  11  23
BRANCH   2  26
ATOM     25  C   UNL     1      10.618   2.112  22.310  0.00  0.00    +0.277 C 
ATOM     26  O   UNL     1       9.705   1.268  21.629  0.00  0.00    -0.488 OA
ENDBRANCH   2  26
ENDBRANCH   1   8
BRANCH   1  27
ATOM     27  C   UNL     1       5.868  -4.973  26.331  0.00  0.00    +0.339 C 
ATOM     28  O   UNL     1       4.457  -5.022  26.078  0.00  0.00    -0.331 OA
ATOM     29  C   UNL     1       3.662  -4.933  27.275  0.00  0.00    +0.179 C 
ATOM     30  C   UNL     1       3.907  -6.188  28.132  0.00  0.00    +0.177 C 
ATOM     31  C   UNL     1       5.385  -6.239  28.544  0.00  0.00    +0.180 C 
ATOM     32  C   UNL     1       6.327  -6.045  27.352  0.00  0.00    +0.214 C 
BRANCH  32  33
ATOM     33  O   UNL     1       7.676  -5.835  27.791  0.00  0.00    -0.383 OA
ATOM     34  H   UNL     1       7.725  -6.104  28.728  0.00  0.00    +0.210 HD
ENDBRANCH  32  33
BRANCH  31  35
ATOM     35  O   UNL     1       5.677  -5.296  29.581  0.00  0.00    -0.386 OA
ATOM     36  H   UNL     1       5.152  -4.490  29.426  0.00  0.00    +0.210 HD
ENDBRANCH  31  35
BRANCH  30  37
ATOM     37  O   UNL     1       3.582  -7.359  27.370  0.00  0.00    -0.386 OA
ATOM     38  H   UNL     1       2.752  -7.188  26.890  0.00  0.00    +0.210 HD
ENDBRANCH  30  37
BRANCH  29  39
ATOM     39  C   UNL     1       2.180  -4.773  26.879  0.00  0.00    +0.197 C 
BRANCH  39  40
ATOM     40  O   UNL     1       2.056  -4.460  25.485  0.00  0.00    -0.346 OA
BRANCH  40  41
ATOM     41  C   UNL     1       1.419  -5.512  24.745  0.00  0.00    +0.282 C 
ATOM     42  O   UNL     1       1.707  -6.820  25.256  0.00  0.00    -0.341 OA
ATOM     43  C   UNL     1       2.168  -7.656  24.166  0.00  0.00    +0.178 C 
ATOM     44  C   UNL     1       1.876  -6.918  22.856  0.00  0.00    +0.179 C 
ATOM     45  C   UNL     1       1.899  -5.462  23.281  0.00  0.00    +0.201 C 
BRANCH  45  46
ATOM     46  O   UNL     1       3.234  -4.954  23.178  0.00  0.00    -0.384 OA
ATOM     47  H   UNL     1       3.585  -5.311  22.337  0.00  0.00    +0.210 HD
ENDBRANCH  45  46
BRANCH  44  48
ATOM     48  O   UNL     1       0.616  -7.264  22.277  0.00  0.00    -0.386 OA
ATOM     49  H   UNL     1       0.006  -6.511  22.331  0.00  0.00    +0.210 HD
ENDBRANCH  44  48
BRANCH  43  50
ATOM     50  C   UNL     1       1.488  -9.025  24.262  0.00  0.00    +0.190 C 
BRANCH  50  51
ATOM     51  O   UNL     1       2.210  -9.889  25.137  0.00  0.00    -0.392 OA
ATOM     52  H   UNL     1       2.905  -9.341  25.547  0.00  0.00    +0.210 HD
ENDBRANCH  50  51
ENDBRANCH  43  50
ENDBRANCH  40  41
ENDBRANCH  39  40
ENDBRANCH  29  39
ENDBRANCH   1  27
TORSDOF 17
ENDMDL
