MODEL 1
REMARK VINA RESULT:      -7.9      0.000      0.000
REMARK  Name = 
REMARK  11 active torsions:
REMARK  status: ('A' for Active; 'I' for Inactive)
REMARK    1  A    between atoms: C_3  and  O_22
REMARK    2  A    between atoms: C_4  and  O_21
REMARK    3  A    between atoms: C_6  and  C_7
REMARK    4  A    between atoms: C_8  and  O_20
REMARK    5  A    between atoms: C_12  and  O_19
REMARK    6  A    between atoms: C_14  and  O_18
REMARK    7  A    between atoms: O_22  and  C_23
REMARK    8  A    between atoms: C_25  and  O_35
REMARK    9  A    between atoms: C_26  and  O_34
REMARK   10  A    between atoms: C_27  and  O_33
REMARK   11  A    between atoms: C_29  and  O_32
REMARK                            x       y       z     vdW  Elec       q    Type
REMARK                         _______ _______ _______ _____ _____    ______ ____
ROOT
ATOM      1  C   UNL     1       8.598  -0.612  22.618  0.00  0.00    +0.015 A 
ATOM      2  C   UNL     1       8.958   0.008  23.821  0.00  0.00    +0.025 A 
ATOM      3  C   UNL     1       9.055  -0.808  24.961  0.00  0.00    +0.060 A 
ATOM      4  C   UNL     1       8.744  -2.176  24.894  0.00  0.00    +0.159 A 
ATOM      5  C   UNL     1       8.279  -2.762  23.715  0.00  0.00    +0.165 A 
ATOM      6  C   UNL     1       8.274  -1.969  22.565  0.00  0.00    +0.050 A 
ENDROOT
BRANCH   2   7
ATOM      7  C   UNL     1       9.112   1.492  23.823  0.00  0.00    +0.181 A 
ATOM      8  O   UNL     1      10.415   1.878  23.493  0.00  0.00    -0.451 OA
ATOM      9  C   UNL     1      10.765   3.200  23.536  0.00  0.00    +0.147 A 
ATOM     10  C   UNL     1       9.838   4.210  23.758  0.00  0.00    +0.109 A 
ATOM     11  C   UNL     1      10.256   5.547  23.773  0.00  0.00    +0.135 A 
ATOM     12  C   UNL     1      11.596   5.874  23.577  0.00  0.00    +0.091 A 
ATOM     13  C   UNL     1      12.516   4.854  23.366  0.00  0.00    +0.124 A 
ATOM     14  C   UNL     1       8.446   3.830  24.000  0.00  0.00    +0.238 A 
ATOM     15  O   UNL     1       7.598   4.713  24.145  0.00  0.00    -0.283 OA
ATOM     16  C   UNL     1      12.111   3.521  23.341  0.00  0.00    +0.092 A 
ATOM     17  C   UNL     1       8.130   2.375  24.104  0.00  0.00    +0.208 A 
BRANCH  11  18
ATOM     18  O   UNL     1       9.394   6.590  23.976  0.00  0.00    -0.506 OA
ATOM     19  H   UNL     1       9.478   6.878  24.914  0.00  0.00    +0.292 HD
ENDBRANCH  11  18
BRANCH  13  20
ATOM     20  O   UNL     1      13.841   5.125  23.179  0.00  0.00    -0.507 OA
ATOM     21  H   UNL     1      13.923   5.947  22.667  0.00  0.00    +0.292 HD
ENDBRANCH  13  20
BRANCH  17  22
ATOM     22  O   UNL     1       6.856   2.047  24.522  0.00  0.00    -0.501 OA
ATOM     23  H   UNL     1       6.210   2.517  23.969  0.00  0.00    +0.292 HD
ENDBRANCH  17  22
ENDBRANCH   2   7
BRANCH   4  24
ATOM     24  O   UNL     1       8.883  -2.916  26.038  0.00  0.00    -0.503 OA
ATOM     25  H   UNL     1       9.725  -2.630  26.440  0.00  0.00    +0.292 HD
ENDBRANCH   4  24
BRANCH   5  26
ATOM     26  O   UNL     1       7.797  -4.064  23.782  0.00  0.00    -0.457 OA
BRANCH  26  27
ATOM     27  C   UNL     1       6.383  -4.130  24.079  0.00  0.00    +0.341 C 
ATOM     28  O   UNL     1       6.135  -3.953  25.477  0.00  0.00    -0.308 OA
ATOM     29  C   UNL     1       6.246  -5.126  26.268  0.00  0.00    +0.283 C 
ATOM     30  C   UNL     1       5.142  -6.098  25.848  0.00  0.00    +0.201 C 
ATOM     31  C   UNL     1       5.402  -6.538  24.407  0.00  0.00    +0.182 C 
ATOM     32  C   UNL     1       5.616  -5.337  23.471  0.00  0.00    +0.214 C 
BRANCH  29  33
ATOM     33  O   UNL     1       7.546  -5.701  26.272  0.00  0.00    -0.365 OA
ATOM     34  H   UNL     1       7.534  -6.588  25.886  0.00  0.00    +0.213 HD
ENDBRANCH  29  33
BRANCH  30  35
ATOM     35  O   UNL     1       5.034  -7.223  26.717  0.00  0.00    -0.384 OA
ATOM     36  H   UNL     1       5.159  -6.917  27.633  0.00  0.00    +0.210 HD
ENDBRANCH  30  35
BRANCH  31  37
ATOM     37  O   UNL     1       4.303  -7.320  23.898  0.00  0.00    -0.386 OA
ATOM     38  H   UNL     1       3.513  -7.138  24.442  0.00  0.00    +0.210 HD
ENDBRANCH  31  37
BRANCH  32  39
ATOM     39  O   UNL     1       6.181  -5.742  22.219  0.00  0.00    -0.383 OA
ATOM     40  H   UNL     1       6.086  -5.002  21.590  0.00  0.00    +0.210 HD
ENDBRANCH  32  39
ENDBRANCH  26  27
ENDBRANCH   5  26
TORSDOF 11
ENDMDL
MODEL 2
REMARK VINA RESULT:      -7.6      1.463      2.756
REMARK  Name = 
REMARK  11 active torsions:
REMARK  status: ('A' for Active; 'I' for Inactive)
REMARK    1  A    between atoms: C_3  and  O_22
REMARK    2  A    between atoms: C_4  and  O_21
REMARK    3  A    between atoms: C_6  and  C_7
REMARK    4  A    between atoms: C_8  and  O_20
REMARK    5  A    between atoms: C_12  and  O_19
REMARK    6  A    between atoms: C_14  and  O_18
REMARK    7  A    between atoms: O_22  and  C_23
REMARK    8  A    between atoms: C_25  and  O_35
REMARK    9  A    between atoms: C_26  and  O_34
REMARK   10  A    between atoms: C_27  and  O_33
REMARK   11  A    between atoms: C_29  and  O_32
REMARK                            x       y       z     vdW  Elec       q    Type
REMARK                         _______ _______ _______ _____ _____    ______ ____
ROOT
ATOM      1  C   UNL     1       8.223  -1.403  22.476  0.00  0.00    +0.015 A 
ATOM      2  C   UNL     1       8.610  -0.732  23.642  0.00  0.00    +0.025 A 
ATOM      3  C   UNL     1       8.665  -1.484  24.829  0.00  0.00    +0.060 A 
ATOM      4  C   UNL     1       8.287  -2.837  24.841  0.00  0.00    +0.159 A 
ATOM      5  C   UNL     1       7.796  -3.468  23.695  0.00  0.00    +0.165 A 
ATOM      6  C   UNL     1       7.832  -2.744  22.501  0.00  0.00    +0.050 A 
ENDROOT
BRANCH   2   7
ATOM      7  C   UNL     1       8.836   0.740  23.558  0.00  0.00    +0.181 A 
ATOM      8  O   UNL     1       7.644   1.436  23.336  0.00  0.00    -0.451 OA
ATOM      9  C   UNL     1       7.671   2.789  23.139  0.00  0.00    +0.147 A 
ATOM     10  C   UNL     1       8.829   3.541  23.290  0.00  0.00    +0.109 A 
ATOM     11  C   UNL     1       8.789   4.927  23.090  0.00  0.00    +0.135 A 
ATOM     12  C   UNL     1       7.601   5.558  22.731  0.00  0.00    +0.091 A 
ATOM     13  C   UNL     1       6.451   4.794  22.573  0.00  0.00    +0.124 A 
ATOM     14  C   UNL     1      10.069   2.842  23.628  0.00  0.00    +0.238 A 
ATOM     15  O   UNL     1      11.095   3.497  23.821  0.00  0.00    -0.283 OA
ATOM     16  C   UNL     1       6.476   3.416  22.776  0.00  0.00    +0.092 A 
ATOM     17  C   UNL     1      10.035   1.351  23.680  0.00  0.00    +0.208 A 
BRANCH  11  18
ATOM     18  O   UNL     1       9.889   5.728  23.233  0.00  0.00    -0.506 OA
ATOM     19  H   UNL     1      10.612   5.358  22.676  0.00  0.00    +0.292 HD
ENDBRANCH  11  18
BRANCH  13  20
ATOM     20  O   UNL     1       5.265   5.367  22.212  0.00  0.00    -0.507 OA
ATOM     21  H   UNL     1       4.577   4.680  22.198  0.00  0.00    +0.292 HD
ENDBRANCH  13  20
BRANCH  17  22
ATOM     22  O   UNL     1      11.249   0.708  23.809  0.00  0.00    -0.501 OA
ATOM     23  H   UNL     1      11.909   1.340  24.136  0.00  0.00    +0.292 HD
ENDBRANCH  17  22
ENDBRANCH   2   7
BRANCH   4  24
ATOM     24  O   UNL     1       8.387  -3.513  26.026  0.00  0.00    -0.503 OA
ATOM     25  H   UNL     1       9.142  -3.115  26.498  0.00  0.00    +0.292 HD
ENDBRANCH   4  24
BRANCH   5  26
ATOM     26  O   UNL     1       7.251  -4.738  23.836  0.00  0.00    -0.457 OA
BRANCH  26  27
ATOM     27  C   UNL     1       5.812  -4.724  23.986  0.00  0.00    +0.341 C 
ATOM     28  O   UNL     1       5.431  -4.346  25.313  0.00  0.00    -0.308 OA
ATOM     29  C   UNL     1       5.412  -5.399  26.263  0.00  0.00    +0.283 C 
ATOM     30  C   UNL     1       4.317  -6.390  25.865  0.00  0.00    +0.201 C 
ATOM     31  C   UNL     1       4.703  -7.035  24.533  0.00  0.00    +0.182 C 
ATOM     32  C   UNL     1       5.062  -5.983  23.471  0.00  0.00    +0.214 C 
BRANCH  29  33
ATOM     33  O   UNL     1       6.680  -6.002  26.485  0.00  0.00    -0.365 OA
ATOM     34  H   UNL     1       7.242  -5.435  27.032  0.00  0.00    +0.213 HD
ENDBRANCH  29  33
BRANCH  30  35
ATOM     35  O   UNL     1       4.074  -7.379  26.863  0.00  0.00    -0.384 OA
ATOM     36  H   UNL     1       4.163  -8.258  26.453  0.00  0.00    +0.210 HD
ENDBRANCH  30  35
BRANCH  31  37
ATOM     37  O   UNL     1       3.631  -7.850  24.022  0.00  0.00    -0.386 OA
ATOM     38  H   UNL     1       2.930  -7.263  23.678  0.00  0.00    +0.210 HD
ENDBRANCH  31  37
BRANCH  32  39
ATOM     39  O   UNL     1       5.734  -6.574  22.353  0.00  0.00    -0.383 OA
ATOM     40  H   UNL     1       6.406  -7.194  22.697  0.00  0.00    +0.210 HD
ENDBRANCH  32  39
ENDBRANCH  26  27
ENDBRANCH   5  26
TORSDOF 11
ENDMDL
MODEL 3
REMARK VINA RESULT:      -7.5      1.683      2.862
REMARK  Name = 
REMARK  11 active torsions:
REMARK  status: ('A' for Active; 'I' for Inactive)
REMARK    1  A    between atoms: C_3  and  O_22
REMARK    2  A    between atoms: C_4  and  O_21
REMARK    3  A    between atoms: C_6  and  C_7
REMARK    4  A    between atoms: C_8  and  O_20
REMARK    5  A    between atoms: C_12  and  O_19
REMARK    6  A    between atoms: C_14  and  O_18
REMARK    7  A    between atoms: O_22  and  C_23
REMARK    8  A    between atoms: C_25  and  O_35
REMARK    9  A    between atoms: C_26  and  O_34
REMARK   10  A    between atoms: C_27  and  O_33
REMARK   11  A    between atoms: C_29  and  O_32
REMARK                            x       y       z     vdW  Elec       q    Type
REMARK                         _______ _______ _______ _____ _____    ______ ____
ROOT
ATOM      1  C   UNL     1       6.848  -1.393  22.889  0.00  0.00    +0.015 A 
ATOM      2  C   UNL     1       8.130  -1.155  23.399  0.00  0.00    +0.025 A 
ATOM      3  C   UNL     1       8.856  -2.267  23.858  0.00  0.00    +0.060 A 
ATOM      4  C   UNL     1       8.284  -3.550  23.855  0.00  0.00    +0.159 A 
ATOM      5  C   UNL     1       6.965  -3.760  23.448  0.00  0.00    +0.165 A 
ATOM      6  C   UNL     1       6.281  -2.669  22.906  0.00  0.00    +0.050 A 
ENDROOT
BRANCH   2   7
ATOM      7  C   UNL     1       8.586   0.261  23.508  0.00  0.00    +0.181 A 
ATOM      8  O   UNL     1       7.997   0.913  24.596  0.00  0.00    -0.451 OA
ATOM      9  C   UNL     1       8.227   2.246  24.798  0.00  0.00    +0.147 A 
ATOM     10  C   UNL     1       9.144   2.967  24.044  0.00  0.00    +0.109 A 
ATOM     11  C   UNL     1       9.347   4.327  24.311  0.00  0.00    +0.135 A 
ATOM     12  C   UNL     1       8.631   4.968  25.318  0.00  0.00    +0.091 A 
ATOM     13  C   UNL     1       7.708   4.239  26.059  0.00  0.00    +0.124 A 
ATOM     14  C   UNL     1       9.851   2.274  22.967  0.00  0.00    +0.238 A 
ATOM     15  O   UNL     1      10.708   2.881  22.322  0.00  0.00    -0.283 OA
ATOM     16  C   UNL     1       7.503   2.883  25.809  0.00  0.00    +0.092 A 
ATOM     17  C   UNL     1       9.460   0.864  22.673  0.00  0.00    +0.208 A 
BRANCH  11  18
ATOM     18  O   UNL     1      10.242   5.093  23.614  0.00  0.00    -0.506 OA
ATOM     19  H   UNL     1       9.965   6.035  23.692  0.00  0.00    +0.292 HD
ENDBRANCH  11  18
BRANCH  13  20
ATOM     20  O   UNL     1       6.975   4.826  27.051  0.00  0.00    -0.507 OA
ATOM     21  H   UNL     1       7.471   5.588  27.396  0.00  0.00    +0.292 HD
ENDBRANCH  13  20
BRANCH  17  22
ATOM     22  O   UNL     1       9.999   0.296  21.536  0.00  0.00    -0.501 OA
ATOM     23  H   UNL     1      10.336   1.001  20.960  0.00  0.00    +0.292 HD
ENDBRANCH  17  22
ENDBRANCH   2   7
BRANCH   4  24
ATOM     24  O   UNL     1       9.057  -4.591  24.294  0.00  0.00    -0.503 OA
ATOM     25  H   UNL     1       9.102  -4.499  25.264  0.00  0.00    +0.292 HD
ENDBRANCH   4  24
BRANCH   5  26
ATOM     26  O   UNL     1       6.408  -5.014  23.669  0.00  0.00    -0.457 OA
BRANCH  26  27
ATOM     27  C   UNL     1       5.222  -4.970  24.495  0.00  0.00    +0.341 C 
ATOM     28  O   UNL     1       5.521  -4.498  25.812  0.00  0.00    -0.308 OA
ATOM     29  C   UNL     1       5.986  -5.483  26.721  0.00  0.00    +0.283 C 
ATOM     30  C   UNL     1       4.855  -6.484  26.968  0.00  0.00    +0.201 C 
ATOM     31  C   UNL     1       4.563  -7.222  25.661  0.00  0.00    +0.182 C 
ATOM     32  C   UNL     1       4.342  -6.250  24.491  0.00  0.00    +0.214 C 
BRANCH  29  33
ATOM     33  O   UNL     1       7.215  -6.087  26.341  0.00  0.00    -0.365 OA
ATOM     34  H   UNL     1       7.943  -5.451  26.389  0.00  0.00    +0.213 HD
ENDBRANCH  29  33
BRANCH  30  35
ATOM     35  O   UNL     1       5.146  -7.399  28.022  0.00  0.00    -0.384 OA
ATOM     36  H   UNL     1       5.664  -8.137  27.653  0.00  0.00    +0.210 HD
ENDBRANCH  30  35
BRANCH  31  37
ATOM     37  O   UNL     1       3.395  -8.055  25.787  0.00  0.00    -0.386 OA
ATOM     38  H   UNL     1       3.666  -8.990  25.703  0.00  0.00    +0.210 HD
ENDBRANCH  31  37
BRANCH  32  39
ATOM     39  O   UNL     1       4.402  -6.926  23.230  0.00  0.00    -0.383 OA
ATOM     40  H   UNL     1       4.723  -6.291  22.562  0.00  0.00    +0.210 HD
ENDBRANCH  32  39
ENDBRANCH  26  27
ENDBRANCH   5  26
TORSDOF 11
ENDMDL
MODEL 4
REMARK VINA RESULT:      -7.3      1.709      3.012
REMARK  Name = 
REMARK  11 active torsions:
REMARK  status: ('A' for Active; 'I' for Inactive)
REMARK    1  A    between atoms: C_3  and  O_22
REMARK    2  A    between atoms: C_4  and  O_21
REMARK    3  A    between atoms: C_6  and  C_7
REMARK    4  A    between atoms: C_8  and  O_20
REMARK    5  A    between atoms: C_12  and  O_19
REMARK    6  A    between atoms: C_14  and  O_18
REMARK    7  A    between atoms: O_22  and  C_23
REMARK    8  A    between atoms: C_25  and  O_35
REMARK    9  A    between atoms: C_26  and  O_34
REMARK   10  A    between atoms: C_27  and  O_33
REMARK   11  A    between atoms: C_29  and  O_32
REMARK                            x       y       z     vdW  Elec       q    Type
REMARK                         _______ _______ _______ _____ _____    ______ ____
ROOT
ATOM      1  C   UNL     1       8.531  -0.488  25.946  0.00  0.00    +0.015 A 
ATOM      2  C   UNL     1       8.098   0.138  24.771  0.00  0.00    +0.025 A 
ATOM      3  C   UNL     1       7.200  -0.574  23.956  0.00  0.00    +0.060 A 
ATOM      4  C   UNL     1       6.809  -1.881  24.290  0.00  0.00    +0.159 A 
ATOM      5  C   UNL     1       7.333  -2.538  25.405  0.00  0.00    +0.165 A 
ATOM      6  C   UNL     1       8.150  -1.795  26.260  0.00  0.00    +0.050 A 
ENDROOT
BRANCH   2   7
ATOM      7  C   UNL     1       8.694   1.460  24.425  0.00  0.00    +0.181 A 
ATOM      8  O   UNL     1       7.795   2.508  24.644  0.00  0.00    -0.451 OA
ATOM      9  C   UNL     1       8.137   3.785  24.294  0.00  0.00    +0.147 A 
ATOM     10  C   UNL     1       9.411   4.121  23.852  0.00  0.00    +0.109 A 
ATOM     11  C   UNL     1       9.705   5.451  23.524  0.00  0.00    +0.135 A 
ATOM     12  C   UNL     1       8.730   6.440  23.627  0.00  0.00    +0.091 A 
ATOM     13  C   UNL     1       7.456   6.090  24.060  0.00  0.00    +0.124 A 
ATOM     14  C   UNL     1      10.400   3.053  23.718  0.00  0.00    +0.238 A 
ATOM     15  O   UNL     1      11.551   3.337  23.380  0.00  0.00    -0.283 OA
ATOM     16  C   UNL     1       7.153   4.772  24.396  0.00  0.00    +0.092 A 
ATOM     17  C   UNL     1       9.947   1.651  23.956  0.00  0.00    +0.208 A 
BRANCH  11  18
ATOM     18  O   UNL     1      10.940   5.852  23.093  0.00  0.00    -0.506 OA
ATOM     19  H   UNL     1      10.839   6.243  22.195  0.00  0.00    +0.292 HD
ENDBRANCH  11  18
BRANCH  13  20
ATOM     20  O   UNL     1       6.464   7.023  24.167  0.00  0.00    -0.507 OA
ATOM     21  H   UNL     1       5.680   6.701  23.691  0.00  0.00    +0.292 HD
ENDBRANCH  13  20
BRANCH  17  22
ATOM     22  O   UNL     1      10.841   0.648  23.637  0.00  0.00    -0.501 OA
ATOM     23  H   UNL     1      11.344   0.408  24.432  0.00  0.00    +0.292 HD
ENDBRANCH  17  22
ENDBRANCH   2   7
BRANCH   4  24
ATOM     24  O   UNL     1       5.914  -2.505  23.463  0.00  0.00    -0.503 OA
ATOM     25  H   UNL     1       6.424  -2.786  22.681  0.00  0.00    +0.292 HD
ENDBRANCH   4  24
BRANCH   5  26
ATOM     26  O   UNL     1       7.059  -3.893  25.550  0.00  0.00    -0.457 OA
BRANCH  26  27
ATOM     27  C   UNL     1       5.825  -4.148  26.260  0.00  0.00    +0.341 C 
ATOM     28  O   UNL     1       6.048  -4.264  27.668  0.00  0.00    -0.308 OA
ATOM     29  C   UNL     1       6.447  -5.549  28.117  0.00  0.00    +0.283 C 
ATOM     30  C   UNL     1       5.293  -6.525  27.876  0.00  0.00    +0.201 C 
ATOM     31  C   UNL     1       5.074  -6.657  26.368  0.00  0.00    +0.182 C 
ATOM     32  C   UNL     1       4.934  -5.285  25.688  0.00  0.00    +0.214 C 
BRANCH  29  33
ATOM     33  O   UNL     1       7.691  -5.988  27.587  0.00  0.00    -0.365 OA
ATOM     34  H   UNL     1       7.557  -6.645  26.889  0.00  0.00    +0.213 HD
ENDBRANCH  29  33
BRANCH  30  35
ATOM     35  O   UNL     1       5.510  -7.799  28.477  0.00  0.00    -0.384 OA
ATOM     36  H   UNL     1       4.694  -8.065  28.937  0.00  0.00    +0.210 HD
ENDBRANCH  30  35
BRANCH  31  37
ATOM     37  O   UNL     1       3.891  -7.428  26.083  0.00  0.00    -0.386 OA
ATOM     38  H   UNL     1       4.099  -8.375  26.206  0.00  0.00    +0.210 HD
ENDBRANCH  31  37
BRANCH  32  39
ATOM     39  O   UNL     1       5.064  -5.390  24.266  0.00  0.00    -0.383 OA
ATOM     40  H   UNL     1       4.596  -4.635  23.862  0.00  0.00    +0.210 HD
ENDBRANCH  32  39
ENDBRANCH  26  27
ENDBRANCH   5  26
TORSDOF 11
ENDMDL
MODEL 5
REMARK VINA RESULT:      -7.1      1.596     10.087
REMARK  Name = 
REMARK  11 active torsions:
REMARK  status: ('A' for Active; 'I' for Inactive)
REMARK    1  A    between atoms: C_3  and  O_22
REMARK    2  A    between atoms: C_4  and  O_21
REMARK    3  A    between atoms: C_6  and  C_7
REMARK    4  A    between atoms: C_8  and  O_20
REMARK    5  A    between atoms: C_12  and  O_19
REMARK    6  A    between atoms: C_14  and  O_18
REMARK    7  A    between atoms: O_22  and  C_23
REMARK    8  A    between atoms: C_25  and  O_35
REMARK    9  A    between atoms: C_26  and  O_34
REMARK   10  A    between atoms: C_27  and  O_33
REMARK   11  A    between atoms: C_29  and  O_32
REMARK                            x       y       z     vdW  Elec       q    Type
REMARK                         _______ _______ _______ _____ _____    ______ ____
ROOT
ATOM      1  C   UNL     1       6.135  -0.820  24.615  0.00  0.00    +0.015 A 
ATOM      2  C   UNL     1       6.617  -1.871  23.825  0.00  0.00    +0.025 A 
ATOM      3  C   UNL     1       7.674  -1.582  22.945  0.00  0.00    +0.060 A 
ATOM      4  C   UNL     1       8.178  -0.275  22.831  0.00  0.00    +0.159 A 
ATOM      5  C   UNL     1       7.616   0.788  23.542  0.00  0.00    +0.165 A 
ATOM      6  C   UNL     1       6.630   0.480  24.482  0.00  0.00    +0.050 A 
ENDROOT
BRANCH   2   7
ATOM      7  C   UNL     1       5.911  -3.183  23.903  0.00  0.00    +0.181 A 
ATOM      8  O   UNL     1       5.946  -3.714  25.195  0.00  0.00    -0.451 OA
ATOM      9  C   UNL     1       5.429  -4.958  25.435  0.00  0.00    +0.147 A 
ATOM     10  C   UNL     1       4.732  -5.674  24.471  0.00  0.00    +0.109 A 
ATOM     11  C   UNL     1       4.212  -6.936  24.784  0.00  0.00    +0.135 A 
ATOM     12  C   UNL     1       4.394  -7.486  26.050  0.00  0.00    +0.091 A 
ATOM     13  C   UNL     1       5.102  -6.765  27.003  0.00  0.00    +0.124 A 
ATOM     14  C   UNL     1       4.592  -5.086  23.139  0.00  0.00    +0.238 A 
ATOM     15  O   UNL     1       3.931  -5.680  22.285  0.00  0.00    -0.283 OA
ATOM     16  C   UNL     1       5.618  -5.505  26.707  0.00  0.00    +0.092 A 
ATOM     17  C   UNL     1       5.304  -3.802  22.868  0.00  0.00    +0.208 A 
BRANCH  11  18
ATOM     18  O   UNL     1       3.507  -7.690  23.884  0.00  0.00    -0.506 OA
ATOM     19  H   UNL     1       2.548  -7.593  24.088  0.00  0.00    +0.292 HD
ENDBRANCH  11  18
BRANCH  13  20
ATOM     20  O   UNL     1       5.316  -7.267  28.255  0.00  0.00    -0.507 OA
ATOM     21  H   UNL     1       6.207  -7.009  28.548  0.00  0.00    +0.292 HD
ENDBRANCH  13  20
BRANCH  17  22
ATOM     22  O   UNL     1       5.317  -3.367  21.557  0.00  0.00    -0.501 OA
ATOM     23  H   UNL     1       4.605  -3.811  21.069  0.00  0.00    +0.292 HD
ENDBRANCH  17  22
ENDBRANCH   2   7
BRANCH   4  24
ATOM     24  O   UNL     1       9.223  -0.071  21.972  0.00  0.00    -0.503 OA
ATOM     25  H   UNL     1       8.905   0.574  21.313  0.00  0.00    +0.292 HD
ENDBRANCH   4  24
BRANCH   5  26
ATOM     26  O   UNL     1       8.030   2.075  23.220  0.00  0.00    -0.457 OA
BRANCH  26  27
ATOM     27  C   UNL     1       9.105   2.552  24.062  0.00  0.00    +0.341 C 
ATOM     28  O   UNL     1       8.607   3.334  25.152  0.00  0.00    -0.308 OA
ATOM     29  C   UNL     1       8.372   4.702  24.861  0.00  0.00    +0.283 C 
ATOM     30  C   UNL     1       9.715   5.368  24.552  0.00  0.00    +0.201 C 
ATOM     31  C   UNL     1      10.278   4.757  23.268  0.00  0.00    +0.182 C 
ATOM     32  C   UNL     1      10.299   3.221  23.327  0.00  0.00    +0.214 C 
BRANCH  29  33
ATOM     33  O   UNL     1       7.380   4.922  23.866  0.00  0.00    -0.365 OA
ATOM     34  H   UNL     1       7.070   5.839  23.883  0.00  0.00    +0.213 HD
ENDBRANCH  29  33
BRANCH  30  35
ATOM     35  O   UNL     1       9.619   6.787  24.447  0.00  0.00    -0.384 OA
ATOM     36  H   UNL     1      10.082   7.066  23.637  0.00  0.00    +0.210 HD
ENDBRANCH  30  35
BRANCH  31  37
ATOM     37  O   UNL     1      11.620   5.220  23.020  0.00  0.00    -0.386 OA
ATOM     38  H   UNL     1      12.094   5.273  23.872  0.00  0.00    +0.210 HD
ENDBRANCH  31  37
BRANCH  32  39
ATOM     39  O   UNL     1      10.504   2.650  22.030  0.00  0.00    -0.383 OA
ATOM     40  H   UNL     1       9.731   2.093  21.818  0.00  0.00    +0.210 HD
ENDBRANCH  32  39
ENDBRANCH  26  27
ENDBRANCH   5  26
TORSDOF 11
ENDMDL
MODEL 6
REMARK VINA RESULT:      -7.1      1.517      9.742
REMARK  Name = 
REMARK  11 active torsions:
REMARK  status: ('A' for Active; 'I' for Inactive)
REMARK    1  A    between atoms: C_3  and  O_22
REMARK    2  A    between atoms: C_4  and  O_21
REMARK    3  A    between atoms: C_6  and  C_7
REMARK    4  A    between atoms: C_8  and  O_20
REMARK    5  A    between atoms: C_12  and  O_19
REMARK    6  A    between atoms: C_14  and  O_18
REMARK    7  A    between atoms: O_22  and  C_23
REMARK    8  A    between atoms: C_25  and  O_35
REMARK    9  A    between atoms: C_26  and  O_34
REMARK   10  A    between atoms: C_27  and  O_33
REMARK   11  A    between atoms: C_29  and  O_32
REMARK                            x       y       z     vdW  Elec       q    Type
REMARK                         _______ _______ _______ _____ _____    ______ ____
ROOT
ATOM      1  C   UNL     1       8.845  -1.417  25.440  0.00  0.00    +0.015 A 
ATOM      2  C   UNL     1       8.350  -2.272  24.446  0.00  0.00    +0.025 A 
ATOM      3  C   UNL     1       8.560  -1.892  23.109  0.00  0.00    +0.060 A 
ATOM      4  C   UNL     1       9.189  -0.675  22.797  0.00  0.00    +0.159 A 
ATOM      5  C   UNL     1       9.579   0.221  23.795  0.00  0.00    +0.165 A 
ATOM      6  C   UNL     1       9.453  -0.201  25.120  0.00  0.00    +0.050 A 
ENDROOT
BRANCH   2   7
ATOM      7  C   UNL     1       7.557  -3.459  24.878  0.00  0.00    +0.181 A 
ATOM      8  O   UNL     1       6.625  -3.839  23.908  0.00  0.00    -0.451 OA
ATOM      9  C   UNL     1       5.744  -4.853  24.170  0.00  0.00    +0.147 A 
ATOM     10  C   UNL     1       5.824  -5.631  25.318  0.00  0.00    +0.109 A 
ATOM     11  C   UNL     1       4.902  -6.666  25.521  0.00  0.00    +0.135 A 
ATOM     12  C   UNL     1       3.900  -6.918  24.588  0.00  0.00    +0.091 A 
ATOM     13  C   UNL     1       3.824  -6.126  23.448  0.00  0.00    +0.124 A 
ATOM     14  C   UNL     1       6.863  -5.315  26.297  0.00  0.00    +0.238 A 
ATOM     15  O   UNL     1       6.985  -6.027  27.296  0.00  0.00    -0.283 OA
ATOM     16  C   UNL     1       4.740  -5.098  23.231  0.00  0.00    +0.092 A 
ATOM     17  C   UNL     1       7.703  -4.106  26.055  0.00  0.00    +0.208 A 
BRANCH  11  18
ATOM     18  O   UNL     1       4.929  -7.477  26.624  0.00  0.00    -0.506 OA
ATOM     19  H   UNL     1       5.865  -7.736  26.790  0.00  0.00    +0.292 HD
ENDBRANCH  11  18
BRANCH  13  20
ATOM     20  O   UNL     1       2.853  -6.329  22.510  0.00  0.00    -0.507 OA
ATOM     21  H   UNL     1       3.247  -6.230  21.626  0.00  0.00    +0.292 HD
ENDBRANCH  13  20
BRANCH  17  22
ATOM     22  O   UNL     1       8.542  -3.719  27.080  0.00  0.00    -0.501 OA
ATOM     23  H   UNL     1       8.766  -2.781  26.969  0.00  0.00    +0.292 HD
ENDBRANCH  17  22
ENDBRANCH   2   7
BRANCH   4  24
ATOM     24  O   UNL     1       9.381  -0.381  21.475  0.00  0.00    -0.503 OA
ATOM     25  H   UNL     1       9.330  -1.232  21.002  0.00  0.00    +0.292 HD
ENDBRANCH   4  24
BRANCH   5  26
ATOM     26  O   UNL     1      10.001   1.486  23.403  0.00  0.00    -0.457 OA
BRANCH  26  27
ATOM     27  C   UNL     1       9.321   2.553  24.104  0.00  0.00    +0.341 C 
ATOM     28  O   UNL     1       7.901   2.376  24.072  0.00  0.00    -0.308 OA
ATOM     29  C   UNL     1       7.253   2.871  22.911  0.00  0.00    +0.283 C 
ATOM     30  C   UNL     1       7.405   4.393  22.885  0.00  0.00    +0.201 C 
ATOM     31  C   UNL     1       8.887   4.732  22.714  0.00  0.00    +0.182 C 
ATOM     32  C   UNL     1       9.764   3.997  23.740  0.00  0.00    +0.214 C 
BRANCH  29  33
ATOM     33  O   UNL     1       7.654   2.232  21.706  0.00  0.00    -0.365 OA
ATOM     34  H   UNL     1       7.007   2.385  21.002  0.00  0.00    +0.213 HD
ENDBRANCH  29  33
BRANCH  30  35
ATOM     35  O   UNL     1       6.617   5.012  21.871  0.00  0.00    -0.384 OA
ATOM     36  H   UNL     1       5.834   5.412  22.291  0.00  0.00    +0.210 HD
ENDBRANCH  30  35
BRANCH  31  37
ATOM     37  O   UNL     1       9.114   6.148  22.854  0.00  0.00    -0.386 OA
ATOM     38  H   UNL     1       9.978   6.284  23.288  0.00  0.00    +0.210 HD
ENDBRANCH  31  37
BRANCH  32  39
ATOM     39  O   UNL     1      11.149   4.046  23.378  0.00  0.00    -0.383 OA
ATOM     40  H   UNL     1      11.219   4.487  22.510  0.00  0.00    +0.210 HD
ENDBRANCH  32  39
ENDBRANCH  26  27
ENDBRANCH   5  26
TORSDOF 11
ENDMDL
MODEL 7
REMARK VINA RESULT:      -7.0      2.555     10.496
REMARK  Name = 
REMARK  11 active torsions:
REMARK  status: ('A' for Active; 'I' for Inactive)
REMARK    1  A    between atoms: C_3  and  O_22
REMARK    2  A    between atoms: C_4  and  O_21
REMARK    3  A    between atoms: C_6  and  C_7
REMARK    4  A    between atoms: C_8  and  O_20
REMARK    5  A    between atoms: C_12  and  O_19
REMARK    6  A    between atoms: C_14  and  O_18
REMARK    7  A    between atoms: O_22  and  C_23
REMARK    8  A    between atoms: C_25  and  O_35
REMARK    9  A    between atoms: C_26  and  O_34
REMARK   10  A    between atoms: C_27  and  O_33
REMARK   11  A    between atoms: C_29  and  O_32
REMARK                            x       y       z     vdW  Elec       q    Type
REMARK                         _______ _______ _______ _____ _____    ______ ____
ROOT
ATOM      1  C   UNL     1       7.030  -4.489  25.869  0.00  0.00    +0.015 A 
ATOM      2  C   UNL     1       6.115  -4.922  24.901  0.00  0.00    +0.025 A 
ATOM      3  C   UNL     1       6.314  -4.475  23.583  0.00  0.00    +0.060 A 
ATOM      4  C   UNL     1       7.355  -3.585  23.275  0.00  0.00    +0.159 A 
ATOM      5  C   UNL     1       8.194  -3.071  24.267  0.00  0.00    +0.165 A 
ATOM      6  C   UNL     1       8.052  -3.589  25.557  0.00  0.00    +0.050 A 
ENDROOT
BRANCH   2   7
ATOM      7  C   UNL     1       4.951  -5.736  25.356  0.00  0.00    +0.181 A 
ATOM      8  O   UNL     1       4.371  -5.209  26.514  0.00  0.00    -0.451 OA
ATOM      9  C   UNL     1       3.348  -5.877  27.128  0.00  0.00    +0.147 A 
ATOM     10  C   UNL     1       2.751  -7.002  26.571  0.00  0.00    +0.109 A 
ATOM     11  C   UNL     1       1.694  -7.632  27.242  0.00  0.00    +0.135 A 
ATOM     12  C   UNL     1       1.242  -7.149  28.467  0.00  0.00    +0.091 A 
ATOM     13  C   UNL     1       1.854  -6.030  29.019  0.00  0.00    +0.124 A 
ATOM     14  C   UNL     1       3.276  -7.506  25.303  0.00  0.00    +0.238 A 
ATOM     15  O   UNL     1       2.726  -8.469  24.765  0.00  0.00    -0.283 OA
ATOM     16  C   UNL     1       2.900  -5.389  28.359  0.00  0.00    +0.092 A 
ATOM     17  C   UNL     1       4.493  -6.849  24.742  0.00  0.00    +0.208 A 
BRANCH  11  18
ATOM     18  O   UNL     1       1.056  -8.736  26.745  0.00  0.00    -0.506 OA
ATOM     19  H   UNL     1       1.688  -9.491  26.766  0.00  0.00    +0.292 HD
ENDBRANCH  11  18
BRANCH  13  20
ATOM     20  O   UNL     1       1.451  -5.526  30.223  0.00  0.00    -0.507 OA
ATOM     21  H   UNL     1       2.146  -5.698  30.882  0.00  0.00    +0.292 HD
ENDBRANCH  13  20
BRANCH  17  22
ATOM     22  O   UNL     1       5.081  -7.460  23.653  0.00  0.00    -0.501 OA
ATOM     23  H   UNL     1       4.386  -7.803  23.069  0.00  0.00    +0.292 HD
ENDBRANCH  17  22
ENDBRANCH   2   7
BRANCH   4  24
ATOM     24  O   UNL     1       7.504  -3.210  21.968  0.00  0.00    -0.503 OA
ATOM     25  H   UNL     1       8.314  -2.668  21.936  0.00  0.00    +0.292 HD
ENDBRANCH   4  24
BRANCH   5  26
ATOM     26  O   UNL     1       9.061  -2.043  23.918  0.00  0.00    -0.457 OA
BRANCH  26  27
ATOM     27  C   UNL     1       8.415  -0.749  23.872  0.00  0.00    +0.341 C 
ATOM     28  O   UNL     1       7.987  -0.427  22.545  0.00  0.00    -0.308 OA
ATOM     29  C   UNL     1       8.976   0.156  21.711  0.00  0.00    +0.283 C 
ATOM     30  C   UNL     1       9.348   1.523  22.288  0.00  0.00    +0.201 C 
ATOM     31  C   UNL     1      10.017   1.313  23.648  0.00  0.00    +0.182 C 
ATOM     32  C   UNL     1       9.174   0.415  24.567  0.00  0.00    +0.214 C 
BRANCH  29  33
ATOM     33  O   UNL     1      10.093  -0.686  21.461  0.00  0.00    -0.365 OA
ATOM     34  H   UNL     1       9.915  -1.593  21.750  0.00  0.00    +0.213 HD
ENDBRANCH  29  33
BRANCH  30  35
ATOM     35  O   UNL     1      10.183   2.284  21.417  0.00  0.00    -0.384 OA
ATOM     36  H   UNL     1       9.614   2.777  20.799  0.00  0.00    +0.210 HD
ENDBRANCH  30  35
BRANCH  31  37
ATOM     37  O   UNL     1      10.235   2.570  24.317  0.00  0.00    -0.386 OA
ATOM     38  H   UNL     1      10.830   2.420  25.077  0.00  0.00    +0.210 HD
ENDBRANCH  31  37
BRANCH  32  39
ATOM     39  O   UNL     1       9.935  -0.050  25.688  0.00  0.00    -0.383 OA
ATOM     40  H   UNL     1      10.005  -1.021  25.625  0.00  0.00    +0.210 HD
ENDBRANCH  32  39
ENDBRANCH  26  27
ENDBRANCH   5  26
TORSDOF 11
ENDMDL
MODEL 8
REMARK VINA RESULT:      -7.0      1.603      2.767
REMARK  Name = 
REMARK  11 active torsions:
REMARK  status: ('A' for Active; 'I' for Inactive)
REMARK    1  A    between atoms: C_3  and  O_22
REMARK    2  A    between atoms: C_4  and  O_21
REMARK    3  A    between atoms: C_6  and  C_7
REMARK    4  A    between atoms: C_8  and  O_20
REMARK    5  A    between atoms: C_12  and  O_19
REMARK    6  A    between atoms: C_14  and  O_18
REMARK    7  A    between atoms: O_22  and  C_23
REMARK    8  A    between atoms: C_25  and  O_35
REMARK    9  A    between atoms: C_26  and  O_34
REMARK   10  A    between atoms: C_27  and  O_33
REMARK   11  A    between atoms: C_29  and  O_32
REMARK                            x       y       z     vdW  Elec       q    Type
REMARK                         _______ _______ _______ _____ _____    ______ ____
ROOT
ATOM      1  C   UNL     1       7.413   0.028  22.907  0.00  0.00    +0.015 A 
ATOM      2  C   UNL     1       8.634   0.357  23.508  0.00  0.00    +0.025 A 
ATOM      3  C   UNL     1       9.503  -0.703  23.822  0.00  0.00    +0.060 A 
ATOM      4  C   UNL     1       9.123  -2.035  23.590  0.00  0.00    +0.159 A 
ATOM      5  C   UNL     1       7.859  -2.359  23.094  0.00  0.00    +0.165 A 
ATOM      6  C   UNL     1       7.037  -1.301  22.697  0.00  0.00    +0.050 A 
ENDROOT
BRANCH   2   7
ATOM      7  C   UNL     1       8.877   1.786  23.859  0.00  0.00    +0.181 A 
ATOM      8  O   UNL     1       8.161   2.169  24.997  0.00  0.00    -0.451 OA
ATOM      9  C   UNL     1       8.188   3.472  25.413  0.00  0.00    +0.147 A 
ATOM     10  C   UNL     1       9.019   4.422  24.833  0.00  0.00    +0.109 A 
ATOM     11  C   UNL     1       9.014   5.737  25.317  0.00  0.00    +0.135 A 
ATOM     12  C   UNL     1       8.176   6.105  26.366  0.00  0.00    +0.091 A 
ATOM     13  C   UNL     1       7.342   5.148  26.931  0.00  0.00    +0.124 A 
ATOM     14  C   UNL     1       9.857   4.013  23.707  0.00  0.00    +0.238 A 
ATOM     15  O   UNL     1      10.641   4.827  23.214  0.00  0.00    -0.283 OA
ATOM     16  C   UNL     1       7.343   3.835  26.466  0.00  0.00    +0.092 A 
ATOM     17  C   UNL     1       9.685   2.628  23.179  0.00  0.00    +0.208 A 
BRANCH  11  18
ATOM     18  O   UNL     1       9.814   6.720  24.799  0.00  0.00    -0.506 OA
ATOM     19  H   UNL     1      10.698   6.328  24.612  0.00  0.00    +0.292 HD
ENDBRANCH  11  18
BRANCH  13  20
ATOM     20  O   UNL     1       6.496   5.464  27.956  0.00  0.00    -0.507 OA
ATOM     21  H   UNL     1       6.334   4.664  28.485  0.00  0.00    +0.292 HD
ENDBRANCH  13  20
BRANCH  17  22
ATOM     22  O   UNL     1      10.341   2.328  22.002  0.00  0.00    -0.501 OA
ATOM     23  H   UNL     1      10.399   3.130  21.458  0.00  0.00    +0.292 HD
ENDBRANCH  17  22
ENDBRANCH   2   7
BRANCH   4  24
ATOM     24  O   UNL     1      10.028  -3.015  23.898  0.00  0.00    -0.503 OA
ATOM     25  H   UNL     1       9.558  -3.861  23.774  0.00  0.00    +0.292 HD
ENDBRANCH   4  24
BRANCH   5  26
ATOM     26  O   UNL     1       7.485  -3.697  23.089  0.00  0.00    -0.457 OA
BRANCH  26  27
ATOM     27  C   UNL     1       6.125  -3.907  23.536  0.00  0.00    +0.341 C 
ATOM     28  O   UNL     1       5.986  -3.624  24.932  0.00  0.00    -0.308 OA
ATOM     29  C   UNL     1       6.324  -4.690  25.805  0.00  0.00    +0.283 C 
ATOM     30  C   UNL     1       5.324  -5.827  25.589  0.00  0.00    +0.201 C 
ATOM     31  C   UNL     1       5.505  -6.373  24.172  0.00  0.00    +0.182 C 
ATOM     32  C   UNL     1       5.472  -5.253  23.119  0.00  0.00    +0.214 C 
BRANCH  29  33
ATOM     33  O   UNL     1       7.684  -5.097  25.724  0.00  0.00    -0.365 OA
ATOM     34  H   UNL     1       8.070  -4.844  24.873  0.00  0.00    +0.213 HD
ENDBRANCH  29  33
BRANCH  30  35
ATOM     35  O   UNL     1       5.447  -6.866  26.558  0.00  0.00    -0.384 OA
ATOM     36  H   UNL     1       5.359  -6.470  27.445  0.00  0.00    +0.210 HD
ENDBRANCH  30  35
BRANCH  31  37
ATOM     37  O   UNL     1       4.478  -7.330  23.850  0.00  0.00    -0.386 OA
ATOM     38  H   UNL     1       4.591  -7.609  22.921  0.00  0.00    +0.210 HD
ENDBRANCH  31  37
BRANCH  32  39
ATOM     39  O   UNL     1       5.967  -5.708  21.854  0.00  0.00    -0.383 OA
ATOM     40  H   UNL     1       6.662  -5.088  21.560  0.00  0.00    +0.210 HD
ENDBRANCH  32  39
ENDBRANCH  26  27
ENDBRANCH   5  26
TORSDOF 11
ENDMDL
MODEL 9
REMARK VINA RESULT:      -6.9      2.163      3.731
REMARK  Name = 
REMARK  11 active torsions:
REMARK  status: ('A' for Active; 'I' for Inactive)
REMARK    1  A    between atoms: C_3  and  O_22
REMARK    2  A    between atoms: C_4  and  O_21
REMARK    3  A    between atoms: C_6  and  C_7
REMARK    4  A    between atoms: C_8  and  O_20
REMARK    5  A    between atoms: C_12  and  O_19
REMARK    6  A    between atoms: C_14  and  O_18
REMARK    7  A    between atoms: O_22  and  C_23
REMARK    8  A    between atoms: C_25  and  O_35
REMARK    9  A    between atoms: C_26  and  O_34
REMARK   10  A    between atoms: C_27  and  O_33
REMARK   11  A    between atoms: C_29  and  O_32
REMARK                            x       y       z     vdW  Elec       q    Type
REMARK                         _______ _______ _______ _____ _____    ______ ____
ROOT
ATOM      1  C   UNL     1       7.627  -2.846  23.817  0.00  0.00    +0.015 A 
ATOM      2  C   UNL     1       7.584  -1.843  24.793  0.00  0.00    +0.025 A 
ATOM      3  C   UNL     1       7.072  -2.195  26.054  0.00  0.00    +0.060 A 
ATOM      4  C   UNL     1       6.575  -3.487  26.293  0.00  0.00    +0.159 A 
ATOM      5  C   UNL     1       6.521  -4.447  25.280  0.00  0.00    +0.165 A 
ATOM      6  C   UNL     1       7.115  -4.123  24.058  0.00  0.00    +0.050 A 
ENDROOT
BRANCH   2   7
ATOM      7  C   UNL     1       7.985  -0.463  24.394  0.00  0.00    +0.181 A 
ATOM      8  O   UNL     1       6.886   0.301  23.990  0.00  0.00    -0.451 OA
ATOM      9  C   UNL     1       7.076   1.564  23.501  0.00  0.00    +0.147 A 
ATOM     10  C   UNL     1       8.316   2.190  23.517  0.00  0.00    +0.109 A 
ATOM     11  C   UNL     1       8.442   3.493  23.017  0.00  0.00    +0.135 A 
ATOM     12  C   UNL     1       7.340   4.163  22.494  0.00  0.00    +0.091 A 
ATOM     13  C   UNL     1       6.107   3.522  22.474  0.00  0.00    +0.124 A 
ATOM     14  C   UNL     1       9.461   1.444  24.037  0.00  0.00    +0.238 A 
ATOM     15  O   UNL     1      10.559   2.001  24.110  0.00  0.00    -0.283 OA
ATOM     16  C   UNL     1       5.966   2.230  22.976  0.00  0.00    +0.092 A 
ATOM     17  C   UNL     1       9.248   0.016  24.413  0.00  0.00    +0.208 A 
BRANCH  11  18
ATOM     18  O   UNL     1       9.631   4.172  23.012  0.00  0.00    -0.506 OA
ATOM     19  H   UNL     1       9.665   4.724  22.198  0.00  0.00    +0.292 HD
ENDBRANCH  11  18
BRANCH  13  20
ATOM     20  O   UNL     1       4.999   4.136  21.962  0.00  0.00    -0.507 OA
ATOM     21  H   UNL     1       5.085   4.178  20.994  0.00  0.00    +0.292 HD
ENDBRANCH  13  20
BRANCH  17  22
ATOM     22  O   UNL     1      10.377  -0.720  24.715  0.00  0.00    -0.501 OA
ATOM     23  H   UNL     1      10.675  -1.184  23.917  0.00  0.00    +0.292 HD
ENDBRANCH  17  22
ENDBRANCH   2   7
BRANCH   4  24
ATOM     24  O   UNL     1       6.114  -3.767  27.551  0.00  0.00    -0.503 OA
ATOM     25  H   UNL     1       6.466  -4.649  27.774  0.00  0.00    +0.292 HD
ENDBRANCH   4  24
BRANCH   5  26
ATOM     26  O   UNL     1       5.829  -5.625  25.537  0.00  0.00    -0.457 OA
BRANCH  26  27
ATOM     27  C   UNL     1       4.438  -5.560  25.147  0.00  0.00    +0.341 C 
ATOM     28  O   UNL     1       3.588  -5.346  26.278  0.00  0.00    -0.308 OA
ATOM     29  C   UNL     1       3.223  -6.514  26.995  0.00  0.00    +0.283 C 
ATOM     30  C   UNL     1       2.358  -7.388  26.084  0.00  0.00    +0.201 C 
ATOM     31  C   UNL     1       3.216  -7.867  24.911  0.00  0.00    +0.182 C 
ATOM     32  C   UNL     1       3.939  -6.701  24.218  0.00  0.00    +0.214 C 
BRANCH  29  33
ATOM     33  O   UNL     1       4.320  -7.203  27.580  0.00  0.00    -0.365 OA
ATOM     34  H   UNL     1       5.078  -7.221  26.977  0.00  0.00    +0.213 HD
ENDBRANCH  29  33
BRANCH  30  35
ATOM     35  O   UNL     1       1.767  -8.489  26.771  0.00  0.00    -0.384 OA
ATOM     36  H   UNL     1       1.009  -8.159  27.285  0.00  0.00    +0.210 HD
ENDBRANCH  30  35
BRANCH  31  37
ATOM     37  O   UNL     1       2.414  -8.553  23.930  0.00  0.00    -0.386 OA
ATOM     38  H   UNL     1       2.872  -9.376  23.673  0.00  0.00    +0.210 HD
ENDBRANCH  31  37
BRANCH  32  39
ATOM     39  O   UNL     1       4.981  -7.170  23.354  0.00  0.00    -0.383 OA
ATOM     40  H   UNL     1       4.569  -7.680  22.631  0.00  0.00    +0.210 HD
ENDBRANCH  32  39
ENDBRANCH  26  27
ENDBRANCH   5  26
TORSDOF 11
ENDMDL
