MODEL 1
REMARK VINA RESULT:      -7.0      0.000      0.000
REMARK  Name = 
REMARK  17 active torsions:
REMARK  status: ('A' for Active; 'I' for Inactive)
REMARK    1  A    between atoms: C_2  and  C_44
REMARK    2  A    between atoms: C_2  and  O_46
REMARK    3  A    between atoms: C_3  and  O_43
REMARK    4  A    between atoms: C_5  and  O_8
REMARK    5  A    between atoms: O_8  and  C_9
REMARK    6  A    between atoms: C_10  and  O_21
REMARK    7  A    between atoms: C_13  and  C_19
REMARK    8  A    between atoms: C_14  and  O_18
REMARK    9  A    between atoms: C_16  and  O_17
REMARK   10  A    between atoms: C_19  and  O_20
REMARK   11  A    between atoms: O_21  and  C_22
REMARK   12  A    between atoms: C_23  and  C_35
REMARK   13  A    between atoms: C_27  and  O_34
REMARK   14  A    between atoms: C_29  and  O_33
REMARK   15  A    between atoms: C_37  and  O_42
REMARK   16  A    between atoms: C_38  and  O_41
REMARK   17  A    between atoms: C_44  and  O_45
REMARK                            x       y       z     vdW  Elec       q    Type
REMARK                         _______ _______ _______ _____ _____    ______ ____
ROOT
ATOM      1  C   UNL     1       7.701   1.442  23.909  0.00  0.00    +0.221 C 
ATOM      2  C   UNL     1       9.169   1.817  24.183  0.00  0.00    +0.180 C 
ATOM      3  C   UNL     1       9.982   1.768  22.876  0.00  0.00    +0.177 C 
ATOM      4  C   UNL     1       9.736   0.489  22.056  0.00  0.00    +0.179 C 
ATOM      5  O   UNL     1       8.358   0.105  21.992  0.00  0.00    -0.331 OA
ATOM      6  C   UNL     1       7.606   0.063  23.205  0.00  0.00    +0.340 C 
ENDROOT
BRANCH   3   7
ATOM      7  O   UNL     1       9.637   2.902  22.057  0.00  0.00    -0.386 OA
ATOM      8  H   UNL     1       8.660   2.908  21.953  0.00  0.00    +0.210 HD
ENDBRANCH   3   7
BRANCH   2   9
ATOM      9  O   UNL     1       9.752   1.020  25.217  0.00  0.00    -0.386 OA
ATOM     10  H   UNL     1       9.733   0.097  24.924  0.00  0.00    +0.210 HD
ENDBRANCH   2   9
BRANCH   6  11
ATOM     11  O   UNL     1       7.967  -1.004  24.098  0.00  0.00    -0.453 OA
BRANCH  11  12
ATOM     12  C   UNL     1       7.131  -2.125  24.208  0.00  0.00    +0.214 A 
ATOM     13  C   UNL     1       7.140  -3.238  23.183  0.00  0.00    +0.238 A 
ATOM     14  O   UNL     1       7.801  -3.163  22.156  0.00  0.00    -0.283 OA
ATOM     15  C   UNL     1       6.298  -4.424  23.425  0.00  0.00    +0.109 A 
ATOM     16  C   UNL     1       5.530  -4.439  24.583  0.00  0.00    +0.147 A 
ATOM     17  C   UNL     1       4.735  -5.543  24.904  0.00  0.00    +0.092 A 
ATOM     18  C   UNL     1       4.697  -6.636  24.050  0.00  0.00    +0.124 A 
ATOM     19  C   UNL     1       5.438  -6.632  22.872  0.00  0.00    +0.091 A 
ATOM     20  O   UNL     1       5.489  -3.396  25.456  0.00  0.00    -0.451 OA
ATOM     21  C   UNL     1       6.239  -5.530  22.563  0.00  0.00    +0.135 A 
ATOM     22  C   UNL     1       6.273  -2.267  25.251  0.00  0.00    +0.181 A 
BRANCH  22  23
ATOM     23  C   UNL     1       5.995  -1.256  26.318  0.00  0.00    +0.025 A 
ATOM     24  C   UNL     1       4.653  -1.000  26.687  0.00  0.00    +0.015 A 
ATOM     25  C   UNL     1       4.322  -0.085  27.692  0.00  0.00    +0.050 A 
ATOM     26  C   UNL     1       5.334   0.615  28.320  0.00  0.00    +0.158 A 
ATOM     27  C   UNL     1       6.661   0.392  27.973  0.00  0.00    +0.159 A 
ATOM     28  C   UNL     1       6.994  -0.560  27.011  0.00  0.00    +0.060 A 
BRANCH  27  29
ATOM     29  O   UNL     1       7.620   1.137  28.603  0.00  0.00    -0.503 OA
ATOM     30  H   UNL     1       7.202   1.944  28.958  0.00  0.00    +0.292 HD
ENDBRANCH  27  29
BRANCH  26  31
ATOM     31  O   UNL     1       5.018   1.532  29.278  0.00  0.00    -0.503 OA
ATOM     32  H   UNL     1       5.824   2.076  29.375  0.00  0.00    +0.292 HD
ENDBRANCH  26  31
ENDBRANCH  22  23
BRANCH  18  33
ATOM     33  O   UNL     1       3.941  -7.729  24.321  0.00  0.00    -0.507 OA
ATOM     34  H   UNL     1       3.051  -7.603  23.954  0.00  0.00    +0.292 HD
ENDBRANCH  18  33
BRANCH  21  35
ATOM     35  O   UNL     1       6.948  -5.553  21.397  0.00  0.00    -0.506 OA
ATOM     36  H   UNL     1       6.566  -4.938  20.752  0.00  0.00    +0.292 HD
ENDBRANCH  21  35
ENDBRANCH  11  12
ENDBRANCH   6  11
BRANCH   4  37
ATOM     37  C   UNL     1      10.598  -0.706  22.477  0.00  0.00    +0.190 C 
BRANCH  37  38
ATOM     38  O   UNL     1      10.180  -1.883  21.785  0.00  0.00    -0.392 OA
ATOM     39  H   UNL     1       9.346  -1.655  21.322  0.00  0.00    +0.210 HD
ENDBRANCH  37  38
ENDBRANCH   4  37
BRANCH   1  40
ATOM     40  O   UNL     1       7.194   2.504  23.074  0.00  0.00    -0.337 OA
BRANCH  40  43
ATOM     41  C   UNL     1       4.710   4.854  23.220  0.00  0.00    +0.202 C 
ATOM     42  O   UNL     1       5.172   3.547  23.593  0.00  0.00    -0.346 OA
ATOM     43  C   UNL     1       6.600   3.600  23.747  0.00  0.00    +0.282 C 
ATOM     44  C   UNL     1       7.076   4.977  23.246  0.00  0.00    +0.206 C 
ATOM     45  C   UNL     1       5.845   5.825  23.529  0.00  0.00    +0.142 C 
BRANCH  45  46
ATOM     46  O   UNL     1       5.850   6.219  24.921  0.00  0.00    -0.381 OA
ATOM     47  H   UNL     1       5.167   6.897  25.068  0.00  0.00    +0.210 HD
ENDBRANCH  45  46
BRANCH  44  48
ATOM     48  O   UNL     1       7.397   4.936  21.854  0.00  0.00    -0.384 OA
ATOM     49  H   UNL     1       7.161   4.047  21.528  0.00  0.00    +0.210 HD
ENDBRANCH  44  48
BRANCH  45  50
ATOM     50  C   UNL     1       5.746   7.108  22.710  0.00  0.00    +0.195 C 
BRANCH  50  51
ATOM     51  O   UNL     1       5.030   6.833  21.504  0.00  0.00    -0.392 OA
ATOM     52  H   UNL     1       5.008   5.856  21.445  0.00  0.00    +0.210 HD
ENDBRANCH  50  51
ENDBRANCH  45  50
ENDBRANCH  40  43
ENDBRANCH   1  40
TORSDOF 17
ENDMDL
MODEL 2
REMARK VINA RESULT:      -6.9      1.734      4.986
REMARK  Name = 
REMARK  17 active torsions:
REMARK  status: ('A' for Active; 'I' for Inactive)
REMARK    1  A    between atoms: C_2  and  C_44
REMARK    2  A    between atoms: C_2  and  O_46
REMARK    3  A    between atoms: C_3  and  O_43
REMARK    4  A    between atoms: C_5  and  O_8
REMARK    5  A    between atoms: O_8  and  C_9
REMARK    6  A    between atoms: C_10  and  O_21
REMARK    7  A    between atoms: C_13  and  C_19
REMARK    8  A    between atoms: C_14  and  O_18
REMARK    9  A    between atoms: C_16  and  O_17
REMARK   10  A    between atoms: C_19  and  O_20
REMARK   11  A    between atoms: O_21  and  C_22
REMARK   12  A    between atoms: C_23  and  C_35
REMARK   13  A    between atoms: C_27  and  O_34
REMARK   14  A    between atoms: C_29  and  O_33
REMARK   15  A    between atoms: C_37  and  O_42
REMARK   16  A    between atoms: C_38  and  O_41
REMARK   17  A    between atoms: C_44  and  O_45
REMARK                            x       y       z     vdW  Elec       q    Type
REMARK                         _______ _______ _______ _____ _____    ______ ____
ROOT
ATOM      1  C   UNL     1       8.710   1.731  24.205  0.00  0.00    +0.221 C 
ATOM      2  C   UNL     1      10.111   1.310  23.722  0.00  0.00    +0.180 C 
ATOM      3  C   UNL     1      10.058   0.895  22.240  0.00  0.00    +0.177 C 
ATOM      4  C   UNL     1       8.899  -0.066  21.920  0.00  0.00    +0.179 C 
ATOM      5  O   UNL     1       7.664   0.296  22.549  0.00  0.00    -0.331 OA
ATOM      6  C   UNL     1       7.676   0.605  23.943  0.00  0.00    +0.340 C 
ENDROOT
BRANCH   3   7
ATOM      7  O   UNL     1       9.910   2.070  21.420  0.00  0.00    -0.386 OA
ATOM      8  H   UNL     1       9.798   1.772  20.490  0.00  0.00    +0.210 HD
ENDBRANCH   3   7
BRANCH   2   9
ATOM      9  O   UNL     1      10.694   0.302  24.551  0.00  0.00    -0.386 OA
ATOM     10  H   UNL     1      11.541   0.640  24.875  0.00  0.00    +0.210 HD
ENDBRANCH   2   9
BRANCH   6  11
ATOM     11  O   UNL     1       7.903  -0.522  24.805  0.00  0.00    -0.453 OA
BRANCH  11  12
ATOM     12  C   UNL     1       6.875  -0.962  25.652  0.00  0.00    +0.214 A 
ATOM     13  C   UNL     1       6.499  -0.216  26.915  0.00  0.00    +0.238 A 
ATOM     14  O   UNL     1       7.143   0.746  27.309  0.00  0.00    -0.283 OA
ATOM     15  C   UNL     1       5.344  -0.695  27.696  0.00  0.00    +0.109 A 
ATOM     16  C   UNL     1       4.675  -1.820  27.230  0.00  0.00    +0.147 A 
ATOM     17  C   UNL     1       3.548  -2.313  27.894  0.00  0.00    +0.092 A 
ATOM     18  C   UNL     1       3.095  -1.682  29.043  0.00  0.00    +0.124 A 
ATOM     19  C   UNL     1       3.764  -0.568  29.543  0.00  0.00    +0.091 A 
ATOM     20  O   UNL     1       5.074  -2.511  26.129  0.00  0.00    -0.451 OA
ATOM     21  C   UNL     1       4.883  -0.074  28.869  0.00  0.00    +0.135 A 
ATOM     22  C   UNL     1       6.159  -2.082  25.374  0.00  0.00    +0.181 A 
BRANCH  22  23
ATOM     23  C   UNL     1       6.418  -3.048  24.261  0.00  0.00    +0.025 A 
ATOM     24  C   UNL     1       7.281  -4.145  24.493  0.00  0.00    +0.015 A 
ATOM     25  C   UNL     1       7.549  -5.099  23.505  0.00  0.00    +0.050 A 
ATOM     26  C   UNL     1       6.980  -4.947  22.255  0.00  0.00    +0.158 A 
ATOM     27  C   UNL     1       6.136  -3.875  21.994  0.00  0.00    +0.159 A 
ATOM     28  C   UNL     1       5.825  -2.955  22.995  0.00  0.00    +0.060 A 
BRANCH  27  29
ATOM     29  O   UNL     1       5.628  -3.754  20.730  0.00  0.00    -0.503 OA
ATOM     30  H   UNL     1       6.095  -3.028  20.277  0.00  0.00    +0.292 HD
ENDBRANCH  27  29
BRANCH  26  31
ATOM     31  O   UNL     1       7.262  -5.855  21.278  0.00  0.00    -0.503 OA
ATOM     32  H   UNL     1       6.437  -5.919  20.756  0.00  0.00    +0.292 HD
ENDBRANCH  26  31
ENDBRANCH  22  23
BRANCH  18  33
ATOM     33  O   UNL     1       2.005  -2.124  29.718  0.00  0.00    -0.507 OA
ATOM     34  H   UNL     1       1.477  -1.363  30.009  0.00  0.00    +0.292 HD
ENDBRANCH  18  33
BRANCH  21  35
ATOM     35  O   UNL     1       5.521   1.015  29.387  0.00  0.00    -0.506 OA
ATOM     36  H   UNL     1       5.618   0.929  30.349  0.00  0.00    +0.292 HD
ENDBRANCH  21  35
ENDBRANCH  11  12
ENDBRANCH   6  11
BRANCH   4  37
ATOM     37  C   UNL     1       9.213  -1.542  22.183  0.00  0.00    +0.190 C 
BRANCH  37  38
ATOM     38  O   UNL     1      10.623  -1.763  22.132  0.00  0.00    -0.392 OA
ATOM     39  H   UNL     1      10.814  -2.498  22.752  0.00  0.00    +0.210 HD
ENDBRANCH  37  38
ENDBRANCH   4  37
BRANCH   1  40
ATOM     40  O   UNL     1       8.400   2.925  23.458  0.00  0.00    -0.337 OA
BRANCH  40  43
ATOM     41  C   UNL     1       5.504   3.282  25.245  0.00  0.00    +0.202 C 
ATOM     42  O   UNL     1       6.938   3.219  25.252  0.00  0.00    -0.346 OA
ATOM     43  C   UNL     1       7.420   3.780  24.020  0.00  0.00    +0.282 C 
ATOM     44  C   UNL     1       6.204   4.027  23.108  0.00  0.00    +0.206 C 
ATOM     45  C   UNL     1       5.113   4.261  24.142  0.00  0.00    +0.142 C 
BRANCH  45  46
ATOM     46  O   UNL     1       5.177   5.633  24.596  0.00  0.00    -0.381 OA
ATOM     47  H   UNL     1       5.434   5.653  25.535  0.00  0.00    +0.210 HD
ENDBRANCH  45  46
BRANCH  44  48
ATOM     48  O   UNL     1       5.936   2.887  22.287  0.00  0.00    -0.384 OA
ATOM     49  H   UNL     1       5.325   2.311  22.783  0.00  0.00    +0.210 HD
ENDBRANCH  44  48
BRANCH  45  50
ATOM     50  C   UNL     1       3.691   4.029  23.642  0.00  0.00    +0.195 C 
BRANCH  50  51
ATOM     51  O   UNL     1       3.462   2.623  23.535  0.00  0.00    -0.392 OA
ATOM     52  H   UNL     1       4.291   2.211  23.854  0.00  0.00    +0.210 HD
ENDBRANCH  50  51
ENDBRANCH  45  50
ENDBRANCH  40  43
ENDBRANCH   1  40
TORSDOF 17
ENDMDL
MODEL 3
REMARK VINA RESULT:      -6.8      2.653      8.238
REMARK  Name = 
REMARK  17 active torsions:
REMARK  status: ('A' for Active; 'I' for Inactive)
REMARK    1  A    between atoms: C_2  and  C_44
REMARK    2  A    between atoms: C_2  and  O_46
REMARK    3  A    between atoms: C_3  and  O_43
REMARK    4  A    between atoms: C_5  and  O_8
REMARK    5  A    between atoms: O_8  and  C_9
REMARK    6  A    between atoms: C_10  and  O_21
REMARK    7  A    between atoms: C_13  and  C_19
REMARK    8  A    between atoms: C_14  and  O_18
REMARK    9  A    between atoms: C_16  and  O_17
REMARK   10  A    between atoms: C_19  and  O_20
REMARK   11  A    between atoms: O_21  and  C_22
REMARK   12  A    between atoms: C_23  and  C_35
REMARK   13  A    between atoms: C_27  and  O_34
REMARK   14  A    between atoms: C_29  and  O_33
REMARK   15  A    between atoms: C_37  and  O_42
REMARK   16  A    between atoms: C_38  and  O_41
REMARK   17  A    between atoms: C_44  and  O_45
REMARK                            x       y       z     vdW  Elec       q    Type
REMARK                         _______ _______ _______ _____ _____    ______ ____
ROOT
ATOM      1  C   UNL     1       5.936  -4.113  24.556  0.00  0.00    +0.221 C 
ATOM      2  C   UNL     1       5.983  -4.425  23.048  0.00  0.00    +0.180 C 
ATOM      3  C   UNL     1       7.442  -4.450  22.557  0.00  0.00    +0.177 C 
ATOM      4  C   UNL     1       8.265  -3.243  23.039  0.00  0.00    +0.179 C 
ATOM      5  O   UNL     1       8.036  -2.904  24.412  0.00  0.00    -0.331 OA
ATOM      6  C   UNL     1       6.688  -2.794  24.869  0.00  0.00    +0.340 C 
ENDROOT
BRANCH   3   7
ATOM      7  O   UNL     1       8.084  -5.651  23.028  0.00  0.00    -0.386 OA
ATOM      8  H   UNL     1       8.210  -5.560  23.998  0.00  0.00    +0.210 HD
ENDBRANCH   3   7
BRANCH   2   9
ATOM      9  O   UNL     1       5.164  -3.538  22.282  0.00  0.00    -0.386 OA
ATOM     10  H   UNL     1       5.303  -2.642  22.622  0.00  0.00    +0.210 HD
ENDBRANCH   2   9
BRANCH   6  11
ATOM     11  O   UNL     1       5.974  -1.654  24.362  0.00  0.00    -0.453 OA
BRANCH  11  12
ATOM     12  C   UNL     1       5.605  -0.624  25.240  0.00  0.00    +0.214 A 
ATOM     13  C   UNL     1       4.449  -0.768  26.207  0.00  0.00    +0.238 A 
ATOM     14  O   UNL     1       3.719  -1.749  26.196  0.00  0.00    -0.283 OA
ATOM     15  C   UNL     1       4.189   0.327  27.160  0.00  0.00    +0.109 A 
ATOM     16  C   UNL     1       5.019   1.440  27.100  0.00  0.00    +0.147 A 
ATOM     17  C   UNL     1       4.862   2.502  27.994  0.00  0.00    +0.092 A 
ATOM     18  C   UNL     1       3.855   2.458  28.948  0.00  0.00    +0.124 A 
ATOM     19  C   UNL     1       2.995   1.364  29.010  0.00  0.00    +0.091 A 
ATOM     20  O   UNL     1       6.010   1.573  26.177  0.00  0.00    -0.451 OA
ATOM     21  C   UNL     1       3.165   0.301  28.120  0.00  0.00    +0.135 A 
ATOM     22  C   UNL     1       6.276   0.556  25.268  0.00  0.00    +0.181 A 
BRANCH  22  23
ATOM     23  C   UNL     1       7.365   0.981  24.336  0.00  0.00    +0.025 A 
ATOM     24  C   UNL     1       7.022   1.415  23.032  0.00  0.00    +0.015 A 
ATOM     25  C   UNL     1       7.988   1.848  22.117  0.00  0.00    +0.050 A 
ATOM     26  C   UNL     1       9.320   1.820  22.484  0.00  0.00    +0.158 A 
ATOM     27  C   UNL     1       9.688   1.390  23.753  0.00  0.00    +0.159 A 
ATOM     28  C   UNL     1       8.722   1.011  24.685  0.00  0.00    +0.060 A 
BRANCH  27  29
ATOM     29  O   UNL     1      11.022   1.351  24.052  0.00  0.00    -0.503 OA
ATOM     30  H   UNL     1      11.384   0.500  23.741  0.00  0.00    +0.292 HD
ENDBRANCH  27  29
BRANCH  26  31
ATOM     31  O   UNL     1      10.269   2.209  21.587  0.00  0.00    -0.503 OA
ATOM     32  H   UNL     1      10.366   3.171  21.734  0.00  0.00    +0.292 HD
ENDBRANCH  26  31
ENDBRANCH  22  23
BRANCH  18  33
ATOM     33  O   UNL     1       3.666   3.465  29.836  0.00  0.00    -0.507 OA
ATOM     34  H   UNL     1       3.921   3.162  30.723  0.00  0.00    +0.292 HD
ENDBRANCH  18  33
BRANCH  21  35
ATOM     35  O   UNL     1       2.302  -0.754  28.201  0.00  0.00    -0.506 OA
ATOM     36  H   UNL     1       2.772  -1.561  28.465  0.00  0.00    +0.292 HD
ENDBRANCH  21  35
ENDBRANCH  11  12
ENDBRANCH   6  11
BRANCH   4  37
ATOM     37  C   UNL     1       8.133  -1.996  22.158  0.00  0.00    +0.190 C 
BRANCH  37  38
ATOM     38  O   UNL     1       9.404  -1.641  21.614  0.00  0.00    -0.392 OA
ATOM     39  H   UNL     1      10.021  -1.560  22.371  0.00  0.00    +0.210 HD
ENDBRANCH  37  38
ENDBRANCH   4  37
BRANCH   1  40
ATOM     40  O   UNL     1       6.561  -5.248  25.191  0.00  0.00    -0.337 OA
BRANCH  40  43
ATOM     41  C   UNL     1       4.084  -5.191  27.552  0.00  0.00    +0.202 C 
ATOM     42  O   UNL     1       4.451  -5.387  26.178  0.00  0.00    -0.346 OA
ATOM     43  C   UNL     1       5.774  -5.946  26.141  0.00  0.00    +0.282 C 
ATOM     44  C   UNL     1       6.340  -5.911  27.573  0.00  0.00    +0.206 C 
ATOM     45  C   UNL     1       5.061  -6.011  28.389  0.00  0.00    +0.142 C 
BRANCH  45  46
ATOM     46  O   UNL     1       4.659  -7.398  28.475  0.00  0.00    -0.381 OA
ATOM     47  H   UNL     1       5.441  -7.969  28.368  0.00  0.00    +0.210 HD
ENDBRANCH  45  46
BRANCH  44  48
ATOM     48  O   UNL     1       7.046  -4.692  27.818  0.00  0.00    -0.384 OA
ATOM     49  H   UNL     1       6.391  -3.969  27.794  0.00  0.00    +0.210 HD
ENDBRANCH  44  48
BRANCH  45  50
ATOM     50  C   UNL     1       5.168  -5.496  29.820  0.00  0.00    +0.195 C 
BRANCH  50  51
ATOM     51  O   UNL     1       6.389  -5.969  30.392  0.00  0.00    -0.392 OA
ATOM     52  H   UNL     1       7.076  -5.363  30.048  0.00  0.00    +0.210 HD
ENDBRANCH  50  51
ENDBRANCH  45  50
ENDBRANCH  40  43
ENDBRANCH   1  40
TORSDOF 17
ENDMDL
MODEL 4
REMARK VINA RESULT:      -6.8      2.500      5.406
REMARK  Name = 
REMARK  17 active torsions:
REMARK  status: ('A' for Active; 'I' for Inactive)
REMARK    1  A    between atoms: C_2  and  C_44
REMARK    2  A    between atoms: C_2  and  O_46
REMARK    3  A    between atoms: C_3  and  O_43
REMARK    4  A    between atoms: C_5  and  O_8
REMARK    5  A    between atoms: O_8  and  C_9
REMARK    6  A    between atoms: C_10  and  O_21
REMARK    7  A    between atoms: C_13  and  C_19
REMARK    8  A    between atoms: C_14  and  O_18
REMARK    9  A    between atoms: C_16  and  O_17
REMARK   10  A    between atoms: C_19  and  O_20
REMARK   11  A    between atoms: O_21  and  C_22
REMARK   12  A    between atoms: C_23  and  C_35
REMARK   13  A    between atoms: C_27  and  O_34
REMARK   14  A    between atoms: C_29  and  O_33
REMARK   15  A    between atoms: C_37  and  O_42
REMARK   16  A    between atoms: C_38  and  O_41
REMARK   17  A    between atoms: C_44  and  O_45
REMARK                            x       y       z     vdW  Elec       q    Type
REMARK                         _______ _______ _______ _____ _____    ______ ____
ROOT
ATOM      1  C   UNL     1       6.550   0.312  25.120  0.00  0.00    +0.221 C 
ATOM      2  C   UNL     1       5.714   1.546  25.509  0.00  0.00    +0.180 C 
ATOM      3  C   UNL     1       5.834   1.813  27.021  0.00  0.00    +0.177 C 
ATOM      4  C   UNL     1       5.643   0.549  27.878  0.00  0.00    +0.179 C 
ATOM      5  O   UNL     1       6.312  -0.604  27.356  0.00  0.00    -0.331 OA
ATOM      6  C   UNL     1       6.147  -0.919  25.972  0.00  0.00    +0.340 C 
ENDROOT
BRANCH   3   7
ATOM      7  O   UNL     1       7.136   2.359  27.307  0.00  0.00    -0.386 OA
ATOM      8  H   UNL     1       7.488   2.742  26.473  0.00  0.00    +0.210 HD
ENDBRANCH   3   7
BRANCH   2   9
ATOM      9  O   UNL     1       4.354   1.439  25.081  0.00  0.00    -0.386 OA
ATOM     10  H   UNL     1       3.789   1.574  25.856  0.00  0.00    +0.210 HD
ENDBRANCH   2   9
BRANCH   6  11
ATOM     11  O   UNL     1       4.836  -1.391  25.618  0.00  0.00    -0.453 OA
BRANCH  11  12
ATOM     12  C   UNL     1       4.612  -2.770  25.487  0.00  0.00    +0.214 A 
ATOM     13  C   UNL     1       3.497  -3.476  26.228  0.00  0.00    +0.238 A 
ATOM     14  O   UNL     1       2.806  -2.897  27.055  0.00  0.00    -0.283 OA
ATOM     15  C   UNL     1       3.272  -4.908  25.960  0.00  0.00    +0.109 A 
ATOM     16  C   UNL     1       4.114  -5.530  25.047  0.00  0.00    +0.147 A 
ATOM     17  C   UNL     1       3.942  -6.876  24.710  0.00  0.00    +0.092 A 
ATOM     18  C   UNL     1       2.925  -7.610  25.305  0.00  0.00    +0.124 A 
ATOM     19  C   UNL     1       2.084  -7.014  26.241  0.00  0.00    +0.091 A 
ATOM     20  O   UNL     1       5.151  -4.889  24.444  0.00  0.00    -0.451 OA
ATOM     21  C   UNL     1       2.256  -5.666  26.564  0.00  0.00    +0.135 A 
ATOM     22  C   UNL     1       5.385  -3.539  24.679  0.00  0.00    +0.181 A 
BRANCH  22  23
ATOM     23  C   UNL     1       6.612  -3.101  23.943  0.00  0.00    +0.025 A 
ATOM     24  C   UNL     1       6.466  -2.368  22.741  0.00  0.00    +0.015 A 
ATOM     25  C   UNL     1       7.569  -1.908  22.015  0.00  0.00    +0.050 A 
ATOM     26  C   UNL     1       8.841  -2.207  22.465  0.00  0.00    +0.158 A 
ATOM     27  C   UNL     1       9.016  -2.934  23.637  0.00  0.00    +0.159 A 
ATOM     28  C   UNL     1       7.917  -3.345  24.390  0.00  0.00    +0.060 A 
BRANCH  27  29
ATOM     29  O   UNL     1      10.296  -3.231  24.018  0.00  0.00    -0.503 OA
ATOM     30  H   UNL     1      10.908  -2.654  23.524  0.00  0.00    +0.292 HD
ENDBRANCH  27  29
BRANCH  26  31
ATOM     31  O   UNL     1       9.920  -1.790  21.746  0.00  0.00    -0.503 OA
ATOM     32  H   UNL     1      10.195  -0.956  22.175  0.00  0.00    +0.292 HD
ENDBRANCH  26  31
ENDBRANCH  22  23
BRANCH  18  33
ATOM     33  O   UNL     1       2.720  -8.917  25.007  0.00  0.00    -0.507 OA
ATOM     34  H   UNL     1       1.792  -9.144  25.182  0.00  0.00    +0.292 HD
ENDBRANCH  18  33
BRANCH  21  35
ATOM     35  O   UNL     1       1.421  -5.113  27.491  0.00  0.00    -0.506 OA
ATOM     36  H   UNL     1       1.784  -4.277  27.823  0.00  0.00    +0.292 HD
ENDBRANCH  21  35
ENDBRANCH  11  12
ENDBRANCH   6  11
BRANCH   4  37
ATOM     37  C   UNL     1       4.181   0.215  28.191  0.00  0.00    +0.190 C 
BRANCH  37  38
ATOM     38  O   UNL     1       4.085  -1.092  28.759  0.00  0.00    -0.392 OA
ATOM     39  H   UNL     1       4.766  -1.641  28.316  0.00  0.00    +0.210 HD
ENDBRANCH  37  38
ENDBRANCH   4  37
BRANCH   1  40
ATOM     40  O   UNL     1       7.920   0.700  25.358  0.00  0.00    -0.337 OA
BRANCH  40  43
ATOM     41  C   UNL     1      10.997   1.290  23.980  0.00  0.00    +0.202 C 
ATOM     42  O   UNL     1       9.983   0.336  24.330  0.00  0.00    -0.346 OA
ATOM     43  C   UNL     1       8.702   0.975  24.208  0.00  0.00    +0.282 C 
ATOM     44  C   UNL     1       8.945   2.475  23.958  0.00  0.00    +0.206 C 
ATOM     45  C   UNL     1      10.292   2.432  23.253  0.00  0.00    +0.142 C 
BRANCH  45  46
ATOM     46  O   UNL     1      10.087   2.129  21.853  0.00  0.00    -0.381 OA
ATOM     47  H   UNL     1      10.904   1.753  21.480  0.00  0.00    +0.210 HD
ENDBRANCH  45  46
BRANCH  44  48
ATOM     48  O   UNL     1       9.000   3.200  25.188  0.00  0.00    -0.384 OA
ATOM     49  H   UNL     1       9.796   3.764  25.157  0.00  0.00    +0.210 HD
ENDBRANCH  44  48
BRANCH  45  50
ATOM     50  C   UNL     1      11.090   3.730  23.309  0.00  0.00    +0.195 C 
BRANCH  50  51
ATOM     51  O   UNL     1      10.184   4.833  23.241  0.00  0.00    -0.392 OA
ATOM     52  H   UNL     1       9.437   4.509  22.698  0.00  0.00    +0.210 HD
ENDBRANCH  50  51
ENDBRANCH  45  50
ENDBRANCH  40  43
ENDBRANCH   1  40
TORSDOF 17
ENDMDL
MODEL 5
REMARK VINA RESULT:      -6.7      2.585      9.202
REMARK  Name = 
REMARK  17 active torsions:
REMARK  status: ('A' for Active; 'I' for Inactive)
REMARK    1  A    between atoms: C_2  and  C_44
REMARK    2  A    between atoms: C_2  and  O_46
REMARK    3  A    between atoms: C_3  and  O_43
REMARK    4  A    between atoms: C_5  and  O_8
REMARK    5  A    between atoms: O_8  and  C_9
REMARK    6  A    between atoms: C_10  and  O_21
REMARK    7  A    between atoms: C_13  and  C_19
REMARK    8  A    between atoms: C_14  and  O_18
REMARK    9  A    between atoms: C_16  and  O_17
REMARK   10  A    between atoms: C_19  and  O_20
REMARK   11  A    between atoms: O_21  and  C_22
REMARK   12  A    between atoms: C_23  and  C_35
REMARK   13  A    between atoms: C_27  and  O_34
REMARK   14  A    between atoms: C_29  and  O_33
REMARK   15  A    between atoms: C_37  and  O_42
REMARK   16  A    between atoms: C_38  and  O_41
REMARK   17  A    between atoms: C_44  and  O_45
REMARK                            x       y       z     vdW  Elec       q    Type
REMARK                         _______ _______ _______ _____ _____    ______ ____
ROOT
ATOM      1  C   UNL     1       4.652  -3.712  25.613  0.00  0.00    +0.221 C 
ATOM      2  C   UNL     1       4.545  -4.144  27.088  0.00  0.00    +0.180 C 
ATOM      3  C   UNL     1       3.461  -3.318  27.806  0.00  0.00    +0.177 C 
ATOM      4  C   UNL     1       3.570  -1.808  27.533  0.00  0.00    +0.179 C 
ATOM      5  O   UNL     1       3.844  -1.490  26.164  0.00  0.00    -0.331 OA
ATOM      6  C   UNL     1       4.902  -2.186  25.503  0.00  0.00    +0.340 C 
ENDROOT
BRANCH   3   7
ATOM      7  O   UNL     1       2.160  -3.762  27.375  0.00  0.00    -0.386 OA
ATOM      8  H   UNL     1       1.917  -3.241  26.578  0.00  0.00    +0.210 HD
ENDBRANCH   3   7
BRANCH   2   9
ATOM      9  O   UNL     1       5.805  -4.094  27.763  0.00  0.00    -0.386 OA
ATOM     10  H   UNL     1       6.370  -3.470  27.286  0.00  0.00    +0.210 HD
ENDBRANCH   2   9
BRANCH   6  11
ATOM     11  O   UNL     1       6.221  -1.840  25.954  0.00  0.00    -0.453 OA
BRANCH  11  12
ATOM     12  C   UNL     1       7.043  -1.047  25.139  0.00  0.00    +0.214 A 
ATOM     13  C   UNL     1       7.343   0.400  25.467  0.00  0.00    +0.238 A 
ATOM     14  O   UNL     1       6.799   0.975  26.399  0.00  0.00    -0.283 OA
ATOM     15  C   UNL     1       8.292   1.133  24.609  0.00  0.00    +0.109 A 
ATOM     16  C   UNL     1       8.846   0.448  23.534  0.00  0.00    +0.147 A 
ATOM     17  C   UNL     1       9.783   1.061  22.697  0.00  0.00    +0.092 A 
ATOM     18  C   UNL     1      10.158   2.377  22.929  0.00  0.00    +0.124 A 
ATOM     19  C   UNL     1       9.597   3.091  23.984  0.00  0.00    +0.091 A 
ATOM     20  O   UNL     1       8.510  -0.832  23.223  0.00  0.00    -0.451 OA
ATOM     21  C   UNL     1       8.670   2.469  24.823  0.00  0.00    +0.135 A 
ATOM     22  C   UNL     1       7.618  -1.546  24.015  0.00  0.00    +0.181 A 
BRANCH  22  23
ATOM     23  C   UNL     1       7.379  -2.897  23.419  0.00  0.00    +0.025 A 
ATOM     24  C   UNL     1       7.968  -4.030  24.032  0.00  0.00    +0.015 A 
ATOM     25  C   UNL     1       7.768  -5.325  23.542  0.00  0.00    +0.050 A 
ATOM     26  C   UNL     1       7.001  -5.501  22.407  0.00  0.00    +0.158 A 
ATOM     27  C   UNL     1       6.419  -4.408  21.777  0.00  0.00    +0.159 A 
ATOM     28  C   UNL     1       6.571  -3.123  22.297  0.00  0.00    +0.060 A 
BRANCH  27  29
ATOM     29  O   UNL     1       5.698  -4.636  20.638  0.00  0.00    -0.503 OA
ATOM     30  H   UNL     1       6.170  -4.230  19.887  0.00  0.00    +0.292 HD
ENDBRANCH  27  29
BRANCH  26  31
ATOM     31  O   UNL     1       6.829  -6.757  21.905  0.00  0.00    -0.503 OA
ATOM     32  H   UNL     1       6.017  -6.696  21.364  0.00  0.00    +0.292 HD
ENDBRANCH  26  31
ENDBRANCH  22  23
BRANCH  18  33
ATOM     33  O   UNL     1      11.064   3.011  22.144  0.00  0.00    -0.507 OA
ATOM     34  H   UNL     1      11.952   2.669  22.338  0.00  0.00    +0.292 HD
ENDBRANCH  18  33
BRANCH  21  35
ATOM     35  O   UNL     1       8.132   3.197  25.845  0.00  0.00    -0.506 OA
ATOM     36  H   UNL     1       8.319   2.777  26.700  0.00  0.00    +0.292 HD
ENDBRANCH  21  35
ENDBRANCH  11  12
ENDBRANCH   6  11
BRANCH   4  37
ATOM     37  C   UNL     1       4.549  -1.070  28.453  0.00  0.00    +0.190 C 
BRANCH  37  38
ATOM     38  O   UNL     1       4.741   0.269  27.994  0.00  0.00    -0.392 OA
ATOM     39  H   UNL     1       3.919   0.526  27.525  0.00  0.00    +0.210 HD
ENDBRANCH  37  38
ENDBRANCH   4  37
BRANCH   1  40
ATOM     40  O   UNL     1       3.392  -4.092  25.022  0.00  0.00    -0.337 OA
BRANCH  40  43
ATOM     41  C   UNL     1       1.956  -6.242  22.779  0.00  0.00    +0.202 C 
ATOM     42  O   UNL     1       2.991  -5.288  23.058  0.00  0.00    -0.346 OA
ATOM     43  C   UNL     1       3.333  -5.387  24.450  0.00  0.00    +0.282 C 
ATOM     44  C   UNL     1       2.309  -6.323  25.121  0.00  0.00    +0.206 C 
ATOM     45  C   UNL     1       1.933  -7.219  23.951  0.00  0.00    +0.142 C 
BRANCH  45  46
ATOM     46  O   UNL     1       2.933  -8.254  23.804  0.00  0.00    -0.381 OA
ATOM     47  H   UNL     1       3.821  -7.862  23.886  0.00  0.00    +0.210 HD
ENDBRANCH  45  46
BRANCH  44  48
ATOM     48  O   UNL     1       1.191  -5.588  25.622  0.00  0.00    -0.384 OA
ATOM     49  H   UNL     1       1.513  -5.041  26.363  0.00  0.00    +0.210 HD
ENDBRANCH  44  48
BRANCH  45  50
ATOM     50  C   UNL     1       0.588  -7.925  24.087  0.00  0.00    +0.195 C 
BRANCH  50  51
ATOM     51  O   UNL     1       0.471  -8.446  25.412  0.00  0.00    -0.392 OA
ATOM     52  H   UNL     1      -0.480  -8.658  25.513  0.00  0.00    +0.210 HD
ENDBRANCH  50  51
ENDBRANCH  45  50
ENDBRANCH  40  43
ENDBRANCH   1  40
TORSDOF 17
ENDMDL
MODEL 6
REMARK VINA RESULT:      -6.6      1.431      2.035
REMARK  Name = 
REMARK  17 active torsions:
REMARK  status: ('A' for Active; 'I' for Inactive)
REMARK    1  A    between atoms: C_2  and  C_44
REMARK    2  A    between atoms: C_2  and  O_46
REMARK    3  A    between atoms: C_3  and  O_43
REMARK    4  A    between atoms: C_5  and  O_8
REMARK    5  A    between atoms: O_8  and  C_9
REMARK    6  A    between atoms: C_10  and  O_21
REMARK    7  A    between atoms: C_13  and  C_19
REMARK    8  A    between atoms: C_14  and  O_18
REMARK    9  A    between atoms: C_16  and  O_17
REMARK   10  A    between atoms: C_19  and  O_20
REMARK   11  A    between atoms: O_21  and  C_22
REMARK   12  A    between atoms: C_23  and  C_35
REMARK   13  A    between atoms: C_27  and  O_34
REMARK   14  A    between atoms: C_29  and  O_33
REMARK   15  A    between atoms: C_37  and  O_42
REMARK   16  A    between atoms: C_38  and  O_41
REMARK   17  A    between atoms: C_44  and  O_45
REMARK                            x       y       z     vdW  Elec       q    Type
REMARK                         _______ _______ _______ _____ _____    ______ ____
ROOT
ATOM      1  C   UNL     1       7.138   1.893  24.217  0.00  0.00    +0.221 C 
ATOM      2  C   UNL     1       8.586   2.414  24.308  0.00  0.00    +0.180 C 
ATOM      3  C   UNL     1       9.162   2.628  22.896  0.00  0.00    +0.177 C 
ATOM      4  C   UNL     1       8.912   1.439  21.952  0.00  0.00    +0.179 C 
ATOM      5  O   UNL     1       7.591   0.896  22.050  0.00  0.00    -0.331 OA
ATOM      6  C   UNL     1       7.068   0.611  23.348  0.00  0.00    +0.340 C 
ENDROOT
BRANCH   3   7
ATOM      7  O   UNL     1       8.566   3.802  22.311  0.00  0.00    -0.386 OA
ATOM      8  H   UNL     1       9.295   4.391  22.017  0.00  0.00    +0.210 HD
ENDBRANCH   3   7
BRANCH   2   9
ATOM      9  O   UNL     1       9.417   1.575  25.114  0.00  0.00    -0.386 OA
ATOM     10  H   UNL     1       9.076   0.671  25.047  0.00  0.00    +0.210 HD
ENDBRANCH   2   9
BRANCH   6  11
ATOM     11  O   UNL     1       7.686  -0.504  24.013  0.00  0.00    -0.453 OA
BRANCH  11  12
ATOM     12  C   UNL     1       6.974  -1.704  24.156  0.00  0.00    +0.214 A 
ATOM     13  C   UNL     1       6.929  -2.747  23.060  0.00  0.00    +0.238 A 
ATOM     14  O   UNL     1       7.425  -2.547  21.960  0.00  0.00    -0.283 OA
ATOM     15  C   UNL     1       6.236  -4.020  23.330  0.00  0.00    +0.109 A 
ATOM     16  C   UNL     1       5.649  -4.179  24.579  0.00  0.00    +0.147 A 
ATOM     17  C   UNL     1       5.007  -5.371  24.925  0.00  0.00    +0.092 A 
ATOM     18  C   UNL     1       4.939  -6.410  24.007  0.00  0.00    +0.124 A 
ATOM     19  C   UNL     1       5.498  -6.263  22.740  0.00  0.00    +0.091 A 
ATOM     20  O   UNL     1       5.646  -3.200  25.523  0.00  0.00    -0.451 OA
ATOM     21  C   UNL     1       6.148  -5.073  22.405  0.00  0.00    +0.135 A 
ATOM     22  C   UNL     1       6.292  -1.990  25.294  0.00  0.00    +0.181 A 
BRANCH  22  23
ATOM     23  C   UNL     1       6.086  -1.077  26.461  0.00  0.00    +0.025 A 
ATOM     24  C   UNL     1       4.791  -0.961  27.021  0.00  0.00    +0.015 A 
ATOM     25  C   UNL     1       4.533  -0.143  28.127  0.00  0.00    +0.050 A 
ATOM     26  C   UNL     1       5.565   0.600  28.667  0.00  0.00    +0.158 A 
ATOM     27  C   UNL     1       6.844   0.514  28.133  0.00  0.00    +0.159 A 
ATOM     28  C   UNL     1       7.115  -0.343  27.067  0.00  0.00    +0.060 A 
BRANCH  27  29
ATOM     29  O   UNL     1       7.821   1.297  28.685  0.00  0.00    -0.503 OA
ATOM     30  H   UNL     1       7.394   2.042  29.148  0.00  0.00    +0.292 HD
ENDBRANCH  27  29
BRANCH  26  31
ATOM     31  O   UNL     1       5.313   1.423  29.724  0.00  0.00    -0.503 OA
ATOM     32  H   UNL     1       5.556   0.895  30.510  0.00  0.00    +0.292 HD
ENDBRANCH  26  31
ENDBRANCH  22  23
BRANCH  18  33
ATOM     33  O   UNL     1       4.327  -7.583  24.300  0.00  0.00    -0.507 OA
ATOM     34  H   UNL     1       4.705  -8.288  23.748  0.00  0.00    +0.292 HD
ENDBRANCH  18  33
BRANCH  21  35
ATOM     35  O   UNL     1       6.680  -4.958  21.153  0.00  0.00    -0.506 OA
ATOM     36  H   UNL     1       6.135  -5.430  20.505  0.00  0.00    +0.292 HD
ENDBRANCH  21  35
ENDBRANCH  11  12
ENDBRANCH   6  11
BRANCH   4  37
ATOM     37  C   UNL     1       9.953   0.320  22.059  0.00  0.00    +0.190 C 
BRANCH  37  38
ATOM     38  O   UNL     1       9.549  -0.804  21.276  0.00  0.00    -0.392 OA
ATOM     39  H   UNL     1       9.376  -0.469  20.371  0.00  0.00    +0.210 HD
ENDBRANCH  37  38
ENDBRANCH   4  37
BRANCH   1  40
ATOM     40  O   UNL     1       6.388   2.978  23.631  0.00  0.00    -0.337 OA
BRANCH  40  43
ATOM     41  C   UNL     1       4.113   2.912  26.187  0.00  0.00    +0.202 C 
ATOM     42  O   UNL     1       5.486   3.030  25.782  0.00  0.00    -0.346 OA
ATOM     43  C   UNL     1       5.523   3.684  24.503  0.00  0.00    +0.282 C 
ATOM     44  C   UNL     1       4.075   3.802  23.992  0.00  0.00    +0.206 C 
ATOM     45  C   UNL     1       3.313   3.866  25.306  0.00  0.00    +0.142 C 
BRANCH  45  46
ATOM     46  O   UNL     1       3.350   5.221  25.812  0.00  0.00    -0.381 OA
ATOM     47  H   UNL     1       3.690   5.816  25.120  0.00  0.00    +0.210 HD
ENDBRANCH  45  46
BRANCH  44  48
ATOM     48  O   UNL     1       3.711   2.663  23.209  0.00  0.00    -0.384 OA
ATOM     49  H   UNL     1       3.318   2.996  22.380  0.00  0.00    +0.210 HD
ENDBRANCH  44  48
BRANCH  45  50
ATOM     50  C   UNL     1       1.842   3.471  25.217  0.00  0.00    +0.195 C 
BRANCH  50  51
ATOM     51  O   UNL     1       1.729   2.060  25.408  0.00  0.00    -0.392 OA
ATOM     52  H   UNL     1       2.037   1.669  24.565  0.00  0.00    +0.210 HD
ENDBRANCH  50  51
ENDBRANCH  45  50
ENDBRANCH  40  43
ENDBRANCH   1  40
TORSDOF 17
ENDMDL
MODEL 7
REMARK VINA RESULT:      -6.6      2.543      8.242
REMARK  Name = 
REMARK  17 active torsions:
REMARK  status: ('A' for Active; 'I' for Inactive)
REMARK    1  A    between atoms: C_2  and  C_44
REMARK    2  A    between atoms: C_2  and  O_46
REMARK    3  A    between atoms: C_3  and  O_43
REMARK    4  A    between atoms: C_5  and  O_8
REMARK    5  A    between atoms: O_8  and  C_9
REMARK    6  A    between atoms: C_10  and  O_21
REMARK    7  A    between atoms: C_13  and  C_19
REMARK    8  A    between atoms: C_14  and  O_18
REMARK    9  A    between atoms: C_16  and  O_17
REMARK   10  A    between atoms: C_19  and  O_20
REMARK   11  A    between atoms: O_21  and  C_22
REMARK   12  A    between atoms: C_23  and  C_35
REMARK   13  A    between atoms: C_27  and  O_34
REMARK   14  A    between atoms: C_29  and  O_33
REMARK   15  A    between atoms: C_37  and  O_42
REMARK   16  A    between atoms: C_38  and  O_41
REMARK   17  A    between atoms: C_44  and  O_45
REMARK                            x       y       z     vdW  Elec       q    Type
REMARK                         _______ _______ _______ _____ _____    ______ ____
ROOT
ATOM      1  C   UNL     1       6.632  -2.452  24.932  0.00  0.00    +0.221 C 
ATOM      2  C   UNL     1       6.382  -3.125  23.569  0.00  0.00    +0.180 C 
ATOM      3  C   UNL     1       7.701  -3.686  23.004  0.00  0.00    +0.177 C 
ATOM      4  C   UNL     1       8.867  -2.684  23.078  0.00  0.00    +0.179 C 
ATOM      5  O   UNL     1       8.930  -1.967  24.316  0.00  0.00    -0.331 OA
ATOM      6  C   UNL     1       7.735  -1.368  24.817  0.00  0.00    +0.340 C 
ENDROOT
BRANCH   3   7
ATOM      7  O   UNL     1       8.073  -4.865  23.743  0.00  0.00    -0.386 OA
ATOM      8  H   UNL     1       8.775  -4.609  24.381  0.00  0.00    +0.210 HD
ENDBRANCH   3   7
BRANCH   2   9
ATOM      9  O   UNL     1       5.719  -2.257  22.646  0.00  0.00    -0.386 OA
ATOM     10  H   UNL     1       5.120  -2.798  22.112  0.00  0.00    +0.210 HD
ENDBRANCH   2   9
BRANCH   6  11
ATOM     11  O   UNL     1       7.273  -0.233  24.066  0.00  0.00    -0.453 OA
BRANCH  11  12
ATOM     12  C   UNL     1       7.665   1.057  24.454  0.00  0.00    +0.214 A 
ATOM     13  C   UNL     1       8.817   1.781  23.789  0.00  0.00    +0.238 A 
ATOM     14  O   UNL     1       9.524   1.234  22.954  0.00  0.00    -0.283 OA
ATOM     15  C   UNL     1       9.101   3.170  24.193  0.00  0.00    +0.109 A 
ATOM     16  C   UNL     1       8.297   3.729  25.179  0.00  0.00    +0.147 A 
ATOM     17  C   UNL     1       8.478   5.053  25.590  0.00  0.00    +0.092 A 
ATOM     18  C   UNL     1       9.484   5.820  25.019  0.00  0.00    +0.124 A 
ATOM     19  C   UNL     1      10.318   5.273  24.047  0.00  0.00    +0.091 A 
ATOM     20  O   UNL     1       7.311   3.035  25.808  0.00  0.00    -0.451 OA
ATOM     21  C   UNL     1      10.124   3.953  23.634  0.00  0.00    +0.135 A 
ATOM     22  C   UNL     1       7.022   1.724  25.446  0.00  0.00    +0.181 A 
BRANCH  22  23
ATOM     23  C   UNL     1       5.943   1.180  26.328  0.00  0.00    +0.025 A 
ATOM     24  C   UNL     1       6.305   0.510  27.521  0.00  0.00    +0.015 A 
ATOM     25  C   UNL     1       5.348  -0.003  28.403  0.00  0.00    +0.050 A 
ATOM     26  C   UNL     1       4.009   0.118  28.083  0.00  0.00    +0.158 A 
ATOM     27  C   UNL     1       3.623   0.763  26.915  0.00  0.00    +0.159 A 
ATOM     28  C   UNL     1       4.574   1.323  26.063  0.00  0.00    +0.060 A 
BRANCH  27  29
ATOM     29  O   UNL     1       2.286   0.825  26.631  0.00  0.00    -0.503 OA
ATOM     30  H   UNL     1       2.179   0.959  25.671  0.00  0.00    +0.292 HD
ENDBRANCH  27  29
BRANCH  26  31
ATOM     31  O   UNL     1       3.072  -0.407  28.922  0.00  0.00    -0.503 OA
ATOM     32  H   UNL     1       2.623   0.370  29.308  0.00  0.00    +0.292 HD
ENDBRANCH  26  31
ENDBRANCH  22  23
BRANCH  18  33
ATOM     33  O   UNL     1       9.695   7.108  25.385  0.00  0.00    -0.507 OA
ATOM     34  H   UNL     1      10.351   7.134  26.101  0.00  0.00    +0.292 HD
ENDBRANCH  18  33
BRANCH  21  35
ATOM     35  O   UNL     1      10.962   3.443  22.685  0.00  0.00    -0.506 OA
ATOM     36  H   UNL     1      11.731   3.021  23.099  0.00  0.00    +0.292 HD
ENDBRANCH  21  35
ENDBRANCH  11  12
ENDBRANCH   6  11
BRANCH   4  37
ATOM     37  C   UNL     1       8.935  -1.708  21.899  0.00  0.00    +0.190 C 
BRANCH  37  38
ATOM     38  O   UNL     1      10.296  -1.459  21.544  0.00  0.00    -0.392 OA
ATOM     39  H   UNL     1      10.357  -0.507  21.315  0.00  0.00    +0.210 HD
ENDBRANCH  37  38
ENDBRANCH   4  37
BRANCH   1  40
ATOM     40  O   UNL     1       7.028  -3.526  25.811  0.00  0.00    -0.337 OA
BRANCH  40  43
ATOM     41  C   UNL     1       5.173  -4.416  28.545  0.00  0.00    +0.202 C 
ATOM     42  O   UNL     1       5.325  -3.557  27.405  0.00  0.00    -0.346 OA
ATOM     43  C   UNL     1       5.979  -4.301  26.365  0.00  0.00    +0.282 C 
ATOM     44  C   UNL     1       6.440  -5.643  26.963  0.00  0.00    +0.206 C 
ATOM     45  C   UNL     1       5.397  -5.843  28.053  0.00  0.00    +0.142 C 
BRANCH  45  46
ATOM     46  O   UNL     1       4.198  -6.401  27.466  0.00  0.00    -0.381 OA
ATOM     47  H   UNL     1       3.992  -5.930  26.639  0.00  0.00    +0.210 HD
ENDBRANCH  45  46
BRANCH  44  48
ATOM     48  O   UNL     1       7.764  -5.545  27.493  0.00  0.00    -0.384 OA
ATOM     49  H   UNL     1       8.244  -6.350  27.223  0.00  0.00    +0.210 HD
ENDBRANCH  44  48
BRANCH  45  50
ATOM     50  C   UNL     1       5.814  -6.783  29.179  0.00  0.00    +0.195 C 
BRANCH  50  51
ATOM     51  O   UNL     1       6.432  -6.017  30.216  0.00  0.00    -0.392 OA
ATOM     52  H   UNL     1       7.246  -5.658  29.808  0.00  0.00    +0.210 HD
ENDBRANCH  50  51
ENDBRANCH  45  50
ENDBRANCH  40  43
ENDBRANCH   1  40
TORSDOF 17
ENDMDL
MODEL 8
REMARK VINA RESULT:      -6.6      2.012      5.189
REMARK  Name = 
REMARK  17 active torsions:
REMARK  status: ('A' for Active; 'I' for Inactive)
REMARK    1  A    between atoms: C_2  and  C_44
REMARK    2  A    between atoms: C_2  and  O_46
REMARK    3  A    between atoms: C_3  and  O_43
REMARK    4  A    between atoms: C_5  and  O_8
REMARK    5  A    between atoms: O_8  and  C_9
REMARK    6  A    between atoms: C_10  and  O_21
REMARK    7  A    between atoms: C_13  and  C_19
REMARK    8  A    between atoms: C_14  and  O_18
REMARK    9  A    between atoms: C_16  and  O_17
REMARK   10  A    between atoms: C_19  and  O_20
REMARK   11  A    between atoms: O_21  and  C_22
REMARK   12  A    between atoms: C_23  and  C_35
REMARK   13  A    between atoms: C_27  and  O_34
REMARK   14  A    between atoms: C_29  and  O_33
REMARK   15  A    between atoms: C_37  and  O_42
REMARK   16  A    between atoms: C_38  and  O_41
REMARK   17  A    between atoms: C_44  and  O_45
REMARK                            x       y       z     vdW  Elec       q    Type
REMARK                         _______ _______ _______ _____ _____    ______ ____
ROOT
ATOM      1  C   UNL     1       8.700   1.616  24.262  0.00  0.00    +0.221 C 
ATOM      2  C   UNL     1      10.090   1.196  23.747  0.00  0.00    +0.180 C 
ATOM      3  C   UNL     1      10.022   0.875  22.242  0.00  0.00    +0.177 C 
ATOM      4  C   UNL     1       8.841  -0.039  21.869  0.00  0.00    +0.179 C 
ATOM      5  O   UNL     1       7.617   0.310  22.526  0.00  0.00    -0.331 OA
ATOM      6  C   UNL     1       7.640   0.532  23.936  0.00  0.00    +0.340 C 
ENDROOT
BRANCH   3   7
ATOM      7  O   UNL     1       9.897   2.101  21.498  0.00  0.00    -0.386 OA
ATOM      8  H   UNL     1       9.150   1.992  20.868  0.00  0.00    +0.210 HD
ENDBRANCH   3   7
BRANCH   2   9
ATOM      9  O   UNL     1      10.653   0.125  24.509  0.00  0.00    -0.386 OA
ATOM     10  H   UNL     1       9.922  -0.412  24.847  0.00  0.00    +0.210 HD
ENDBRANCH   2   9
BRANCH   6  11
ATOM     11  O   UNL     1       7.846  -0.652  24.726  0.00  0.00    -0.453 OA
BRANCH  11  12
ATOM     12  C   UNL     1       6.820  -1.107  25.567  0.00  0.00    +0.214 A 
ATOM     13  C   UNL     1       6.437  -0.375  26.836  0.00  0.00    +0.238 A 
ATOM     14  O   UNL     1       7.073   0.589  27.240  0.00  0.00    -0.283 OA
ATOM     15  C   UNL     1       5.285  -0.869  27.612  0.00  0.00    +0.109 A 
ATOM     16  C   UNL     1       4.625  -1.995  27.135  0.00  0.00    +0.147 A 
ATOM     17  C   UNL     1       3.501  -2.502  27.793  0.00  0.00    +0.092 A 
ATOM     18  C   UNL     1       3.041  -1.885  28.948  0.00  0.00    +0.124 A 
ATOM     19  C   UNL     1       3.702  -0.771  29.458  0.00  0.00    +0.091 A 
ATOM     20  O   UNL     1       5.030  -2.674  26.028  0.00  0.00    -0.451 OA
ATOM     21  C   UNL     1       4.818  -0.263  28.789  0.00  0.00    +0.135 A 
ATOM     22  C   UNL     1       6.113  -2.229  25.278  0.00  0.00    +0.181 A 
BRANCH  22  23
ATOM     23  C   UNL     1       6.380  -3.184  24.157  0.00  0.00    +0.025 A 
ATOM     24  C   UNL     1       7.213  -4.303  24.394  0.00  0.00    +0.015 A 
ATOM     25  C   UNL     1       7.486  -5.248  23.398  0.00  0.00    +0.050 A 
ATOM     26  C   UNL     1       6.954  -5.064  22.136  0.00  0.00    +0.158 A 
ATOM     27  C   UNL     1       6.141  -3.969  21.871  0.00  0.00    +0.159 A 
ATOM     28  C   UNL     1       5.823  -3.058  22.878  0.00  0.00    +0.060 A 
BRANCH  27  29
ATOM     29  O   UNL     1       5.669  -3.818  20.596  0.00  0.00    -0.503 OA
ATOM     30  H   UNL     1       5.591  -4.700  20.188  0.00  0.00    +0.292 HD
ENDBRANCH  27  29
BRANCH  26  31
ATOM     31  O   UNL     1       7.242  -5.962  21.152  0.00  0.00    -0.503 OA
ATOM     32  H   UNL     1       7.744  -6.669  21.603  0.00  0.00    +0.292 HD
ENDBRANCH  26  31
ENDBRANCH  22  23
BRANCH  18  33
ATOM     33  O   UNL     1       1.955  -2.342  29.617  0.00  0.00    -0.507 OA
ATOM     34  H   UNL     1       1.731  -3.232  29.297  0.00  0.00    +0.292 HD
ENDBRANCH  18  33
BRANCH  21  35
ATOM     35  O   UNL     1       5.447   0.826  29.318  0.00  0.00    -0.506 OA
ATOM     36  H   UNL     1       5.764   0.637  30.215  0.00  0.00    +0.292 HD
ENDBRANCH  21  35
ENDBRANCH  11  12
ENDBRANCH   6  11
BRANCH   4  37
ATOM     37  C   UNL     1       9.123  -1.535  22.038  0.00  0.00    +0.190 C 
BRANCH  37  38
ATOM     38  O   UNL     1      10.530  -1.778  22.002  0.00  0.00    -0.392 OA
ATOM     39  H   UNL     1      10.961  -0.987  22.387  0.00  0.00    +0.210 HD
ENDBRANCH  37  38
ENDBRANCH   4  37
BRANCH   1  40
ATOM     40  O   UNL     1       8.414   2.861  23.592  0.00  0.00    -0.337 OA
BRANCH  40  43
ATOM     41  C   UNL     1       8.259   6.272  23.823  0.00  0.00    +0.202 C 
ATOM     42  O   UNL     1       7.557   5.020  23.815  0.00  0.00    -0.346 OA
ATOM     43  C   UNL     1       8.408   4.023  24.404  0.00  0.00    +0.282 C 
ATOM     44  C   UNL     1       9.798   4.652  24.610  0.00  0.00    +0.206 C 
ATOM     45  C   UNL     1       9.425   6.115  24.795  0.00  0.00    +0.142 C 
BRANCH  45  46
ATOM     46  O   UNL     1       9.014   6.331  26.165  0.00  0.00    -0.381 OA
ATOM     47  H   UNL     1       9.347   7.194  26.471  0.00  0.00    +0.210 HD
ENDBRANCH  45  46
BRANCH  44  48
ATOM     48  O   UNL     1      10.632   4.445  23.467  0.00  0.00    -0.384 OA
ATOM     49  H   UNL     1      11.493   4.122  23.792  0.00  0.00    +0.210 HD
ENDBRANCH  44  48
BRANCH  45  50
ATOM     50  C   UNL     1      10.549   7.106  24.512  0.00  0.00    +0.195 C 
BRANCH  50  51
ATOM     51  O   UNL     1      11.771   6.581  25.033  0.00  0.00    -0.392 OA
ATOM     52  H   UNL     1      11.930   7.091  25.854  0.00  0.00    +0.210 HD
ENDBRANCH  50  51
ENDBRANCH  45  50
ENDBRANCH  40  43
ENDBRANCH   1  40
TORSDOF 17
ENDMDL
MODEL 9
REMARK VINA RESULT:      -6.6      2.297      8.793
REMARK  Name = 
REMARK  17 active torsions:
REMARK  status: ('A' for Active; 'I' for Inactive)
REMARK    1  A    between atoms: C_2  and  C_44
REMARK    2  A    between atoms: C_2  and  O_46
REMARK    3  A    between atoms: C_3  and  O_43
REMARK    4  A    between atoms: C_5  and  O_8
REMARK    5  A    between atoms: O_8  and  C_9
REMARK    6  A    between atoms: C_10  and  O_21
REMARK    7  A    between atoms: C_13  and  C_19
REMARK    8  A    between atoms: C_14  and  O_18
REMARK    9  A    between atoms: C_16  and  O_17
REMARK   10  A    between atoms: C_19  and  O_20
REMARK   11  A    between atoms: O_21  and  C_22
REMARK   12  A    between atoms: C_23  and  C_35
REMARK   13  A    between atoms: C_27  and  O_34
REMARK   14  A    between atoms: C_29  and  O_33
REMARK   15  A    between atoms: C_37  and  O_42
REMARK   16  A    between atoms: C_38  and  O_41
REMARK   17  A    between atoms: C_44  and  O_45
REMARK                            x       y       z     vdW  Elec       q    Type
REMARK                         _______ _______ _______ _____ _____    ______ ____
ROOT
ATOM      1  C   UNL     1       5.689  -0.726  25.877  0.00  0.00    +0.221 C 
ATOM      2  C   UNL     1       5.051  -0.683  27.279  0.00  0.00    +0.180 C 
ATOM      3  C   UNL     1       3.700   0.056  27.224  0.00  0.00    +0.177 C 
ATOM      4  C   UNL     1       3.767   1.386  26.454  0.00  0.00    +0.179 C 
ATOM      5  O   UNL     1       4.528   1.310  25.242  0.00  0.00    -0.331 OA
ATOM      6  C   UNL     1       5.819   0.702  25.287  0.00  0.00    +0.340 C 
ENDROOT
BRANCH   3   7
ATOM      7  O   UNL     1       2.721  -0.786  26.586  0.00  0.00    -0.386 OA
ATOM      8  H   UNL     1       2.303  -1.337  27.284  0.00  0.00    +0.210 HD
ENDBRANCH   3   7
BRANCH   2   9
ATOM      9  O   UNL     1       5.932  -0.136  28.262  0.00  0.00    -0.386 OA
ATOM     10  H   UNL     1       6.350  -0.875  28.727  0.00  0.00    +0.210 HD
ENDBRANCH   2   9
BRANCH   6  11
ATOM     11  O   UNL     1       6.817   1.466  25.986  0.00  0.00    -0.453 OA
BRANCH  11  12
ATOM     12  C   UNL     1       7.845   2.086  25.260  0.00  0.00    +0.214 A 
ATOM     13  C   UNL     1       7.993   3.592  25.204  0.00  0.00    +0.238 A 
ATOM     14  O   UNL     1       7.163   4.339  25.703  0.00  0.00    -0.283 OA
ATOM     15  C   UNL     1       9.157   4.157  24.497  0.00  0.00    +0.109 A 
ATOM     16  C   UNL     1      10.045   3.266  23.907  0.00  0.00    +0.147 A 
ATOM     17  C   UNL     1      11.192   3.722  23.252  0.00  0.00    +0.092 A 
ATOM     18  C   UNL     1      11.445   5.084  23.173  0.00  0.00    +0.124 A 
ATOM     19  C   UNL     1      10.556   5.997  23.734  0.00  0.00    +0.091 A 
ATOM     20  O   UNL     1       9.853   1.920  23.915  0.00  0.00    -0.451 OA
ATOM     21  C   UNL     1       9.417   5.534  24.397  0.00  0.00    +0.135 A 
ATOM     22  C   UNL     1       8.765   1.360  24.575  0.00  0.00    +0.181 A 
BRANCH  22  23
ATOM     23  C   UNL     1       8.760  -0.123  24.379  0.00  0.00    +0.025 A 
ATOM     24  C   UNL     1       9.234  -0.954  25.423  0.00  0.00    +0.015 A 
ATOM     25  C   UNL     1       9.236  -2.349  25.316  0.00  0.00    +0.050 A 
ATOM     26  C   UNL     1       8.796  -2.932  24.144  0.00  0.00    +0.158 A 
ATOM     27  C   UNL     1       8.334  -2.142  23.098  0.00  0.00    +0.159 A 
ATOM     28  C   UNL     1       8.279  -0.755  23.225  0.00  0.00    +0.060 A 
BRANCH  27  29
ATOM     29  O   UNL     1       7.942  -2.770  21.948  0.00  0.00    -0.503 OA
ATOM     30  H   UNL     1       7.228  -3.399  22.166  0.00  0.00    +0.292 HD
ENDBRANCH  27  29
BRANCH  26  31
ATOM     31  O   UNL     1       8.825  -4.289  24.020  0.00  0.00    -0.503 OA
ATOM     32  H   UNL     1       8.237  -4.481  23.263  0.00  0.00    +0.292 HD
ENDBRANCH  26  31
ENDBRANCH  22  23
BRANCH  18  33
ATOM     33  O   UNL     1      12.545   5.571  22.548  0.00  0.00    -0.507 OA
ATOM     34  H   UNL     1      12.491   5.370  21.599  0.00  0.00    +0.292 HD
ENDBRANCH  18  33
BRANCH  21  35
ATOM     35  O   UNL     1       8.561   6.453  24.931  0.00  0.00    -0.506 OA
ATOM     36  H   UNL     1       8.907   6.796  25.770  0.00  0.00    +0.292 HD
ENDBRANCH  21  35
ENDBRANCH  11  12
ENDBRANCH   6  11
BRANCH   4  37
ATOM     37  C   UNL     1       4.232   2.580  27.295  0.00  0.00    +0.190 C 
BRANCH  37  38
ATOM     38  O   UNL     1       4.578   3.675  26.446  0.00  0.00    -0.392 OA
ATOM     39  H   UNL     1       3.765   4.212  26.336  0.00  0.00    +0.210 HD
ENDBRANCH  37  38
ENDBRANCH   4  37
BRANCH   1  40
ATOM     40  O   UNL     1       4.804  -1.550  25.089  0.00  0.00    -0.337 OA
BRANCH  40  43
ATOM     41  C   UNL     1       4.539  -4.323  23.102  0.00  0.00    +0.202 C 
ATOM     42  O   UNL     1       5.089  -3.011  23.292  0.00  0.00    -0.346 OA
ATOM     43  C   UNL     1       5.310  -2.815  24.698  0.00  0.00    +0.282 C 
ATOM     44  C   UNL     1       4.674  -4.003  25.445  0.00  0.00    +0.206 C 
ATOM     45  C   UNL     1       4.789  -5.096  24.393  0.00  0.00    +0.142 C 
BRANCH  45  46
ATOM     46  O   UNL     1       6.123  -5.655  24.433  0.00  0.00    -0.381 OA
ATOM     47  H   UNL     1       6.315  -6.095  23.586  0.00  0.00    +0.210 HD
ENDBRANCH  45  46
BRANCH  44  48
ATOM     48  O   UNL     1       3.315  -3.726  25.793  0.00  0.00    -0.384 OA
ATOM     49  H   UNL     1       2.989  -4.485  26.312  0.00  0.00    +0.210 HD
ENDBRANCH  44  48
BRANCH  45  50
ATOM     50  C   UNL     1       3.819  -6.260  24.566  0.00  0.00    +0.195 C 
BRANCH  50  51
ATOM     51  O   UNL     1       4.414  -7.442  24.028  0.00  0.00    -0.392 OA
ATOM     52  H   UNL     1       5.261  -7.140  23.640  0.00  0.00    +0.210 HD
ENDBRANCH  50  51
ENDBRANCH  45  50
ENDBRANCH  40  43
ENDBRANCH   1  40
TORSDOF 17
ENDMDL
