MODEL 1
REMARK VINA RESULT:      -7.4      0.000      0.000
REMARK  Name = 
REMARK  19 active torsions:
REMARK  status: ('A' for Active; 'I' for Inactive)
REMARK    1  A    between atoms: C_1  and  O_2
REMARK    2  A    between atoms: O_2  and  C_3
REMARK    3  A    between atoms: C_4  and  O_50
REMARK    4  A    between atoms: C_6  and  C_9
REMARK    5  A    between atoms: C_10  and  O_36
REMARK    6  A    between atoms: C_14  and  O_35
REMARK    7  A    between atoms: C_16  and  O_20
REMARK    8  A    between atoms: O_20  and  C_21
REMARK    9  A    between atoms: C_23  and  O_34
REMARK   10  A    between atoms: C_24  and  O_33
REMARK   11  A    between atoms: C_26  and  O_32
REMARK   12  A    between atoms: C_28  and  C_30
REMARK   13  A    between atoms: C_30  and  O_31
REMARK   14  A    between atoms: O_36  and  C_37
REMARK   15  A    between atoms: C_39  and  O_49
REMARK   16  A    between atoms: C_40  and  O_48
REMARK   17  A    between atoms: C_41  and  O_47
REMARK   18  A    between atoms: C_43  and  C_45
REMARK   19  A    between atoms: C_45  and  O_46
REMARK                            x       y       z     vdW  Elec       q    Type
REMARK                         _______ _______ _______ _____ _____    ______ ____
ROOT
ATOM      1  C   UNL     1       6.930  -2.847  25.811  0.00  0.00    +0.181 A 
ATOM      2  O   UNL     1       7.755  -1.732  26.028  0.00  0.00    -0.451 OA
ATOM      3  C   UNL     1       8.495  -1.214  25.002  0.00  0.00    +0.147 A 
ATOM      4  C   UNL     1       8.630  -1.884  23.798  0.00  0.00    +0.109 A 
ATOM      5  C   UNL     1       9.407  -1.330  22.784  0.00  0.00    +0.135 A 
ATOM      6  C   UNL     1      10.003  -0.082  22.965  0.00  0.00    +0.092 A 
ATOM      7  C   UNL     1       9.839   0.618  24.167  0.00  0.00    +0.131 A 
ATOM      8  C   UNL     1       7.904  -3.139  23.617  0.00  0.00    +0.238 A 
ATOM      9  O   UNL     1       8.079  -3.795  22.589  0.00  0.00    -0.283 OA
ATOM     10  C   UNL     1       9.107   0.037  25.201  0.00  0.00    +0.093 A 
ATOM     11  C   UNL     1       6.917  -3.571  24.664  0.00  0.00    +0.214 A 
ENDROOT
BRANCH   1  15
ATOM     12  C   UNL     1       4.071  -3.710  28.827  0.00  0.00    +0.161 A 
ATOM     13  C   UNL     1       5.065  -4.634  28.519  0.00  0.00    +0.050 A 
ATOM     14  C   UNL     1       6.082  -4.289  27.626  0.00  0.00    +0.015 A 
ATOM     15  C   UNL     1       6.121  -3.014  27.039  0.00  0.00    +0.025 A 
ATOM     16  C   UNL     1       5.177  -2.055  27.426  0.00  0.00    +0.060 A 
ATOM     17  C   UNL     1       4.173  -2.408  28.325  0.00  0.00    +0.159 A 
BRANCH  17  18
ATOM     18  O   UNL     1       3.236  -1.469  28.652  0.00  0.00    -0.503 OA
ATOM     19  H   UNL     1       3.582  -1.019  29.447  0.00  0.00    +0.292 HD
ENDBRANCH  17  18
BRANCH  12  21
ATOM     20  C   UNL     1       2.486  -5.330  29.425  0.00  0.00    +0.277 C 
ATOM     21  O   UNL     1       2.966  -3.992  29.589  0.00  0.00    -0.491 OA
ENDBRANCH  12  21
ENDBRANCH   1  15
BRANCH   5  22
ATOM     22  O   UNL     1       9.604  -1.944  21.577  0.00  0.00    -0.506 OA
ATOM     23  H   UNL     1       9.885  -2.873  21.743  0.00  0.00    +0.292 HD
ENDBRANCH   5  22
BRANCH  11  24
ATOM     24  O   UNL     1       6.165  -4.625  24.233  0.00  0.00    -0.453 OA
BRANCH  24  25
ATOM     25  C   UNL     1       5.064  -4.535  23.341  0.00  0.00    +0.340 C 
ATOM     26  O   UNL     1       4.006  -3.773  23.918  0.00  0.00    -0.331 OA
ATOM     27  C   UNL     1       3.364  -4.391  25.054  0.00  0.00    +0.179 C 
ATOM     28  C   UNL     1       2.793  -5.770  24.710  0.00  0.00    +0.177 C 
ATOM     29  C   UNL     1       3.904  -6.658  24.162  0.00  0.00    +0.180 C 
ATOM     30  C   UNL     1       4.598  -5.973  22.980  0.00  0.00    +0.214 C 
BRANCH  30  31
ATOM     31  O   UNL     1       5.670  -6.827  22.535  0.00  0.00    -0.383 OA
ATOM     32  H   UNL     1       6.362  -6.808  23.224  0.00  0.00    +0.210 HD
ENDBRANCH  30  31
BRANCH  29  33
ATOM     33  O   UNL     1       3.321  -7.900  23.725  0.00  0.00    -0.386 OA
ATOM     34  H   UNL     1       3.951  -8.294  23.088  0.00  0.00    +0.210 HD
ENDBRANCH  29  33
BRANCH  28  35
ATOM     35  O   UNL     1       1.764  -5.665  23.714  0.00  0.00    -0.386 OA
ATOM     36  H   UNL     1       2.219  -5.361  22.902  0.00  0.00    +0.210 HD
ENDBRANCH  28  35
BRANCH  27  37
ATOM     37  C   UNL     1       2.250  -3.446  25.527  0.00  0.00    +0.190 C 
BRANCH  37  38
ATOM     38  O   UNL     1       1.260  -4.131  26.300  0.00  0.00    -0.392 OA
ATOM     39  H   UNL     1       0.599  -4.499  25.692  0.00  0.00    +0.210 HD
ENDBRANCH  37  38
ENDBRANCH  27  37
ENDBRANCH  24  25
ENDBRANCH  11  24
BRANCH   7  40
ATOM     40  O   UNL     1      10.351   1.885  24.165  0.00  0.00    -0.461 OA
BRANCH  40  41
ATOM     41  C   UNL     1      10.245   2.693  22.981  0.00  0.00    +0.339 C 
ATOM     42  O   UNL     1      11.345   3.589  22.802  0.00  0.00    -0.331 OA
ATOM     43  C   UNL     1      11.470   4.617  23.807  0.00  0.00    +0.179 C 
ATOM     44  C   UNL     1      10.168   5.415  24.078  0.00  0.00    +0.177 C 
ATOM     45  C   UNL     1       8.975   4.475  24.254  0.00  0.00    +0.180 C 
ATOM     46  C   UNL     1       8.927   3.499  23.062  0.00  0.00    +0.214 C 
BRANCH  46  47
ATOM     47  O   UNL     1       7.773   2.660  23.162  0.00  0.00    -0.383 OA
ATOM     48  H   UNL     1       8.073   1.735  23.153  0.00  0.00    +0.210 HD
ENDBRANCH  46  47
BRANCH  45  49
ATOM     49  O   UNL     1       9.066   3.844  25.536  0.00  0.00    -0.386 OA
ATOM     50  H   UNL     1      10.008   3.779  25.783  0.00  0.00    +0.210 HD
ENDBRANCH  45  49
BRANCH  44  51
ATOM     51  O   UNL     1       9.889   6.323  23.006  0.00  0.00    -0.386 OA
ATOM     52  H   UNL     1      10.686   6.869  22.872  0.00  0.00    +0.210 HD
ENDBRANCH  44  51
BRANCH  43  53
ATOM     53  C   UNL     1      12.589   5.575  23.349  0.00  0.00    +0.190 C 
BRANCH  53  54
ATOM     54  O   UNL     1      13.874   4.950  23.328  0.00  0.00    -0.392 OA
ATOM     55  H   UNL     1      14.175   4.910  22.407  0.00  0.00    +0.210 HD
ENDBRANCH  53  54
ENDBRANCH  43  53
ENDBRANCH  40  41
ENDBRANCH   7  40
TORSDOF 18
ENDMDL
MODEL 2
REMARK VINA RESULT:      -7.1      3.021      9.655
REMARK  Name = 
REMARK  19 active torsions:
REMARK  status: ('A' for Active; 'I' for Inactive)
REMARK    1  A    between atoms: C_1  and  O_2
REMARK    2  A    between atoms: O_2  and  C_3
REMARK    3  A    between atoms: C_4  and  O_50
REMARK    4  A    between atoms: C_6  and  C_9
REMARK    5  A    between atoms: C_10  and  O_36
REMARK    6  A    between atoms: C_14  and  O_35
REMARK    7  A    between atoms: C_16  and  O_20
REMARK    8  A    between atoms: O_20  and  C_21
REMARK    9  A    between atoms: C_23  and  O_34
REMARK   10  A    between atoms: C_24  and  O_33
REMARK   11  A    between atoms: C_26  and  O_32
REMARK   12  A    between atoms: C_28  and  C_30
REMARK   13  A    between atoms: C_30  and  O_31
REMARK   14  A    between atoms: O_36  and  C_37
REMARK   15  A    between atoms: C_39  and  O_49
REMARK   16  A    between atoms: C_40  and  O_48
REMARK   17  A    between atoms: C_41  and  O_47
REMARK   18  A    between atoms: C_43  and  C_45
REMARK   19  A    between atoms: C_45  and  O_46
REMARK                            x       y       z     vdW  Elec       q    Type
REMARK                         _______ _______ _______ _____ _____    ______ ____
ROOT
ATOM      1  C   UNL     1       7.847   2.516  24.544  0.00  0.00    +0.181 A 
ATOM      2  O   UNL     1       8.565   1.383  24.955  0.00  0.00    -0.451 OA
ATOM      3  C   UNL     1       7.903   0.245  25.324  0.00  0.00    +0.147 A 
ATOM      4  C   UNL     1       6.532   0.236  25.515  0.00  0.00    +0.109 A 
ATOM      5  C   UNL     1       5.898  -0.940  25.906  0.00  0.00    +0.135 A 
ATOM      6  C   UNL     1       6.636  -2.114  26.055  0.00  0.00    +0.092 A 
ATOM      7  C   UNL     1       8.018  -2.121  25.827  0.00  0.00    +0.131 A 
ATOM      8  C   UNL     1       5.785   1.464  25.247  0.00  0.00    +0.238 A 
ATOM      9  O   UNL     1       4.580   1.504  25.494  0.00  0.00    -0.283 OA
ATOM     10  C   UNL     1       8.659  -0.929  25.488  0.00  0.00    +0.093 A 
ATOM     11  C   UNL     1       6.497   2.630  24.623  0.00  0.00    +0.214 A 
ENDROOT
BRANCH   1  15
ATOM     12  C   UNL     1      11.118   5.096  23.735  0.00  0.00    +0.161 A 
ATOM     13  C   UNL     1      11.164   3.762  23.343  0.00  0.00    +0.050 A 
ATOM     14  C   UNL     1      10.034   2.955  23.488  0.00  0.00    +0.015 A 
ATOM     15  C   UNL     1       8.843   3.476  24.018  0.00  0.00    +0.025 A 
ATOM     16  C   UNL     1       8.769   4.841  24.319  0.00  0.00    +0.060 A 
ATOM     17  C   UNL     1       9.901   5.638  24.161  0.00  0.00    +0.159 A 
BRANCH  17  18
ATOM     18  O   UNL     1       9.818   6.958  24.505  0.00  0.00    -0.503 OA
ATOM     19  H   UNL     1       9.746   7.445  23.662  0.00  0.00    +0.292 HD
ENDBRANCH  17  18
BRANCH  12  21
ATOM     20  C   UNL     1      13.173   5.631  22.742  0.00  0.00    +0.277 C 
ATOM     21  O   UNL     1      12.205   5.933  23.752  0.00  0.00    -0.491 OA
ENDBRANCH  12  21
ENDBRANCH   1  15
BRANCH   5  22
ATOM     22  O   UNL     1       4.551  -1.019  26.135  0.00  0.00    -0.506 OA
ATOM     23  H   UNL     1       4.168  -1.678  25.512  0.00  0.00    +0.292 HD
ENDBRANCH   5  22
BRANCH  11  24
ATOM     24  O   UNL     1       5.616   3.595  24.228  0.00  0.00    -0.453 OA
BRANCH  24  25
ATOM     25  C   UNL     1       5.151   3.785  22.900  0.00  0.00    +0.340 C 
ATOM     26  O   UNL     1       5.891   4.813  22.246  0.00  0.00    -0.331 OA
ATOM     27  C   UNL     1       5.688   6.139  22.779  0.00  0.00    +0.179 C 
ATOM     28  C   UNL     1       4.214   6.552  22.744  0.00  0.00    +0.177 C 
ATOM     29  C   UNL     1       3.380   5.526  23.503  0.00  0.00    +0.180 C 
ATOM     30  C   UNL     1       3.633   4.120  22.949  0.00  0.00    +0.214 C 
BRANCH  30  31
ATOM     31  O   UNL     1       2.866   3.185  23.732  0.00  0.00    -0.383 OA
ATOM     32  H   UNL     1       3.313   2.319  23.672  0.00  0.00    +0.210 HD
ENDBRANCH  30  31
BRANCH  29  33
ATOM     33  O   UNL     1       1.989   5.863  23.346  0.00  0.00    -0.386 OA
ATOM     34  H   UNL     1       1.895   6.794  23.633  0.00  0.00    +0.210 HD
ENDBRANCH  29  33
BRANCH  28  35
ATOM     35  O   UNL     1       3.731   6.617  21.393  0.00  0.00    -0.386 OA
ATOM     36  H   UNL     1       2.882   6.128  21.397  0.00  0.00    +0.210 HD
ENDBRANCH  28  35
BRANCH  27  37
ATOM     37  C   UNL     1       6.542   7.108  21.948  0.00  0.00    +0.190 C 
BRANCH  37  38
ATOM     38  O   UNL     1       7.529   6.422  21.173  0.00  0.00    -0.392 OA
ATOM     39  H   UNL     1       7.902   5.709  21.716  0.00  0.00    +0.210 HD
ENDBRANCH  37  38
ENDBRANCH  27  37
ENDBRANCH  24  25
ENDBRANCH  11  24
BRANCH   7  40
ATOM     40  O   UNL     1       8.598  -3.357  25.866  0.00  0.00    -0.461 OA
BRANCH  40  41
ATOM     41  C   UNL     1       9.213  -3.892  24.681  0.00  0.00    +0.339 C 
ATOM     42  O   UNL     1       8.645  -3.393  23.469  0.00  0.00    -0.331 OA
ATOM     43  C   UNL     1       7.269  -3.763  23.236  0.00  0.00    +0.179 C 
ATOM     44  C   UNL     1       6.976  -5.279  23.380  0.00  0.00    +0.177 C 
ATOM     45  C   UNL     1       7.592  -5.838  24.663  0.00  0.00    +0.180 C 
ATOM     46  C   UNL     1       9.079  -5.433  24.722  0.00  0.00    +0.214 C 
BRANCH  46  47
ATOM     47  O   UNL     1       9.698  -6.011  25.875  0.00  0.00    -0.383 OA
ATOM     48  H   UNL     1       9.823  -5.306  26.534  0.00  0.00    +0.210 HD
ENDBRANCH  46  47
BRANCH  45  49
ATOM     49  O   UNL     1       6.812  -5.399  25.781  0.00  0.00    -0.386 OA
ATOM     50  H   UNL     1       7.290  -4.674  26.228  0.00  0.00    +0.210 HD
ENDBRANCH  45  49
BRANCH  44  51
ATOM     51  O   UNL     1       7.492  -6.010  22.262  0.00  0.00    -0.386 OA
ATOM     52  H   UNL     1       8.465  -6.011  22.338  0.00  0.00    +0.210 HD
ENDBRANCH  44  51
BRANCH  43  53
ATOM     53  C   UNL     1       6.899  -3.287  21.816  0.00  0.00    +0.190 C 
BRANCH  53  54
ATOM     54  O   UNL     1       5.666  -3.844  21.354  0.00  0.00    -0.392 OA
ATOM     55  H   UNL     1       5.438  -3.416  20.514  0.00  0.00    +0.210 HD
ENDBRANCH  53  54
ENDBRANCH  43  53
ENDBRANCH  40  41
ENDBRANCH   7  40
TORSDOF 18
ENDMDL
MODEL 3
REMARK VINA RESULT:      -7.0      2.499      9.828
REMARK  Name = 
REMARK  19 active torsions:
REMARK  status: ('A' for Active; 'I' for Inactive)
REMARK    1  A    between atoms: C_1  and  O_2
REMARK    2  A    between atoms: O_2  and  C_3
REMARK    3  A    between atoms: C_4  and  O_50
REMARK    4  A    between atoms: C_6  and  C_9
REMARK    5  A    between atoms: C_10  and  O_36
REMARK    6  A    between atoms: C_14  and  O_35
REMARK    7  A    between atoms: C_16  and  O_20
REMARK    8  A    between atoms: O_20  and  C_21
REMARK    9  A    between atoms: C_23  and  O_34
REMARK   10  A    between atoms: C_24  and  O_33
REMARK   11  A    between atoms: C_26  and  O_32
REMARK   12  A    between atoms: C_28  and  C_30
REMARK   13  A    between atoms: C_30  and  O_31
REMARK   14  A    between atoms: O_36  and  C_37
REMARK   15  A    between atoms: C_39  and  O_49
REMARK   16  A    between atoms: C_40  and  O_48
REMARK   17  A    between atoms: C_41  and  O_47
REMARK   18  A    between atoms: C_43  and  C_45
REMARK   19  A    between atoms: C_45  and  O_46
REMARK                            x       y       z     vdW  Elec       q    Type
REMARK                         _______ _______ _______ _____ _____    ______ ____
ROOT
ATOM      1  C   UNL     1       7.078   1.252  22.806  0.00  0.00    +0.181 A 
ATOM      2  O   UNL     1       6.317   0.073  22.818  0.00  0.00    -0.451 OA
ATOM      3  C   UNL     1       6.916  -1.130  23.073  0.00  0.00    +0.147 A 
ATOM      4  C   UNL     1       8.294  -1.258  23.106  0.00  0.00    +0.109 A 
ATOM      5  C   UNL     1       8.865  -2.505  23.353  0.00  0.00    +0.135 A 
ATOM      6  C   UNL     1       8.048  -3.605  23.614  0.00  0.00    +0.092 A 
ATOM      7  C   UNL     1       6.654  -3.474  23.618  0.00  0.00    +0.131 A 
ATOM      8  C   UNL     1       9.108  -0.058  22.929  0.00  0.00    +0.238 A 
ATOM      9  O   UNL     1      10.333  -0.163  22.868  0.00  0.00    -0.283 OA
ATOM     10  C   UNL     1       6.084  -2.237  23.317  0.00  0.00    +0.093 A 
ATOM     11  C   UNL     1       8.433   1.283  22.884  0.00  0.00    +0.214 A 
ENDROOT
BRANCH   1  15
ATOM     12  C   UNL     1       4.793   4.812  23.140  0.00  0.00    +0.161 A 
ATOM     13  C   UNL     1       5.866   4.749  22.256  0.00  0.00    +0.050 A 
ATOM     14  C   UNL     1       6.526   3.535  22.050  0.00  0.00    +0.015 A 
ATOM     15  C   UNL     1       6.114   2.372  22.719  0.00  0.00    +0.025 A 
ATOM     16  C   UNL     1       4.975   2.417  23.531  0.00  0.00    +0.060 A 
ATOM     17  C   UNL     1       4.319   3.631  23.720  0.00  0.00    +0.159 A 
BRANCH  17  18
ATOM     18  O   UNL     1       3.236   3.660  24.554  0.00  0.00    -0.503 OA
ATOM     19  H   UNL     1       2.461   3.780  23.973  0.00  0.00    +0.292 HD
ENDBRANCH  17  18
BRANCH  12  21
ATOM     20  C   UNL     1       4.970   6.831  24.319  0.00  0.00    +0.277 C 
ATOM     21  O   UNL     1       4.162   5.975  23.505  0.00  0.00    -0.491 OA
ENDBRANCH  12  21
ENDBRANCH   1  15
BRANCH   5  22
ATOM     22  O   UNL     1      10.217  -2.712  23.380  0.00  0.00    -0.506 OA
ATOM     23  H   UNL     1      10.522  -2.657  24.314  0.00  0.00    +0.292 HD
ENDBRANCH   5  22
BRANCH  11  24
ATOM     24  O   UNL     1       9.341   2.299  22.952  0.00  0.00    -0.453 OA
BRANCH  24  25
ATOM     25  C   UNL     1       9.970   2.757  24.140  0.00  0.00    +0.340 C 
ATOM     26  O   UNL     1       9.032   2.835  25.211  0.00  0.00    -0.331 OA
ATOM     27  C   UNL     1       8.015   3.848  25.054  0.00  0.00    +0.179 C 
ATOM     28  C   UNL     1       8.620   5.245  24.880  0.00  0.00    +0.177 C 
ATOM     29  C   UNL     1       9.573   5.241  23.691  0.00  0.00    +0.180 C 
ATOM     30  C   UNL     1      10.625   4.138  23.855  0.00  0.00    +0.214 C 
BRANCH  30  31
ATOM     31  O   UNL     1      11.465   4.143  22.685  0.00  0.00    -0.383 OA
ATOM     32  H   UNL     1      11.482   3.231  22.335  0.00  0.00    +0.210 HD
ENDBRANCH  30  31
BRANCH  29  33
ATOM     33  O   UNL     1      10.226   6.523  23.626  0.00  0.00    -0.386 OA
ATOM     34  H   UNL     1       9.843   7.066  24.345  0.00  0.00    +0.210 HD
ENDBRANCH  29  33
BRANCH  28  35
ATOM     35  O   UNL     1       9.355   5.635  26.049  0.00  0.00    -0.386 OA
ATOM     36  H   UNL     1       8.731   5.530  26.796  0.00  0.00    +0.210 HD
ENDBRANCH  28  35
BRANCH  27  37
ATOM     37  C   UNL     1       7.117   3.798  26.298  0.00  0.00    +0.190 C 
BRANCH  37  38
ATOM     38  O   UNL     1       7.545   2.800  27.229  0.00  0.00    -0.392 OA
ATOM     39  H   UNL     1       7.600   3.205  28.108  0.00  0.00    +0.210 HD
ENDBRANCH  37  38
ENDBRANCH  27  37
ENDBRANCH  24  25
ENDBRANCH  11  24
BRANCH   7  40
ATOM     40  O   UNL     1       5.976  -4.587  24.027  0.00  0.00    -0.461 OA
BRANCH  40  41
ATOM     41  C   UNL     1       4.807  -4.446  24.852  0.00  0.00    +0.339 C 
ATOM     42  O   UNL     1       5.036  -4.763  26.226  0.00  0.00    -0.331 OA
ATOM     43  C   UNL     1       5.374  -6.141  26.490  0.00  0.00    +0.179 C 
ATOM     44  C   UNL     1       4.407  -7.175  25.856  0.00  0.00    +0.177 C 
ATOM     45  C   UNL     1       4.133  -6.842  24.389  0.00  0.00    +0.180 C 
ATOM     46  C   UNL     1       3.701  -5.366  24.283  0.00  0.00    +0.214 C 
BRANCH  46  47
ATOM     47  O   UNL     1       3.362  -5.051  22.929  0.00  0.00    -0.383 OA
ATOM     48  H   UNL     1       3.095  -4.116  22.896  0.00  0.00    +0.210 HD
ENDBRANCH  46  47
BRANCH  45  49
ATOM     49  O   UNL     1       5.288  -7.180  23.613  0.00  0.00    -0.386 OA
ATOM     50  H   UNL     1       5.084  -7.975  23.083  0.00  0.00    +0.210 HD
ENDBRANCH  45  49
BRANCH  44  51
ATOM     51  O   UNL     1       3.162  -7.215  26.562  0.00  0.00    -0.386 OA
ATOM     52  H   UNL     1       2.470  -6.896  25.952  0.00  0.00    +0.210 HD
ENDBRANCH  44  51
BRANCH  43  53
ATOM     53  C   UNL     1       5.407  -6.322  28.022  0.00  0.00    +0.190 C 
BRANCH  53  54
ATOM     54  O   UNL     1       5.449  -7.696  28.413  0.00  0.00    -0.392 OA
ATOM     55  H   UNL     1       4.544  -7.981  28.610  0.00  0.00    +0.210 HD
ENDBRANCH  53  54
ENDBRANCH  43  53
ENDBRANCH  40  41
ENDBRANCH   7  40
TORSDOF 18
ENDMDL
MODEL 4
REMARK VINA RESULT:      -6.9      2.768      9.705
REMARK  Name = 
REMARK  19 active torsions:
REMARK  status: ('A' for Active; 'I' for Inactive)
REMARK    1  A    between atoms: C_1  and  O_2
REMARK    2  A    between atoms: O_2  and  C_3
REMARK    3  A    between atoms: C_4  and  O_50
REMARK    4  A    between atoms: C_6  and  C_9
REMARK    5  A    between atoms: C_10  and  O_36
REMARK    6  A    between atoms: C_14  and  O_35
REMARK    7  A    between atoms: C_16  and  O_20
REMARK    8  A    between atoms: O_20  and  C_21
REMARK    9  A    between atoms: C_23  and  O_34
REMARK   10  A    between atoms: C_24  and  O_33
REMARK   11  A    between atoms: C_26  and  O_32
REMARK   12  A    between atoms: C_28  and  C_30
REMARK   13  A    between atoms: C_30  and  O_31
REMARK   14  A    between atoms: O_36  and  C_37
REMARK   15  A    between atoms: C_39  and  O_49
REMARK   16  A    between atoms: C_40  and  O_48
REMARK   17  A    between atoms: C_41  and  O_47
REMARK   18  A    between atoms: C_43  and  C_45
REMARK   19  A    between atoms: C_45  and  O_46
REMARK                            x       y       z     vdW  Elec       q    Type
REMARK                         _______ _______ _______ _____ _____    ______ ____
ROOT
ATOM      1  C   UNL     1       6.204  -0.520  25.858  0.00  0.00    +0.181 A 
ATOM      2  O   UNL     1       5.055  -1.326  25.849  0.00  0.00    -0.451 OA
ATOM      3  C   UNL     1       4.928  -2.333  24.932  0.00  0.00    +0.147 A 
ATOM      4  C   UNL     1       5.799  -2.450  23.863  0.00  0.00    +0.109 A 
ATOM      5  C   UNL     1       5.625  -3.480  22.941  0.00  0.00    +0.135 A 
ATOM      6  C   UNL     1       4.607  -4.416  23.126  0.00  0.00    +0.092 A 
ATOM      7  C   UNL     1       3.746  -4.324  24.226  0.00  0.00    +0.131 A 
ATOM      8  C   UNL     1       6.912  -1.508  23.767  0.00  0.00    +0.238 A 
ATOM      9  O   UNL     1       7.646  -1.540  22.779  0.00  0.00    -0.283 OA
ATOM     10  C   UNL     1       3.888  -3.261  25.118  0.00  0.00    +0.093 A 
ATOM     11  C   UNL     1       7.169  -0.561  24.904  0.00  0.00    +0.214 A 
ENDROOT
BRANCH   1  15
ATOM     12  C   UNL     1       6.364   2.429  28.906  0.00  0.00    +0.161 A 
ATOM     13  C   UNL     1       5.291   2.394  28.020  0.00  0.00    +0.050 A 
ATOM     14  C   UNL     1       5.175   1.341  27.110  0.00  0.00    +0.015 A 
ATOM     15  C   UNL     1       6.125   0.309  27.082  0.00  0.00    +0.025 A 
ATOM     16  C   UNL     1       7.147   0.294  28.038  0.00  0.00    +0.060 A 
ATOM     17  C   UNL     1       7.247   1.344  28.948  0.00  0.00    +0.159 A 
BRANCH  17  18
ATOM     18  O   UNL     1       8.281   1.332  29.842  0.00  0.00    -0.503 OA
ATOM     19  H   UNL     1       8.933   1.971  29.497  0.00  0.00    +0.292 HD
ENDBRANCH  17  18
BRANCH  12  21
ATOM     20  C   UNL     1       6.641   4.749  29.092  0.00  0.00    +0.277 C 
ATOM     21  O   UNL     1       6.636   3.477  29.748  0.00  0.00    -0.491 OA
ENDBRANCH  12  21
ENDBRANCH   1  15
BRANCH   5  22
ATOM     22  O   UNL     1       6.432  -3.646  21.849  0.00  0.00    -0.506 OA
ATOM     23  H   UNL     1       6.915  -4.499  21.946  0.00  0.00    +0.292 HD
ENDBRANCH   5  22
BRANCH  11  24
ATOM     24  O   UNL     1       8.367   0.075  24.760  0.00  0.00    -0.453 OA
BRANCH  24  25
ATOM     25  C   UNL     1       8.557   1.482  24.795  0.00  0.00    +0.340 C 
ATOM     26  O   UNL     1       7.352   2.164  24.458  0.00  0.00    -0.331 OA
ATOM     27  C   UNL     1       6.924   1.998  23.089  0.00  0.00    +0.179 C 
ATOM     28  C   UNL     1       7.995   2.455  22.094  0.00  0.00    +0.177 C 
ATOM     29  C   UNL     1       9.290   1.695  22.357  0.00  0.00    +0.180 C 
ATOM     30  C   UNL     1       9.712   1.851  23.821  0.00  0.00    +0.214 C 
BRANCH  30  31
ATOM     31  O   UNL     1      10.906   1.073  24.029  0.00  0.00    -0.383 OA
ATOM     32  H   UNL     1      10.769   0.538  24.834  0.00  0.00    +0.210 HD
ENDBRANCH  30  31
BRANCH  29  33
ATOM     33  O   UNL     1      10.315   2.232  21.500  0.00  0.00    -0.386 OA
ATOM     34  H   UNL     1      10.721   2.978  21.986  0.00  0.00    +0.210 HD
ENDBRANCH  29  33
BRANCH  28  35
ATOM     35  O   UNL     1       8.259   3.860  22.233  0.00  0.00    -0.386 OA
ATOM     36  H   UNL     1       7.388   4.298  22.143  0.00  0.00    +0.210 HD
ENDBRANCH  28  35
BRANCH  27  37
ATOM     37  C   UNL     1       5.633   2.810  22.906  0.00  0.00    +0.190 C 
BRANCH  37  38
ATOM     38  O   UNL     1       4.536   2.239  23.624  0.00  0.00    -0.392 OA
ATOM     39  H   UNL     1       4.883   1.804  24.418  0.00  0.00    +0.210 HD
ENDBRANCH  37  38
ENDBRANCH  27  37
ENDBRANCH  24  25
ENDBRANCH  11  24
BRANCH   7  40
ATOM     40  O   UNL     1       2.888  -5.377  24.370  0.00  0.00    -0.461 OA
BRANCH  40  41
ATOM     41  C   UNL     1       3.227  -6.654  23.804  0.00  0.00    +0.339 C 
ATOM     42  O   UNL     1       2.467  -6.983  22.640  0.00  0.00    -0.331 OA
ATOM     43  C   UNL     1       1.052  -7.165  22.861  0.00  0.00    +0.179 C 
ATOM     44  C   UNL     1       0.701  -8.134  24.020  0.00  0.00    +0.177 C 
ATOM     45  C   UNL     1       1.519  -7.812  25.271  0.00  0.00    +0.180 C 
ATOM     46  C   UNL     1       3.011  -7.737  24.888  0.00  0.00    +0.214 C 
BRANCH  46  47
ATOM     47  O   UNL     1       3.805  -7.515  26.057  0.00  0.00    -0.383 OA
ATOM     48  H   UNL     1       4.222  -8.359  26.301  0.00  0.00    +0.210 HD
ENDBRANCH  46  47
BRANCH  45  49
ATOM     49  O   UNL     1       0.999  -6.621  25.872  0.00  0.00    -0.386 OA
ATOM     50  H   UNL     1       0.266  -6.289  25.319  0.00  0.00    +0.210 HD
ENDBRANCH  45  49
BRANCH  44  51
ATOM     51  O   UNL     1       0.945  -9.494  23.645  0.00  0.00    -0.386 OA
ATOM     52  H   UNL     1       0.077  -9.929  23.544  0.00  0.00    +0.210 HD
ENDBRANCH  44  51
BRANCH  43  53
ATOM     53  C   UNL     1       0.443  -7.681  21.541  0.00  0.00    +0.190 C 
BRANCH  53  54
ATOM     54  O   UNL     1       1.277  -8.641  20.889  0.00  0.00    -0.392 OA
ATOM     55  H   UNL     1       2.179  -8.537  21.229  0.00  0.00    +0.210 HD
ENDBRANCH  53  54
ENDBRANCH  43  53
ENDBRANCH  40  41
ENDBRANCH   7  40
TORSDOF 18
ENDMDL
MODEL 5
REMARK VINA RESULT:      -6.9      1.911      3.130
REMARK  Name = 
REMARK  19 active torsions:
REMARK  status: ('A' for Active; 'I' for Inactive)
REMARK    1  A    between atoms: C_1  and  O_2
REMARK    2  A    between atoms: O_2  and  C_3
REMARK    3  A    between atoms: C_4  and  O_50
REMARK    4  A    between atoms: C_6  and  C_9
REMARK    5  A    between atoms: C_10  and  O_36
REMARK    6  A    between atoms: C_14  and  O_35
REMARK    7  A    between atoms: C_16  and  O_20
REMARK    8  A    between atoms: O_20  and  C_21
REMARK    9  A    between atoms: C_23  and  O_34
REMARK   10  A    between atoms: C_24  and  O_33
REMARK   11  A    between atoms: C_26  and  O_32
REMARK   12  A    between atoms: C_28  and  C_30
REMARK   13  A    between atoms: C_30  and  O_31
REMARK   14  A    between atoms: O_36  and  C_37
REMARK   15  A    between atoms: C_39  and  O_49
REMARK   16  A    between atoms: C_40  and  O_48
REMARK   17  A    between atoms: C_41  and  O_47
REMARK   18  A    between atoms: C_43  and  C_45
REMARK   19  A    between atoms: C_45  and  O_46
REMARK                            x       y       z     vdW  Elec       q    Type
REMARK                         _______ _______ _______ _____ _____    ______ ____
ROOT
ATOM      1  C   UNL     1       8.020  -2.090  24.981  0.00  0.00    +0.181 A 
ATOM      2  O   UNL     1       8.447  -0.845  25.468  0.00  0.00    -0.451 OA
ATOM      3  C   UNL     1       8.765   0.161  24.598  0.00  0.00    +0.147 A 
ATOM      4  C   UNL     1       8.892  -0.071  23.240  0.00  0.00    +0.109 A 
ATOM      5  C   UNL     1       9.234   0.978  22.389  0.00  0.00    +0.135 A 
ATOM      6  C   UNL     1       9.399   2.264  22.902  0.00  0.00    +0.092 A 
ATOM      7  C   UNL     1       9.236   2.513  24.270  0.00  0.00    +0.131 A 
ATOM      8  C   UNL     1       8.609  -1.414  22.735  0.00  0.00    +0.238 A 
ATOM      9  O   UNL     1       8.800  -1.664  21.545  0.00  0.00    -0.283 OA
ATOM     10  C   UNL     1       8.947   1.452  25.127  0.00  0.00    +0.093 A 
ATOM     11  C   UNL     1       8.037  -2.440  23.671  0.00  0.00    +0.214 A 
ENDROOT
BRANCH   1  15
ATOM     12  C   UNL     1       6.258  -4.740  27.789  0.00  0.00    +0.161 A 
ATOM     13  C   UNL     1       7.456  -5.075  27.166  0.00  0.00    +0.050 A 
ATOM     14  C   UNL     1       8.100  -4.142  26.350  0.00  0.00    +0.015 A 
ATOM     15  C   UNL     1       7.556  -2.863  26.156  0.00  0.00    +0.025 A 
ATOM     16  C   UNL     1       6.404  -2.495  26.862  0.00  0.00    +0.060 A 
ATOM     17  C   UNL     1       5.777  -3.431  27.681  0.00  0.00    +0.159 A 
BRANCH  17  18
ATOM     18  O   UNL     1       4.628  -3.064  28.323  0.00  0.00    -0.503 OA
ATOM     19  H   UNL     1       4.555  -3.661  29.091  0.00  0.00    +0.292 HD
ENDBRANCH  17  18
BRANCH  12  21
ATOM     20  C   UNL     1       6.077  -6.017  29.747  0.00  0.00    +0.277 C 
ATOM     21  O   UNL     1       5.488  -5.622  28.505  0.00  0.00    -0.491 OA
ENDBRANCH  12  21
ENDBRANCH   1  15
BRANCH   5  22
ATOM     22  O   UNL     1       9.398   0.819  21.040  0.00  0.00    -0.506 OA
ATOM     23  H   UNL     1       9.967   1.550  20.708  0.00  0.00    +0.292 HD
ENDBRANCH   5  22
BRANCH  11  24
ATOM     24  O   UNL     1       7.617  -3.549  22.994  0.00  0.00    -0.453 OA
BRANCH  24  25
ATOM     25  C   UNL     1       6.427  -3.636  22.224  0.00  0.00    +0.340 C 
ATOM     26  O   UNL     1       5.314  -3.124  22.953  0.00  0.00    -0.331 OA
ATOM     27  C   UNL     1       4.931  -3.908  24.104  0.00  0.00    +0.179 C 
ATOM     28  C   UNL     1       4.598  -5.355  23.727  0.00  0.00    +0.177 C 
ATOM     29  C   UNL     1       5.790  -5.981  23.014  0.00  0.00    +0.180 C 
ATOM     30  C   UNL     1       6.207  -5.120  21.816  0.00  0.00    +0.214 C 
BRANCH  30  31
ATOM     31  O   UNL     1       7.366  -5.725  21.211  0.00  0.00    -0.383 OA
ATOM     32  H   UNL     1       8.063  -5.042  21.169  0.00  0.00    +0.210 HD
ENDBRANCH  30  31
BRANCH  29  33
ATOM     33  O   UNL     1       5.410  -7.292  22.555  0.00  0.00    -0.386 OA
ATOM     34  H   UNL     1       5.946  -7.473  21.757  0.00  0.00    +0.210 HD
ENDBRANCH  29  33
BRANCH  28  35
ATOM     35  O   UNL     1       3.465  -5.409  22.848  0.00  0.00    -0.386 OA
ATOM     36  H   UNL     1       2.689  -5.213  23.412  0.00  0.00    +0.210 HD
ENDBRANCH  28  35
BRANCH  27  37
ATOM     37  C   UNL     1       3.716  -3.223  24.747  0.00  0.00    +0.190 C 
BRANCH  37  38
ATOM     38  O   UNL     1       3.063  -4.072  25.695  0.00  0.00    -0.392 OA
ATOM     39  H   UNL     1       3.580  -4.889  25.780  0.00  0.00    +0.210 HD
ENDBRANCH  37  38
ENDBRANCH  27  37
ENDBRANCH  24  25
ENDBRANCH  11  24
BRANCH   7  40
ATOM     40  O   UNL     1       9.282   3.833  24.621  0.00  0.00    -0.461 OA
BRANCH  40  41
ATOM     41  C   UNL     1       8.182   4.418  25.336  0.00  0.00    +0.339 C 
ATOM     42  O   UNL     1       6.914   4.193  24.717  0.00  0.00    -0.331 OA
ATOM     43  C   UNL     1       6.742   4.813  23.425  0.00  0.00    +0.179 C 
ATOM     44  C   UNL     1       7.097   6.322  23.383  0.00  0.00    +0.177 C 
ATOM     45  C   UNL     1       8.443   6.588  24.059  0.00  0.00    +0.180 C 
ATOM     46  C   UNL     1       8.438   5.939  25.457  0.00  0.00    +0.214 C 
BRANCH  46  47
ATOM     47  O   UNL     1       9.657   6.241  26.141  0.00  0.00    -0.383 OA
ATOM     48  H   UNL     1      10.142   5.408  26.272  0.00  0.00    +0.210 HD
ENDBRANCH  46  47
BRANCH  45  49
ATOM     49  O   UNL     1       9.493   6.134  23.197  0.00  0.00    -0.386 OA
ATOM     50  H   UNL     1      10.304   6.019  23.728  0.00  0.00    +0.210 HD
ENDBRANCH  45  49
BRANCH  44  51
ATOM     51  O   UNL     1       6.091   7.106  24.032  0.00  0.00    -0.386 OA
ATOM     52  H   UNL     1       5.945   6.720  24.917  0.00  0.00    +0.210 HD
ENDBRANCH  44  51
BRANCH  43  53
ATOM     53  C   UNL     1       5.271   4.607  23.008  0.00  0.00    +0.190 C 
BRANCH  53  54
ATOM     54  O   UNL     1       4.820   5.596  22.079  0.00  0.00    -0.392 OA
ATOM     55  H   UNL     1       3.851   5.566  22.056  0.00  0.00    +0.210 HD
ENDBRANCH  53  54
ENDBRANCH  43  53
ENDBRANCH  40  41
ENDBRANCH   7  40
TORSDOF 18
ENDMDL
MODEL 6
REMARK VINA RESULT:      -6.6      3.140      9.826
REMARK  Name = 
REMARK  19 active torsions:
REMARK  status: ('A' for Active; 'I' for Inactive)
REMARK    1  A    between atoms: C_1  and  O_2
REMARK    2  A    between atoms: O_2  and  C_3
REMARK    3  A    between atoms: C_4  and  O_50
REMARK    4  A    between atoms: C_6  and  C_9
REMARK    5  A    between atoms: C_10  and  O_36
REMARK    6  A    between atoms: C_14  and  O_35
REMARK    7  A    between atoms: C_16  and  O_20
REMARK    8  A    between atoms: O_20  and  C_21
REMARK    9  A    between atoms: C_23  and  O_34
REMARK   10  A    between atoms: C_24  and  O_33
REMARK   11  A    between atoms: C_26  and  O_32
REMARK   12  A    between atoms: C_28  and  C_30
REMARK   13  A    between atoms: C_30  and  O_31
REMARK   14  A    between atoms: O_36  and  C_37
REMARK   15  A    between atoms: C_39  and  O_49
REMARK   16  A    between atoms: C_40  and  O_48
REMARK   17  A    between atoms: C_41  and  O_47
REMARK   18  A    between atoms: C_43  and  C_45
REMARK   19  A    between atoms: C_45  and  O_46
REMARK                            x       y       z     vdW  Elec       q    Type
REMARK                         _______ _______ _______ _____ _____    ______ ____
ROOT
ATOM      1  C   UNL     1       7.075   2.546  25.515  0.00  0.00    +0.181 A 
ATOM      2  O   UNL     1       7.523   1.359  26.117  0.00  0.00    -0.451 OA
ATOM      3  C   UNL     1       6.646   0.341  26.368  0.00  0.00    +0.147 A 
ATOM      4  C   UNL     1       5.278   0.521  26.249  0.00  0.00    +0.109 A 
ATOM      5  C   UNL     1       4.417  -0.537  26.531  0.00  0.00    +0.135 A 
ATOM      6  C   UNL     1       4.936  -1.783  26.882  0.00  0.00    +0.092 A 
ATOM      7  C   UNL     1       6.319  -1.982  26.967  0.00  0.00    +0.131 A 
ATOM      8  C   UNL     1       4.785   1.814  25.779  0.00  0.00    +0.238 A 
ATOM      9  O   UNL     1       3.572   2.023  25.751  0.00  0.00    -0.283 OA
ATOM     10  C   UNL     1       7.178  -0.907  26.738  0.00  0.00    +0.093 A 
ATOM     11  C   UNL     1       5.769   2.837  25.288  0.00  0.00    +0.214 A 
ENDROOT
BRANCH   1  15
ATOM     12  C   UNL     1      10.058   5.165  24.015  0.00  0.00    +0.161 A 
ATOM     13  C   UNL     1       9.214   5.579  25.042  0.00  0.00    +0.050 A 
ATOM     14  C   UNL     1       8.329   4.669  25.623  0.00  0.00    +0.015 A 
ATOM     15  C   UNL     1       8.285   3.334  25.191  0.00  0.00    +0.025 A 
ATOM     16  C   UNL     1       9.203   2.897  24.228  0.00  0.00    +0.060 A 
ATOM     17  C   UNL     1      10.088   3.812  23.663  0.00  0.00    +0.159 A 
BRANCH  17  18
ATOM     18  O   UNL     1      10.943   3.372  22.692  0.00  0.00    -0.503 OA
ATOM     19  H   UNL     1      11.574   4.103  22.547  0.00  0.00    +0.292 HD
ENDBRANCH  17  18
BRANCH  12  21
ATOM     20  C   UNL     1      12.192   6.118  23.831  0.00  0.00    +0.277 C 
ATOM     21  O   UNL     1      10.869   6.008  23.297  0.00  0.00    -0.491 OA
ENDBRANCH  12  21
ENDBRANCH   1  15
BRANCH   5  22
ATOM     22  O   UNL     1       3.055  -0.428  26.457  0.00  0.00    -0.506 OA
ATOM     23  H   UNL     1       2.759  -0.806  25.598  0.00  0.00    +0.292 HD
ENDBRANCH   5  22
BRANCH  11  24
ATOM     24  O   UNL     1       5.138   3.879  24.674  0.00  0.00    -0.453 OA
BRANCH  24  25
ATOM     25  C   UNL     1       4.950   4.011  23.272  0.00  0.00    +0.340 C 
ATOM     26  O   UNL     1       5.959   4.843  22.703  0.00  0.00    -0.331 OA
ATOM     27  C   UNL     1       5.897   6.229  23.101  0.00  0.00    +0.179 C 
ATOM     28  C   UNL     1       4.543   6.863  22.762  0.00  0.00    +0.177 C 
ATOM     29  C   UNL     1       3.427   6.057  23.416  0.00  0.00    +0.180 C 
ATOM     30  C   UNL     1       3.528   4.582  23.013  0.00  0.00    +0.214 C 
BRANCH  30  31
ATOM     31  O   UNL     1       2.487   3.859  23.698  0.00  0.00    -0.383 OA
ATOM     32  H   UNL     1       2.610   4.009  24.656  0.00  0.00    +0.210 HD
ENDBRANCH  30  31
BRANCH  29  33
ATOM     33  O   UNL     1       2.164   6.591  22.979  0.00  0.00    -0.386 OA
ATOM     34  H   UNL     1       1.520   5.856  23.029  0.00  0.00    +0.210 HD
ENDBRANCH  29  33
BRANCH  28  35
ATOM     35  O   UNL     1       4.322   6.873  21.343  0.00  0.00    -0.386 OA
ATOM     36  H   UNL     1       5.147   6.522  20.950  0.00  0.00    +0.210 HD
ENDBRANCH  28  35
BRANCH  27  37
ATOM     37  C   UNL     1       7.035   6.968  22.383  0.00  0.00    +0.190 C 
BRANCH  37  38
ATOM     38  O   UNL     1       7.899   6.069  21.682  0.00  0.00    -0.392 OA
ATOM     39  H   UNL     1       7.364   5.556  21.056  0.00  0.00    +0.210 HD
ENDBRANCH  37  38
ENDBRANCH  27  37
ENDBRANCH  24  25
ENDBRANCH  11  24
BRANCH   7  40
ATOM     40  O   UNL     1       6.700  -3.277  27.178  0.00  0.00    -0.461 OA
BRANCH  40  41
ATOM     41  C   UNL     1       7.674  -3.882  26.311  0.00  0.00    +0.339 C 
ATOM     42  O   UNL     1       7.606  -3.415  24.962  0.00  0.00    -0.331 OA
ATOM     43  C   UNL     1       6.391  -3.747  24.257  0.00  0.00    +0.179 C 
ATOM     44  C   UNL     1       5.995  -5.245  24.326  0.00  0.00    +0.177 C 
ATOM     45  C   UNL     1       6.079  -5.770  25.760  0.00  0.00    +0.180 C 
ATOM     46  C   UNL     1       7.462  -5.414  26.342  0.00  0.00    +0.214 C 
BRANCH  46  47
ATOM     47  O   UNL     1       7.595  -5.964  27.656  0.00  0.00    -0.383 OA
ATOM     48  H   UNL     1       7.005  -6.735  27.720  0.00  0.00    +0.210 HD
ENDBRANCH  46  47
BRANCH  45  49
ATOM     49  O   UNL     1       4.970  -5.259  26.507  0.00  0.00    -0.386 OA
ATOM     50  H   UNL     1       5.220  -4.391  26.879  0.00  0.00    +0.210 HD
ENDBRANCH  45  49
BRANCH  44  51
ATOM     51  O   UNL     1       6.844  -6.040  23.491  0.00  0.00    -0.386 OA
ATOM     52  H   UNL     1       7.223  -6.746  24.048  0.00  0.00    +0.210 HD
ENDBRANCH  44  51
BRANCH  43  53
ATOM     53  C   UNL     1       6.580  -3.319  22.787  0.00  0.00    +0.190 C 
BRANCH  53  54
ATOM     54  O   UNL     1       5.794  -2.177  22.441  0.00  0.00    -0.392 OA
ATOM     55  H   UNL     1       5.317  -2.377  21.621  0.00  0.00    +0.210 HD
ENDBRANCH  53  54
ENDBRANCH  43  53
ENDBRANCH  40  41
ENDBRANCH   7  40
TORSDOF 18
ENDMDL
MODEL 7
REMARK VINA RESULT:      -6.6      2.189      5.234
REMARK  Name = 
REMARK  19 active torsions:
REMARK  status: ('A' for Active; 'I' for Inactive)
REMARK    1  A    between atoms: C_1  and  O_2
REMARK    2  A    between atoms: O_2  and  C_3
REMARK    3  A    between atoms: C_4  and  O_50
REMARK    4  A    between atoms: C_6  and  C_9
REMARK    5  A    between atoms: C_10  and  O_36
REMARK    6  A    between atoms: C_14  and  O_35
REMARK    7  A    between atoms: C_16  and  O_20
REMARK    8  A    between atoms: O_20  and  C_21
REMARK    9  A    between atoms: C_23  and  O_34
REMARK   10  A    between atoms: C_24  and  O_33
REMARK   11  A    between atoms: C_26  and  O_32
REMARK   12  A    between atoms: C_28  and  C_30
REMARK   13  A    between atoms: C_30  and  O_31
REMARK   14  A    between atoms: O_36  and  C_37
REMARK   15  A    between atoms: C_39  and  O_49
REMARK   16  A    between atoms: C_40  and  O_48
REMARK   17  A    between atoms: C_41  and  O_47
REMARK   18  A    between atoms: C_43  and  C_45
REMARK   19  A    between atoms: C_45  and  O_46
REMARK                            x       y       z     vdW  Elec       q    Type
REMARK                         _______ _______ _______ _____ _____    ______ ____
ROOT
ATOM      1  C   UNL     1       3.785  -2.666  26.227  0.00  0.00    +0.181 A 
ATOM      2  O   UNL     1       4.222  -1.617  25.403  0.00  0.00    -0.451 OA
ATOM      3  C   UNL     1       4.935  -0.578  25.932  0.00  0.00    +0.147 A 
ATOM      4  C   UNL     1       5.059  -0.408  27.300  0.00  0.00    +0.109 A 
ATOM      5  C   UNL     1       5.780   0.674  27.799  0.00  0.00    +0.135 A 
ATOM      6  C   UNL     1       6.415   1.552  26.921  0.00  0.00    +0.092 A 
ATOM      7  C   UNL     1       6.326   1.364  25.537  0.00  0.00    +0.131 A 
ATOM      8  C   UNL     1       4.462  -1.411  28.181  0.00  0.00    +0.238 A 
ATOM      9  O   UNL     1       4.484  -1.234  29.399  0.00  0.00    -0.283 OA
ATOM     10  C   UNL     1       5.558   0.312  25.038  0.00  0.00    +0.093 A 
ATOM     11  C   UNL     1       3.887  -2.662  27.581  0.00  0.00    +0.214 A 
ENDROOT
BRANCH   1  15
ATOM     12  C   UNL     1       2.676  -6.183  24.127  0.00  0.00    +0.161 A 
ATOM     13  C   UNL     1       1.926  -5.752  25.217  0.00  0.00    +0.050 A 
ATOM     14  C   UNL     1       2.214  -4.524  25.817  0.00  0.00    +0.015 A 
ATOM     15  C   UNL     1       3.247  -3.711  25.327  0.00  0.00    +0.025 A 
ATOM     16  C   UNL     1       3.934  -4.100  24.171  0.00  0.00    +0.060 A 
ATOM     17  C   UNL     1       3.632  -5.323  23.576  0.00  0.00    +0.159 A 
BRANCH  17  18
ATOM     18  O   UNL     1       4.348  -5.703  22.476  0.00  0.00    -0.503 OA
ATOM     19  H   UNL     1       5.107  -5.091  22.434  0.00  0.00    +0.292 HD
ENDBRANCH  17  18
BRANCH  12  21
ATOM     20  C   UNL     1       1.302  -7.627  22.894  0.00  0.00    +0.277 C 
ATOM     21  O   UNL     1       2.556  -7.422  23.551  0.00  0.00    -0.491 OA
ENDBRANCH  12  21
ENDBRANCH   1  15
BRANCH   5  22
ATOM     22  O   UNL     1       5.926   0.918  29.138  0.00  0.00    -0.506 OA
ATOM     23  H   UNL     1       6.422   1.761  29.248  0.00  0.00    +0.292 HD
ENDBRANCH   5  22
BRANCH  11  24
ATOM     24  O   UNL     1       3.591  -3.584  28.543  0.00  0.00    -0.453 OA
BRANCH  24  25
ATOM     25  C   UNL     1       4.546  -4.335  29.278  0.00  0.00    +0.340 C 
ATOM     26  O   UNL     1       5.700  -4.602  28.485  0.00  0.00    -0.331 OA
ATOM     27  C   UNL     1       5.477  -5.493  27.371  0.00  0.00    +0.179 C 
ATOM     28  C   UNL     1       4.915  -6.845  27.822  0.00  0.00    +0.177 C 
ATOM     29  C   UNL     1       3.629  -6.624  28.609  0.00  0.00    +0.180 C 
ATOM     30  C   UNL     1       3.873  -5.649  29.766  0.00  0.00    +0.214 C 
BRANCH  30  31
ATOM     31  O   UNL     1       2.620  -5.434  30.442  0.00  0.00    -0.383 OA
ATOM     32  H   UNL     1       2.123  -6.275  30.410  0.00  0.00    +0.210 HD
ENDBRANCH  30  31
BRANCH  29  33
ATOM     33  O   UNL     1       3.191  -7.892  29.132  0.00  0.00    -0.386 OA
ATOM     34  H   UNL     1       2.674  -8.322  28.421  0.00  0.00    +0.210 HD
ENDBRANCH  29  33
BRANCH  28  35
ATOM     35  O   UNL     1       5.850  -7.533  28.666  0.00  0.00    -0.386 OA
ATOM     36  H   UNL     1       6.166  -8.295  28.138  0.00  0.00    +0.210 HD
ENDBRANCH  28  35
BRANCH  27  37
ATOM     37  C   UNL     1       6.820  -5.678  26.650  0.00  0.00    +0.190 C 
BRANCH  37  38
ATOM     38  O   UNL     1       7.892  -5.911  27.568  0.00  0.00    -0.392 OA
ATOM     39  H   UNL     1       7.884  -5.204  28.232  0.00  0.00    +0.210 HD
ENDBRANCH  37  38
ENDBRANCH  27  37
ENDBRANCH  24  25
ENDBRANCH  11  24
BRANCH   7  40
ATOM     40  O   UNL     1       7.107   2.204  24.794  0.00  0.00    -0.461 OA
BRANCH  40  41
ATOM     41  C   UNL     1       7.235   1.991  23.378  0.00  0.00    +0.339 C 
ATOM     42  O   UNL     1       8.070   0.882  23.041  0.00  0.00    -0.331 OA
ATOM     43  C   UNL     1       9.459   1.025  23.407  0.00  0.00    +0.179 C 
ATOM     44  C   UNL     1      10.115   2.351  22.941  0.00  0.00    +0.177 C 
ATOM     45  C   UNL     1       9.227   3.550  23.275  0.00  0.00    +0.180 C 
ATOM     46  C   UNL     1       7.804   3.282  22.745  0.00  0.00    +0.214 C 
BRANCH  46  47
ATOM     47  O   UNL     1       6.973   4.424  22.976  0.00  0.00    -0.383 OA
ATOM     48  H   UNL     1       7.412   5.199  22.585  0.00  0.00    +0.210 HD
ENDBRANCH  46  47
BRANCH  45  49
ATOM     49  O   UNL     1       9.298   3.802  24.683  0.00  0.00    -0.386 OA
ATOM     50  H   UNL     1       9.736   3.042  25.113  0.00  0.00    +0.210 HD
ENDBRANCH  45  49
BRANCH  44  51
ATOM     51  O   UNL     1      10.359   2.335  21.530  0.00  0.00    -0.386 OA
ATOM     52  H   UNL     1      10.565   3.250  21.259  0.00  0.00    +0.210 HD
ENDBRANCH  44  51
BRANCH  43  53
ATOM     53  C   UNL     1      10.219  -0.176  22.809  0.00  0.00    +0.190 C 
BRANCH  53  54
ATOM     54  O   UNL     1       9.821  -0.466  21.467  0.00  0.00    -0.392 OA
ATOM     55  H   UNL     1      10.616  -0.697  20.961  0.00  0.00    +0.210 HD
ENDBRANCH  53  54
ENDBRANCH  43  53
ENDBRANCH  40  41
ENDBRANCH   7  40
TORSDOF 18
ENDMDL
MODEL 8
REMARK VINA RESULT:      -6.5      2.013      4.934
REMARK  Name = 
REMARK  19 active torsions:
REMARK  status: ('A' for Active; 'I' for Inactive)
REMARK    1  A    between atoms: C_1  and  O_2
REMARK    2  A    between atoms: O_2  and  C_3
REMARK    3  A    between atoms: C_4  and  O_50
REMARK    4  A    between atoms: C_6  and  C_9
REMARK    5  A    between atoms: C_10  and  O_36
REMARK    6  A    between atoms: C_14  and  O_35
REMARK    7  A    between atoms: C_16  and  O_20
REMARK    8  A    between atoms: O_20  and  C_21
REMARK    9  A    between atoms: C_23  and  O_34
REMARK   10  A    between atoms: C_24  and  O_33
REMARK   11  A    between atoms: C_26  and  O_32
REMARK   12  A    between atoms: C_28  and  C_30
REMARK   13  A    between atoms: C_30  and  O_31
REMARK   14  A    between atoms: O_36  and  C_37
REMARK   15  A    between atoms: C_39  and  O_49
REMARK   16  A    between atoms: C_40  and  O_48
REMARK   17  A    between atoms: C_41  and  O_47
REMARK   18  A    between atoms: C_43  and  C_45
REMARK   19  A    between atoms: C_45  and  O_46
REMARK                            x       y       z     vdW  Elec       q    Type
REMARK                         _______ _______ _______ _____ _____    ______ ____
ROOT
ATOM      1  C   UNL     1       3.904  -2.883  25.675  0.00  0.00    +0.181 A 
ATOM      2  O   UNL     1       4.551  -2.002  24.795  0.00  0.00    -0.451 OA
ATOM      3  C   UNL     1       5.381  -1.030  25.282  0.00  0.00    +0.147 A 
ATOM      4  C   UNL     1       5.440  -0.741  26.634  0.00  0.00    +0.109 A 
ATOM      5  C   UNL     1       6.286   0.268  27.088  0.00  0.00    +0.135 A 
ATOM      6  C   UNL     1       7.106   0.946  26.187  0.00  0.00    +0.092 A 
ATOM      7  C   UNL     1       7.079   0.633  24.823  0.00  0.00    +0.131 A 
ATOM      8  C   UNL     1       4.639  -1.548  27.553  0.00  0.00    +0.238 A 
ATOM      9  O   UNL     1       4.608  -1.252  28.748  0.00  0.00    -0.283 OA
ATOM     10  C   UNL     1       6.191  -0.339  24.363  0.00  0.00    +0.093 A 
ATOM     11  C   UNL     1       3.917  -2.755  27.026  0.00  0.00    +0.214 A 
ENDROOT
BRANCH   1  15
ATOM     12  C   UNL     1       2.401  -6.395  23.825  0.00  0.00    +0.161 A 
ATOM     13  C   UNL     1       1.658  -5.747  24.807  0.00  0.00    +0.050 A 
ATOM     14  C   UNL     1       2.093  -4.520  25.312  0.00  0.00    +0.015 A 
ATOM     15  C   UNL     1       3.270  -3.924  24.834  0.00  0.00    +0.025 A 
ATOM     16  C   UNL     1       3.962  -4.528  23.778  0.00  0.00    +0.060 A 
ATOM     17  C   UNL     1       3.513  -5.747  23.275  0.00  0.00    +0.159 A 
BRANCH  17  18
ATOM     18  O   UNL     1       4.231  -6.341  22.275  0.00  0.00    -0.503 OA
ATOM     19  H   UNL     1       3.996  -5.856  21.461  0.00  0.00    +0.292 HD
ENDBRANCH  17  18
BRANCH  12  21
ATOM     20  C   UNL     1       1.062  -7.691  22.402  0.00  0.00    +0.277 C 
ATOM     21  O   UNL     1       2.128  -7.655  23.356  0.00  0.00    -0.491 OA
ENDBRANCH  12  21
ENDBRANCH   1  15
BRANCH   5  22
ATOM     22  O   UNL     1       6.380   0.624  28.406  0.00  0.00    -0.506 OA
ATOM     23  H   UNL     1       6.086  -0.138  28.956  0.00  0.00    +0.292 HD
ENDBRANCH   5  22
BRANCH  11  24
ATOM     24  O   UNL     1       3.419  -3.519  28.041  0.00  0.00    -0.453 OA
BRANCH  24  25
ATOM     25  C   UNL     1       4.195  -4.324  28.917  0.00  0.00    +0.340 C 
ATOM     26  O   UNL     1       5.455  -4.640  28.331  0.00  0.00    -0.331 OA
ATOM     27  C   UNL     1       5.387  -5.508  27.179  0.00  0.00    +0.179 C 
ATOM     28  C   UNL     1       4.693  -6.835  27.502  0.00  0.00    +0.177 C 
ATOM     29  C   UNL     1       3.302  -6.558  28.059  0.00  0.00    +0.180 C 
ATOM     30  C   UNL     1       3.387  -5.608  29.258  0.00  0.00    +0.214 C 
BRANCH  30  31
ATOM     31  O   UNL     1       2.047  -5.337  29.711  0.00  0.00    -0.383 OA
ATOM     32  H   UNL     1       1.448  -5.937  29.224  0.00  0.00    +0.210 HD
ENDBRANCH  30  31
BRANCH  29  33
ATOM     33  O   UNL     1       2.721  -7.808  28.475  0.00  0.00    -0.386 OA
ATOM     34  H   UNL     1       2.239  -7.626  29.308  0.00  0.00    +0.210 HD
ENDBRANCH  29  33
BRANCH  28  35
ATOM     35  O   UNL     1       5.434  -7.576  28.483  0.00  0.00    -0.386 OA
ATOM     36  H   UNL     1       5.940  -8.244  27.976  0.00  0.00    +0.210 HD
ENDBRANCH  28  35
BRANCH  27  37
ATOM     37  C   UNL     1       6.825  -5.752  26.698  0.00  0.00    +0.190 C 
BRANCH  37  38
ATOM     38  O   UNL     1       7.715  -6.021  27.785  0.00  0.00    -0.392 OA
ATOM     39  H   UNL     1       8.625  -5.990  27.450  0.00  0.00    +0.210 HD
ENDBRANCH  37  38
ENDBRANCH  27  37
ENDBRANCH  24  25
ENDBRANCH  11  24
BRANCH   7  40
ATOM     40  O   UNL     1       8.028   1.266  24.071  0.00  0.00    -0.461 OA
BRANCH  40  41
ATOM     41  C   UNL     1       9.220   1.764  24.702  0.00  0.00    +0.339 C 
ATOM     42  O   UNL     1       9.223   3.183  24.876  0.00  0.00    -0.331 OA
ATOM     43  C   UNL     1       9.236   3.952  23.655  0.00  0.00    +0.179 C 
ATOM     44  C   UNL     1      10.334   3.535  22.643  0.00  0.00    +0.177 C 
ATOM     45  C   UNL     1      10.361   2.017  22.456  0.00  0.00    +0.180 C 
ATOM     46  C   UNL     1      10.435   1.344  23.841  0.00  0.00    +0.214 C 
BRANCH  46  47
ATOM     47  O   UNL     1      10.540  -0.074  23.691  0.00  0.00    -0.383 OA
ATOM     48  H   UNL     1      11.387  -0.355  24.079  0.00  0.00    +0.210 HD
ENDBRANCH  46  47
BRANCH  45  49
ATOM     49  O   UNL     1       9.232   1.627  21.665  0.00  0.00    -0.386 OA
ATOM     50  H   UNL     1       8.842   2.427  21.265  0.00  0.00    +0.210 HD
ENDBRANCH  45  49
BRANCH  44  51
ATOM     51  O   UNL     1      11.627   3.970  23.077  0.00  0.00    -0.386 OA
ATOM     52  H   UNL     1      11.662   3.857  24.046  0.00  0.00    +0.210 HD
ENDBRANCH  44  51
BRANCH  43  53
ATOM     53  C   UNL     1       9.416   5.433  24.046  0.00  0.00    +0.190 C 
BRANCH  53  54
ATOM     54  O   UNL     1       9.875   6.237  22.957  0.00  0.00    -0.392 OA
ATOM     55  H   UNL     1      10.306   5.654  22.313  0.00  0.00    +0.210 HD
ENDBRANCH  53  54
ENDBRANCH  43  53
ENDBRANCH  40  41
ENDBRANCH   7  40
TORSDOF 18
ENDMDL
MODEL 9
REMARK VINA RESULT:      -6.4      2.425      5.378
REMARK  Name = 
REMARK  19 active torsions:
REMARK  status: ('A' for Active; 'I' for Inactive)
REMARK    1  A    between atoms: C_1  and  O_2
REMARK    2  A    between atoms: O_2  and  C_3
REMARK    3  A    between atoms: C_4  and  O_50
REMARK    4  A    between atoms: C_6  and  C_9
REMARK    5  A    between atoms: C_10  and  O_36
REMARK    6  A    between atoms: C_14  and  O_35
REMARK    7  A    between atoms: C_16  and  O_20
REMARK    8  A    between atoms: O_20  and  C_21
REMARK    9  A    between atoms: C_23  and  O_34
REMARK   10  A    between atoms: C_24  and  O_33
REMARK   11  A    between atoms: C_26  and  O_32
REMARK   12  A    between atoms: C_28  and  C_30
REMARK   13  A    between atoms: C_30  and  O_31
REMARK   14  A    between atoms: O_36  and  C_37
REMARK   15  A    between atoms: C_39  and  O_49
REMARK   16  A    between atoms: C_40  and  O_48
REMARK   17  A    between atoms: C_41  and  O_47
REMARK   18  A    between atoms: C_43  and  C_45
REMARK   19  A    between atoms: C_45  and  O_46
REMARK                            x       y       z     vdW  Elec       q    Type
REMARK                         _______ _______ _______ _____ _____    ______ ____
ROOT
ATOM      1  C   UNL     1       4.880  -1.910  25.669  0.00  0.00    +0.181 A 
ATOM      2  O   UNL     1       5.267  -0.679  25.117  0.00  0.00    -0.451 OA
ATOM      3  C   UNL     1       5.244   0.455  25.881  0.00  0.00    +0.147 A 
ATOM      4  C   UNL     1       4.641   0.474  27.127  0.00  0.00    +0.109 A 
ATOM      5  C   UNL     1       4.624   1.655  27.867  0.00  0.00    +0.135 A 
ATOM      6  C   UNL     1       5.256   2.795  27.372  0.00  0.00    +0.092 A 
ATOM      7  C   UNL     1       5.900   2.772  26.129  0.00  0.00    +0.131 A 
ATOM      8  C   UNL     1       4.082  -0.772  27.648  0.00  0.00    +0.238 A 
ATOM      9  O   UNL     1       3.465  -0.757  28.714  0.00  0.00    -0.283 OA
ATOM     10  C   UNL     1       5.868   1.605  25.366  0.00  0.00    +0.093 A 
ATOM     11  C   UNL     1       4.324  -2.051  26.899  0.00  0.00    +0.214 A 
ENDROOT
BRANCH   1  15
ATOM     12  C   UNL     1       5.623  -4.304  22.244  0.00  0.00    +0.161 A 
ATOM     13  C   UNL     1       6.613  -3.459  22.737  0.00  0.00    +0.050 A 
ATOM     14  C   UNL     1       6.412  -2.779  23.940  0.00  0.00    +0.015 A 
ATOM     15  C   UNL     1       5.223  -2.945  24.667  0.00  0.00    +0.025 A 
ATOM     16  C   UNL     1       4.271  -3.870  24.221  0.00  0.00    +0.060 A 
ATOM     17  C   UNL     1       4.489  -4.549  23.024  0.00  0.00    +0.159 A 
BRANCH  17  18
ATOM     18  O   UNL     1       3.524  -5.413  22.585  0.00  0.00    -0.503 OA
ATOM     19  H   UNL     1       3.383  -6.042  23.318  0.00  0.00    +0.292 HD
ENDBRANCH  17  18
BRANCH  12  21
ATOM     20  C   UNL     1       6.588  -6.013  20.961  0.00  0.00    +0.277 C 
ATOM     21  O   UNL     1       5.672  -4.915  21.017  0.00  0.00    -0.491 OA
ENDBRANCH  12  21
ENDBRANCH   1  15
BRANCH   5  22
ATOM     22  O   UNL     1       4.029   1.755  29.094  0.00  0.00    -0.506 OA
ATOM     23  H   UNL     1       3.095   2.038  28.965  0.00  0.00    +0.292 HD
ENDBRANCH   5  22
BRANCH  11  24
ATOM     24  O   UNL     1       3.943  -3.136  27.634  0.00  0.00    -0.453 OA
BRANCH  24  25
ATOM     25  C   UNL     1       4.767  -3.826  28.562  0.00  0.00    +0.340 C 
ATOM     26  O   UNL     1       5.953  -4.301  27.931  0.00  0.00    -0.331 OA
ATOM     27  C   UNL     1       5.744  -5.343  26.953  0.00  0.00    +0.179 C 
ATOM     28  C   UNL     1       5.033  -6.559  27.554  0.00  0.00    +0.177 C 
ATOM     29  C   UNL     1       3.712  -6.120  28.175  0.00  0.00    +0.180 C 
ATOM     30  C   UNL     1       3.947  -4.991  29.184  0.00  0.00    +0.214 C 
BRANCH  30  31
ATOM     31  O   UNL     1       2.666  -4.579  29.699  0.00  0.00    -0.383 OA
ATOM     32  H   UNL     1       2.771  -3.671  30.046  0.00  0.00    +0.210 HD
ENDBRANCH  30  31
BRANCH  29  33
ATOM     33  O   UNL     1       3.126  -7.251  28.845  0.00  0.00    -0.386 OA
ATOM     34  H   UNL     1       3.450  -8.049  28.380  0.00  0.00    +0.210 HD
ENDBRANCH  29  33
BRANCH  28  35
ATOM     35  O   UNL     1       5.834  -7.167  28.578  0.00  0.00    -0.386 OA
ATOM     36  H   UNL     1       5.196  -7.529  29.227  0.00  0.00    +0.210 HD
ENDBRANCH  28  35
BRANCH  27  37
ATOM     37  C   UNL     1       7.119  -5.740  26.397  0.00  0.00    +0.190 C 
BRANCH  37  38
ATOM     38  O   UNL     1       8.118  -5.783  27.421  0.00  0.00    -0.392 OA
ATOM     39  H   UNL     1       8.291  -4.876  27.717  0.00  0.00    +0.210 HD
ENDBRANCH  37  38
ENDBRANCH  27  37
ENDBRANCH  24  25
ENDBRANCH  11  24
BRANCH   7  40
ATOM     40  O   UNL     1       6.600   3.905  25.826  0.00  0.00    -0.461 OA
BRANCH  40  41
ATOM     41  C   UNL     1       6.774   4.287  24.451  0.00  0.00    +0.339 C 
ATOM     42  O   UNL     1       7.742   3.497  23.757  0.00  0.00    -0.331 OA
ATOM     43  C   UNL     1       9.097   3.625  24.235  0.00  0.00    +0.179 C 
ATOM     44  C   UNL     1       9.597   5.087  24.369  0.00  0.00    +0.177 C 
ATOM     45  C   UNL     1       8.567   5.956  25.092  0.00  0.00    +0.180 C 
ATOM     46  C   UNL     1       7.195   5.775  24.412  0.00  0.00    +0.214 C 
BRANCH  46  47
ATOM     47  O   UNL     1       6.230   6.638  25.021  0.00  0.00    -0.383 OA
ATOM     48  H   UNL     1       5.401   6.139  25.119  0.00  0.00    +0.210 HD
ENDBRANCH  46  47
BRANCH  45  49
ATOM     49  O   UNL     1       8.586   5.633  26.488  0.00  0.00    -0.386 OA
ATOM     50  H   UNL     1       9.509   5.668  26.802  0.00  0.00    +0.210 HD
ENDBRANCH  45  49
BRANCH  44  51
ATOM     51  O   UNL     1       9.864   5.659  23.084  0.00  0.00    -0.386 OA
ATOM     52  H   UNL     1       9.023   6.020  22.745  0.00  0.00    +0.210 HD
ENDBRANCH  44  51
BRANCH  43  53
ATOM     53  C   UNL     1      10.004   2.846  23.262  0.00  0.00    +0.190 C 
BRANCH  53  54
ATOM     54  O   UNL     1       9.458   2.768  21.943  0.00  0.00    -0.392 OA
ATOM     55  H   UNL     1      10.194   2.762  21.312  0.00  0.00    +0.210 HD
ENDBRANCH  53  54
ENDBRANCH  43  53
ENDBRANCH  40  41
ENDBRANCH   7  40
TORSDOF 18
ENDMDL
