MODEL 1
REMARK VINA RESULT:      -7.1      0.000      0.000
REMARK  Name = 
REMARK  23 active torsions:
REMARK  status: ('A' for Active; 'I' for Inactive)
REMARK    1  A    between atoms: C_1  and  C_2
REMARK    2  A    between atoms: C_3  and  O_62
REMARK    3  A    between atoms: C_5  and  O_61
REMARK    4  A    between atoms: C_6  and  O_60
REMARK    5  A    between atoms: C_8  and  O_11
REMARK    6  A    between atoms: O_11  and  C_12
REMARK    7  A    between atoms: C_13  and  O_38
REMARK    8  A    between atoms: C_16  and  C_22
REMARK    9  A    between atoms: C_17  and  O_21
REMARK   10  A    between atoms: C_19  and  O_20
REMARK   11  A    between atoms: C_22  and  O_23
REMARK   12  A    between atoms: O_23  and  C_24
REMARK   13  A    between atoms: C_26  and  O_37
REMARK   14  A    between atoms: C_27  and  O_36
REMARK   15  A    between atoms: C_29  and  O_35
REMARK   16  A    between atoms: C_31  and  C_33
REMARK   17  A    between atoms: C_33  and  O_34
REMARK   18  A    between atoms: O_38  and  C_39
REMARK   19  A    between atoms: C_40  and  C_52
REMARK   20  A    between atoms: C_44  and  O_51
REMARK   21  A    between atoms: C_46  and  O_50
REMARK   22  A    between atoms: C_54  and  O_59
REMARK   23  A    between atoms: C_55  and  O_58
REMARK                            x       y       z     vdW  Elec       q    Type
REMARK                         _______ _______ _______ _____ _____    ______ ____
ROOT
ATOM      1  C   UNL     1       4.823  -0.449  27.579  0.00  0.00    +0.221 C 
ATOM      2  C   UNL     1       3.574  -1.350  27.540  0.00  0.00    +0.180 C 
ATOM      3  C   UNL     1       3.982  -2.820  27.708  0.00  0.00    +0.177 C 
ATOM      4  C   UNL     1       5.056  -3.196  26.687  0.00  0.00    +0.179 C 
ATOM      5  O   UNL     1       6.217  -2.380  26.834  0.00  0.00    -0.331 OA
ATOM      6  C   UNL     1       5.991  -0.980  26.683  0.00  0.00    +0.340 C 
ENDROOT
BRANCH   3   7
ATOM      7  O   UNL     1       2.850  -3.689  27.619  0.00  0.00    -0.386 OA
ATOM      8  H   UNL     1       2.051  -3.157  27.775  0.00  0.00    +0.210 HD
ENDBRANCH   3   7
BRANCH   2   9
ATOM      9  O   UNL     1       2.792  -1.155  26.352  0.00  0.00    -0.386 OA
ATOM     10  H   UNL     1       3.109  -0.384  25.856  0.00  0.00    +0.210 HD
ENDBRANCH   2   9
BRANCH   6  11
ATOM     11  O   UNL     1       5.860  -0.525  25.322  0.00  0.00    -0.453 OA
BRANCH  11  12
ATOM     12  C   UNL     1       6.927   0.218  24.792  0.00  0.00    +0.214 A 
ATOM     13  C   UNL     1       7.027   1.712  24.985  0.00  0.00    +0.238 A 
ATOM     14  O   UNL     1       6.087   2.359  25.435  0.00  0.00    -0.283 OA
ATOM     15  C   UNL     1       8.243   2.391  24.497  0.00  0.00    +0.109 A 
ATOM     16  C   UNL     1       9.172   1.634  23.802  0.00  0.00    +0.147 A 
ATOM     17  C   UNL     1      10.340   2.210  23.294  0.00  0.00    +0.092 A 
ATOM     18  C   UNL     1      10.561   3.564  23.477  0.00  0.00    +0.124 A 
ATOM     19  C   UNL     1       9.631   4.354  24.141  0.00  0.00    +0.091 A 
ATOM     20  O   UNL     1       9.000   0.302  23.541  0.00  0.00    -0.451 OA
ATOM     21  C   UNL     1       8.476   3.765  24.659  0.00  0.00    +0.135 A 
ATOM     22  C   UNL     1       7.876  -0.361  24.016  0.00  0.00    +0.181 A 
BRANCH  22  23
ATOM     23  C   UNL     1       7.847  -1.773  23.528  0.00  0.00    +0.025 A 
ATOM     24  C   UNL     1       6.950  -2.146  22.495  0.00  0.00    +0.015 A 
ATOM     25  C   UNL     1       6.767  -3.483  22.119  0.00  0.00    +0.050 A 
ATOM     26  C   UNL     1       7.471  -4.469  22.784  0.00  0.00    +0.158 A 
ATOM     27  C   UNL     1       8.364  -4.136  23.795  0.00  0.00    +0.159 A 
ATOM     28  C   UNL     1       8.560  -2.805  24.164  0.00  0.00    +0.060 A 
BRANCH  27  29
ATOM     29  O   UNL     1       8.995  -5.163  24.440  0.00  0.00    -0.503 OA
ATOM     30  H   UNL     1       9.537  -4.792  25.156  0.00  0.00    +0.292 HD
ENDBRANCH  27  29
BRANCH  26  31
ATOM     31  O   UNL     1       7.246  -5.778  22.471  0.00  0.00    -0.503 OA
ATOM     32  H   UNL     1       6.485  -5.757  21.854  0.00  0.00    +0.292 HD
ENDBRANCH  26  31
ENDBRANCH  22  23
BRANCH  21  33
ATOM     33  O   UNL     1       7.572   4.567  25.298  0.00  0.00    -0.506 OA
ATOM     34  H   UNL     1       8.021   5.344  25.667  0.00  0.00    +0.292 HD
ENDBRANCH  21  33
BRANCH  18  35
ATOM     35  O   UNL     1      11.684   4.186  22.998  0.00  0.00    -0.507 OA
ATOM     36  H   UNL     1      11.472   5.123  22.802  0.00  0.00    +0.292 HD
ENDBRANCH  18  35
ENDBRANCH  11  12
ENDBRANCH   6  11
BRANCH   4  37
ATOM     37  C   UNL     1       4.565  -3.186  25.239  0.00  0.00    +0.197 C 
BRANCH  37  38
ATOM     38  O   UNL     1       3.635  -4.236  24.950  0.00  0.00    -0.346 OA
BRANCH  38  39
ATOM     39  C   UNL     1       4.003  -5.145  23.910  0.00  0.00    +0.282 C 
ATOM     40  O   UNL     1       2.839  -5.406  23.108  0.00  0.00    -0.341 OA
ATOM     41  C   UNL     1       1.754  -5.969  23.871  0.00  0.00    +0.178 C 
ATOM     42  C   UNL     1       2.174  -7.297  24.545  0.00  0.00    +0.177 C 
ATOM     43  C   UNL     1       3.466  -7.117  25.357  0.00  0.00    +0.179 C 
ATOM     44  C   UNL     1       4.546  -6.479  24.460  0.00  0.00    +0.201 C 
BRANCH  44  45
ATOM     45  O   UNL     1       5.799  -6.341  25.140  0.00  0.00    -0.384 OA
ATOM     46  H   UNL     1       6.507  -6.459  24.476  0.00  0.00    +0.210 HD
ENDBRANCH  44  45
BRANCH  43  47
ATOM     47  O   UNL     1       3.225  -6.362  26.550  0.00  0.00    -0.386 OA
ATOM     48  H   UNL     1       3.850  -6.659  27.247  0.00  0.00    +0.210 HD
ENDBRANCH  43  47
BRANCH  42  49
ATOM     49  O   UNL     1       2.416  -8.301  23.555  0.00  0.00    -0.386 OA
ATOM     50  H   UNL     1       3.247  -8.751  23.796  0.00  0.00    +0.210 HD
ENDBRANCH  42  49
BRANCH  41  51
ATOM     51  C   UNL     1       0.538  -6.096  22.940  0.00  0.00    +0.190 C 
BRANCH  51  52
ATOM     52  O   UNL     1       0.789  -6.822  21.744  0.00  0.00    -0.392 OA
ATOM     53  H   UNL     1      -0.011  -6.729  21.188  0.00  0.00    +0.210 HD
ENDBRANCH  51  52
ENDBRANCH  41  51
ENDBRANCH  38  39
ENDBRANCH  37  38
ENDBRANCH   4  37
BRANCH   1  54
ATOM     54  O   UNL     1       5.214  -0.355  28.966  0.00  0.00    -0.337 OA
BRANCH  54  58
ATOM     55  C   UNL     1       4.170   3.619  29.975  0.00  0.00    +0.041 C 
ATOM     56  C   UNL     1       5.179   3.286  28.872  0.00  0.00    +0.149 C 
ATOM     57  O   UNL     1       5.073   1.916  28.447  0.00  0.00    -0.343 OA
ATOM     58  C   UNL     1       5.489   0.969  29.438  0.00  0.00    +0.282 C 
ATOM     59  C   UNL     1       6.975   1.174  29.805  0.00  0.00    +0.201 C 
ATOM     60  C   UNL     1       7.193   2.610  30.271  0.00  0.00    +0.179 C 
ATOM     61  C   UNL     1       6.631   3.614  29.258  0.00  0.00    +0.174 C 
BRANCH  61  62
ATOM     62  O   UNL     1       7.468   3.561  28.086  0.00  0.00    -0.387 OA
ATOM     63  H   UNL     1       7.696   2.613  27.958  0.00  0.00    +0.210 HD
ENDBRANCH  61  62
BRANCH  60  64
ATOM     64  O   UNL     1       8.602   2.821  30.444  0.00  0.00    -0.386 OA
ATOM     65  H   UNL     1       9.030   2.234  29.785  0.00  0.00    +0.210 HD
ENDBRANCH  60  64
BRANCH  59  66
ATOM     66  O   UNL     1       7.817   0.884  28.670  0.00  0.00    -0.384 OA
ATOM     67  H   UNL     1       7.971  -0.079  28.689  0.00  0.00    +0.210 HD
ENDBRANCH  59  66
ENDBRANCH  54  58
ENDBRANCH   1  54
TORSDOF 22
ENDMDL
MODEL 2
REMARK VINA RESULT:      -6.9      1.608      2.043
REMARK  Name = 
REMARK  23 active torsions:
REMARK  status: ('A' for Active; 'I' for Inactive)
REMARK    1  A    between atoms: C_1  and  C_2
REMARK    2  A    between atoms: C_3  and  O_62
REMARK    3  A    between atoms: C_5  and  O_61
REMARK    4  A    between atoms: C_6  and  O_60
REMARK    5  A    between atoms: C_8  and  O_11
REMARK    6  A    between atoms: O_11  and  C_12
REMARK    7  A    between atoms: C_13  and  O_38
REMARK    8  A    between atoms: C_16  and  C_22
REMARK    9  A    between atoms: C_17  and  O_21
REMARK   10  A    between atoms: C_19  and  O_20
REMARK   11  A    between atoms: C_22  and  O_23
REMARK   12  A    between atoms: O_23  and  C_24
REMARK   13  A    between atoms: C_26  and  O_37
REMARK   14  A    between atoms: C_27  and  O_36
REMARK   15  A    between atoms: C_29  and  O_35
REMARK   16  A    between atoms: C_31  and  C_33
REMARK   17  A    between atoms: C_33  and  O_34
REMARK   18  A    between atoms: O_38  and  C_39
REMARK   19  A    between atoms: C_40  and  C_52
REMARK   20  A    between atoms: C_44  and  O_51
REMARK   21  A    between atoms: C_46  and  O_50
REMARK   22  A    between atoms: C_54  and  O_59
REMARK   23  A    between atoms: C_55  and  O_58
REMARK                            x       y       z     vdW  Elec       q    Type
REMARK                         _______ _______ _______ _____ _____    ______ ____
ROOT
ATOM      1  C   UNL     1       5.322   0.870  27.477  0.00  0.00    +0.221 C 
ATOM      2  C   UNL     1       4.281  -0.266  27.472  0.00  0.00    +0.180 C 
ATOM      3  C   UNL     1       4.925  -1.569  27.964  0.00  0.00    +0.177 C 
ATOM      4  C   UNL     1       6.190  -1.876  27.162  0.00  0.00    +0.179 C 
ATOM      5  O   UNL     1       7.145  -0.823  27.280  0.00  0.00    -0.331 OA
ATOM      6  C   UNL     1       6.689   0.455  26.837  0.00  0.00    +0.340 C 
ENDROOT
BRANCH   3   7
ATOM      7  O   UNL     1       4.000  -2.659  27.916  0.00  0.00    -0.386 OA
ATOM      8  H   UNL     1       4.494  -3.478  28.097  0.00  0.00    +0.210 HD
ENDBRANCH   3   7
BRANCH   2   9
ATOM      9  O   UNL     1       3.663  -0.439  26.188  0.00  0.00    -0.386 OA
ATOM     10  H   UNL     1       2.740  -0.723  26.288  0.00  0.00    +0.210 HD
ENDBRANCH   2   9
BRANCH   6  11
ATOM     11  O   UNL     1       6.679   0.640  25.408  0.00  0.00    -0.453 OA
BRANCH  11  12
ATOM     12  C   UNL     1       7.730   1.390  24.856  0.00  0.00    +0.214 A 
ATOM     13  C   UNL     1       7.797   2.891  25.004  0.00  0.00    +0.238 A 
ATOM     14  O   UNL     1       6.843   3.530  25.434  0.00  0.00    -0.283 OA
ATOM     15  C   UNL     1       8.997   3.581  24.495  0.00  0.00    +0.109 A 
ATOM     16  C   UNL     1       9.943   2.825  23.823  0.00  0.00    +0.147 A 
ATOM     17  C   UNL     1      11.098   3.410  23.297  0.00  0.00    +0.092 A 
ATOM     18  C   UNL     1      11.290   4.774  23.439  0.00  0.00    +0.124 A 
ATOM     19  C   UNL     1      10.342   5.563  24.079  0.00  0.00    +0.091 A 
ATOM     20  O   UNL     1       9.800   1.482  23.602  0.00  0.00    -0.451 OA
ATOM     21  C   UNL     1       9.200   4.964  24.615  0.00  0.00    +0.135 A 
ATOM     22  C   UNL     1       8.691   0.808  24.097  0.00  0.00    +0.181 A 
BRANCH  22  23
ATOM     23  C   UNL     1       8.693  -0.618  23.652  0.00  0.00    +0.025 A 
ATOM     24  C   UNL     1       7.761  -1.056  22.678  0.00  0.00    +0.015 A 
ATOM     25  C   UNL     1       7.612  -2.410  22.350  0.00  0.00    +0.050 A 
ATOM     26  C   UNL     1       8.387  -3.347  23.005  0.00  0.00    +0.158 A 
ATOM     27  C   UNL     1       9.317  -2.950  23.959  0.00  0.00    +0.159 A 
ATOM     28  C   UNL     1       9.478  -1.602  24.279  0.00  0.00    +0.060 A 
BRANCH  27  29
ATOM     29  O   UNL     1      10.020  -3.932  24.600  0.00  0.00    -0.503 OA
ATOM     30  H   UNL     1       9.400  -4.633  24.866  0.00  0.00    +0.292 HD
ENDBRANCH  27  29
BRANCH  26  31
ATOM     31  O   UNL     1       8.199  -4.673  22.742  0.00  0.00    -0.503 OA
ATOM     32  H   UNL     1       7.232  -4.764  22.616  0.00  0.00    +0.292 HD
ENDBRANCH  26  31
ENDBRANCH  22  23
BRANCH  21  33
ATOM     33  O   UNL     1       8.279   5.765  25.230  0.00  0.00    -0.506 OA
ATOM     34  H   UNL     1       8.675   6.625  25.441  0.00  0.00    +0.292 HD
ENDBRANCH  21  33
BRANCH  18  35
ATOM     35  O   UNL     1      12.398   5.406  22.940  0.00  0.00    -0.507 OA
ATOM     36  H   UNL     1      12.143   5.921  22.146  0.00  0.00    +0.292 HD
ENDBRANCH  18  35
ENDBRANCH  11  12
ENDBRANCH   6  11
BRANCH   4  37
ATOM     37  C   UNL     1       5.927  -2.210  25.693  0.00  0.00    +0.197 C 
BRANCH  37  38
ATOM     38  O   UNL     1       5.122  -3.380  25.514  0.00  0.00    -0.346 OA
BRANCH  38  39
ATOM     39  C   UNL     1       5.797  -4.637  25.599  0.00  0.00    +0.282 C 
ATOM     40  O   UNL     1       6.000  -5.131  24.264  0.00  0.00    -0.341 OA
ATOM     41  C   UNL     1       4.765  -5.301  23.542  0.00  0.00    +0.178 C 
ATOM     42  C   UNL     1       3.821  -6.285  24.273  0.00  0.00    +0.177 C 
ATOM     43  C   UNL     1       3.621  -5.869  25.739  0.00  0.00    +0.179 C 
ATOM     44  C   UNL     1       4.999  -5.681  26.406  0.00  0.00    +0.201 C 
BRANCH  44  45
ATOM     45  O   UNL     1       4.885  -5.352  27.796  0.00  0.00    -0.384 OA
ATOM     46  H   UNL     1       5.699  -4.874  28.051  0.00  0.00    +0.210 HD
ENDBRANCH  44  45
BRANCH  43  47
ATOM     47  O   UNL     1       2.798  -4.701  25.837  0.00  0.00    -0.386 OA
ATOM     48  H   UNL     1       3.027  -4.088  25.104  0.00  0.00    +0.210 HD
ENDBRANCH  43  47
BRANCH  42  49
ATOM     49  O   UNL     1       4.375  -7.605  24.264  0.00  0.00    -0.386 OA
ATOM     50  H   UNL     1       5.345  -7.511  24.266  0.00  0.00    +0.210 HD
ENDBRANCH  42  49
BRANCH  41  51
ATOM     51  C   UNL     1       5.113  -5.718  22.104  0.00  0.00    +0.190 C 
BRANCH  51  52
ATOM     52  O   UNL     1       6.101  -6.735  22.012  0.00  0.00    -0.392 OA
ATOM     53  H   UNL     1       6.038  -7.104  21.107  0.00  0.00    +0.210 HD
ENDBRANCH  51  52
ENDBRANCH  41  51
ENDBRANCH  38  39
ENDBRANCH  37  38
ENDBRANCH   4  37
BRANCH   1  54
ATOM     54  O   UNL     1       5.477   1.272  28.855  0.00  0.00    -0.337 OA
BRANCH  54  58
ATOM     55  C   UNL     1       3.198   4.824  29.158  0.00  0.00    +0.041 C 
ATOM     56  C   UNL     1       4.348   4.665  28.160  0.00  0.00    +0.149 C 
ATOM     57  O   UNL     1       4.698   3.283  27.963  0.00  0.00    -0.343 OA
ATOM     58  C   UNL     1       5.298   2.670  29.111  0.00  0.00    +0.282 C 
ATOM     59  C   UNL     1       6.616   3.380  29.489  0.00  0.00    +0.201 C 
ATOM     60  C   UNL     1       6.349   4.865  29.717  0.00  0.00    +0.179 C 
ATOM     61  C   UNL     1       5.595   5.484  28.534  0.00  0.00    +0.174 C 
BRANCH  61  62
ATOM     62  O   UNL     1       6.503   5.522  27.416  0.00  0.00    -0.387 OA
ATOM     63  H   UNL     1       7.405   5.417  27.793  0.00  0.00    +0.210 HD
ENDBRANCH  61  62
BRANCH  60  64
ATOM     64  O   UNL     1       7.608   5.528  29.901  0.00  0.00    -0.386 OA
ATOM     65  H   UNL     1       7.377   6.447  30.157  0.00  0.00    +0.210 HD
ENDBRANCH  60  64
BRANCH  59  66
ATOM     66  O   UNL     1       7.597   3.205  28.446  0.00  0.00    -0.384 OA
ATOM     67  H   UNL     1       7.232   2.530  27.844  0.00  0.00    +0.210 HD
ENDBRANCH  59  66
ENDBRANCH  54  58
ENDBRANCH   1  54
TORSDOF 22
ENDMDL
MODEL 3
REMARK VINA RESULT:      -6.6      1.098      2.153
REMARK  Name = 
REMARK  23 active torsions:
REMARK  status: ('A' for Active; 'I' for Inactive)
REMARK    1  A    between atoms: C_1  and  C_2
REMARK    2  A    between atoms: C_3  and  O_62
REMARK    3  A    between atoms: C_5  and  O_61
REMARK    4  A    between atoms: C_6  and  O_60
REMARK    5  A    between atoms: C_8  and  O_11
REMARK    6  A    between atoms: O_11  and  C_12
REMARK    7  A    between atoms: C_13  and  O_38
REMARK    8  A    between atoms: C_16  and  C_22
REMARK    9  A    between atoms: C_17  and  O_21
REMARK   10  A    between atoms: C_19  and  O_20
REMARK   11  A    between atoms: C_22  and  O_23
REMARK   12  A    between atoms: O_23  and  C_24
REMARK   13  A    between atoms: C_26  and  O_37
REMARK   14  A    between atoms: C_27  and  O_36
REMARK   15  A    between atoms: C_29  and  O_35
REMARK   16  A    between atoms: C_31  and  C_33
REMARK   17  A    between atoms: C_33  and  O_34
REMARK   18  A    between atoms: O_38  and  C_39
REMARK   19  A    between atoms: C_40  and  C_52
REMARK   20  A    between atoms: C_44  and  O_51
REMARK   21  A    between atoms: C_46  and  O_50
REMARK   22  A    between atoms: C_54  and  O_59
REMARK   23  A    between atoms: C_55  and  O_58
REMARK                            x       y       z     vdW  Elec       q    Type
REMARK                         _______ _______ _______ _____ _____    ______ ____
ROOT
ATOM      1  C   UNL     1       4.720   0.322  27.831  0.00  0.00    +0.221 C 
ATOM      2  C   UNL     1       3.468  -0.577  27.862  0.00  0.00    +0.180 C 
ATOM      3  C   UNL     1       3.874  -2.032  28.131  0.00  0.00    +0.177 C 
ATOM      4  C   UNL     1       4.943  -2.482  27.134  0.00  0.00    +0.179 C 
ATOM      5  O   UNL     1       6.106  -1.660  27.218  0.00  0.00    -0.331 OA
ATOM      6  C   UNL     1       5.882  -0.273  26.969  0.00  0.00    +0.340 C 
ENDROOT
BRANCH   3   7
ATOM      7  O   UNL     1       2.741  -2.903  28.108  0.00  0.00    -0.386 OA
ATOM      8  H   UNL     1       2.714  -3.381  28.956  0.00  0.00    +0.210 HD
ENDBRANCH   3   7
BRANCH   2   9
ATOM      9  O   UNL     1       2.681  -0.465  26.667  0.00  0.00    -0.386 OA
ATOM     10  H   UNL     1       2.559  -1.334  26.254  0.00  0.00    +0.210 HD
ENDBRANCH   2   9
BRANCH   6  11
ATOM     11  O   UNL     1       5.745   0.085  25.580  0.00  0.00    -0.453 OA
BRANCH  11  12
ATOM     12  C   UNL     1       6.842   0.718  24.973  0.00  0.00    +0.214 A 
ATOM     13  C   UNL     1       7.074   2.204  25.106  0.00  0.00    +0.238 A 
ATOM     14  O   UNL     1       6.213   2.942  25.574  0.00  0.00    -0.283 OA
ATOM     15  C   UNL     1       8.315   2.762  24.537  0.00  0.00    +0.109 A 
ATOM     16  C   UNL     1       9.144   1.907  23.827  0.00  0.00    +0.147 A 
ATOM     17  C   UNL     1      10.328   2.365  23.244  0.00  0.00    +0.092 A 
ATOM     18  C   UNL     1      10.669   3.702  23.366  0.00  0.00    +0.124 A 
ATOM     19  C   UNL     1       9.841   4.589  24.042  0.00  0.00    +0.091 A 
ATOM     20  O   UNL     1       8.850   0.585  23.625  0.00  0.00    -0.451 OA
ATOM     21  C   UNL     1       8.668   4.116  24.636  0.00  0.00    +0.135 A 
ATOM     22  C   UNL     1       7.700   0.035  24.177  0.00  0.00    +0.181 A 
BRANCH  22  23
ATOM     23  C   UNL     1       7.531  -1.385  23.743  0.00  0.00    +0.025 A 
ATOM     24  C   UNL     1       8.498  -2.355  24.106  0.00  0.00    +0.015 A 
ATOM     25  C   UNL     1       8.474  -3.656  23.589  0.00  0.00    +0.050 A 
ATOM     26  C   UNL     1       7.486  -4.001  22.687  0.00  0.00    +0.158 A 
ATOM     27  C   UNL     1       6.518  -3.076  22.317  0.00  0.00    +0.159 A 
ATOM     28  C   UNL     1       6.530  -1.783  22.839  0.00  0.00    +0.060 A 
BRANCH  27  29
ATOM     29  O   UNL     1       5.595  -3.468  21.387  0.00  0.00    -0.503 OA
ATOM     30  H   UNL     1       5.970  -4.200  20.868  0.00  0.00    +0.292 HD
ENDBRANCH  27  29
BRANCH  26  31
ATOM     31  O   UNL     1       7.497  -5.244  22.125  0.00  0.00    -0.503 OA
ATOM     32  H   UNL     1       7.793  -5.095  21.203  0.00  0.00    +0.292 HD
ENDBRANCH  26  31
ENDBRANCH  22  23
BRANCH  21  33
ATOM     33  O   UNL     1       7.866   5.011  25.285  0.00  0.00    -0.506 OA
ATOM     34  H   UNL     1       6.936   4.844  25.067  0.00  0.00    +0.292 HD
ENDBRANCH  21  33
BRANCH  18  35
ATOM     35  O   UNL     1      11.813   4.211  22.811  0.00  0.00    -0.507 OA
ATOM     36  H   UNL     1      11.723   5.184  22.727  0.00  0.00    +0.292 HD
ENDBRANCH  18  35
ENDBRANCH  11  12
ENDBRANCH   6  11
BRANCH   4  37
ATOM     37  C   UNL     1       4.445  -2.573  25.691  0.00  0.00    +0.197 C 
BRANCH  37  38
ATOM     38  O   UNL     1       4.404  -3.913  25.190  0.00  0.00    -0.346 OA
BRANCH  38  39
ATOM     39  C   UNL     1       3.161  -4.606  25.324  0.00  0.00    +0.282 C 
ATOM     40  O   UNL     1       3.156  -5.283  26.592  0.00  0.00    -0.341 OA
ATOM     41  C   UNL     1       4.241  -6.221  26.724  0.00  0.00    +0.178 C 
ATOM     42  C   UNL     1       4.189  -7.296  25.613  0.00  0.00    +0.177 C 
ATOM     43  C   UNL     1       4.106  -6.647  24.222  0.00  0.00    +0.179 C 
ATOM     44  C   UNL     1       2.939  -5.639  24.201  0.00  0.00    +0.201 C 
BRANCH  44  45
ATOM     45  O   UNL     1       2.767  -5.042  22.910  0.00  0.00    -0.384 OA
ATOM     46  H   UNL     1       2.673  -4.077  23.045  0.00  0.00    +0.210 HD
ENDBRANCH  44  45
BRANCH  43  47
ATOM     47  O   UNL     1       5.356  -6.050  23.857  0.00  0.00    -0.386 OA
ATOM     48  H   UNL     1       5.868  -6.690  23.316  0.00  0.00    +0.210 HD
ENDBRANCH  43  47
BRANCH  42  49
ATOM     49  O   UNL     1       3.034  -8.125  25.778  0.00  0.00    -0.386 OA
ATOM     50  H   UNL     1       3.107  -8.554  26.650  0.00  0.00    +0.210 HD
ENDBRANCH  42  49
BRANCH  41  51
ATOM     51  C   UNL     1       4.200  -6.792  28.150  0.00  0.00    +0.190 C 
BRANCH  51  52
ATOM     52  O   UNL     1       5.355  -7.534  28.517  0.00  0.00    -0.392 OA
ATOM     53  H   UNL     1       5.832  -7.737  27.687  0.00  0.00    +0.210 HD
ENDBRANCH  51  52
ENDBRANCH  41  51
ENDBRANCH  38  39
ENDBRANCH  37  38
ENDBRANCH   4  37
BRANCH   1  54
ATOM     54  O   UNL     1       5.117   0.513  29.206  0.00  0.00    -0.337 OA
BRANCH  54  58
ATOM     55  C   UNL     1       3.842   4.465  30.015  0.00  0.00    +0.041 C 
ATOM     56  C   UNL     1       4.861   4.135  28.921  0.00  0.00    +0.149 C 
ATOM     57  O   UNL     1       4.835   2.740  28.570  0.00  0.00    -0.343 OA
ATOM     58  C   UNL     1       5.315   1.873  29.605  0.00  0.00    +0.282 C 
ATOM     59  C   UNL     1       6.788   2.186  29.946  0.00  0.00    +0.201 C 
ATOM     60  C   UNL     1       6.922   3.656  30.333  0.00  0.00    +0.179 C 
ATOM     61  C   UNL     1       6.294   4.570  29.275  0.00  0.00    +0.174 C 
BRANCH  61  62
ATOM     62  O   UNL     1       7.124   4.504  28.099  0.00  0.00    -0.387 OA
ATOM     63  H   UNL     1       6.870   5.275  27.543  0.00  0.00    +0.210 HD
ENDBRANCH  61  62
BRANCH  60  64
ATOM     64  O   UNL     1       8.317   3.960  30.481  0.00  0.00    -0.386 OA
ATOM     65  H   UNL     1       8.557   3.627  31.372  0.00  0.00    +0.210 HD
ENDBRANCH  60  64
BRANCH  59  66
ATOM     66  O   UNL     1       7.638   1.888  28.820  0.00  0.00    -0.384 OA
ATOM     67  H   UNL     1       7.492   0.945  28.615  0.00  0.00    +0.210 HD
ENDBRANCH  59  66
ENDBRANCH  54  58
ENDBRANCH   1  54
TORSDOF 22
ENDMDL
MODEL 4
REMARK VINA RESULT:      -6.3      2.166      8.430
REMARK  Name = 
REMARK  23 active torsions:
REMARK  status: ('A' for Active; 'I' for Inactive)
REMARK    1  A    between atoms: C_1  and  C_2
REMARK    2  A    between atoms: C_3  and  O_62
REMARK    3  A    between atoms: C_5  and  O_61
REMARK    4  A    between atoms: C_6  and  O_60
REMARK    5  A    between atoms: C_8  and  O_11
REMARK    6  A    between atoms: O_11  and  C_12
REMARK    7  A    between atoms: C_13  and  O_38
REMARK    8  A    between atoms: C_16  and  C_22
REMARK    9  A    between atoms: C_17  and  O_21
REMARK   10  A    between atoms: C_19  and  O_20
REMARK   11  A    between atoms: C_22  and  O_23
REMARK   12  A    between atoms: O_23  and  C_24
REMARK   13  A    between atoms: C_26  and  O_37
REMARK   14  A    between atoms: C_27  and  O_36
REMARK   15  A    between atoms: C_29  and  O_35
REMARK   16  A    between atoms: C_31  and  C_33
REMARK   17  A    between atoms: C_33  and  O_34
REMARK   18  A    between atoms: O_38  and  C_39
REMARK   19  A    between atoms: C_40  and  C_52
REMARK   20  A    between atoms: C_44  and  O_51
REMARK   21  A    between atoms: C_46  and  O_50
REMARK   22  A    between atoms: C_54  and  O_59
REMARK   23  A    between atoms: C_55  and  O_58
REMARK                            x       y       z     vdW  Elec       q    Type
REMARK                         _______ _______ _______ _____ _____    ______ ____
ROOT
ATOM      1  C   UNL     1       4.789  -0.160  27.427  0.00  0.00    +0.221 C 
ATOM      2  C   UNL     1       5.250   1.110  28.167  0.00  0.00    +0.180 C 
ATOM      3  C   UNL     1       4.753   2.359  27.426  0.00  0.00    +0.177 C 
ATOM      4  C   UNL     1       5.167   2.307  25.954  0.00  0.00    +0.179 C 
ATOM      5  O   UNL     1       4.636   1.151  25.309  0.00  0.00    -0.331 OA
ATOM      6  C   UNL     1       5.032  -0.094  25.882  0.00  0.00    +0.340 C 
ENDROOT
BRANCH   3   7
ATOM      7  O   UNL     1       5.213   3.558  28.054  0.00  0.00    -0.386 OA
ATOM      8  H   UNL     1       4.564   3.807  28.735  0.00  0.00    +0.210 HD
ENDBRANCH   3   7
BRANCH   2   9
ATOM      9  O   UNL     1       6.672   1.148  28.361  0.00  0.00    -0.386 OA
ATOM     10  H   UNL     1       7.016   2.042  28.205  0.00  0.00    +0.210 HD
ENDBRANCH   2   9
BRANCH   6  11
ATOM     11  O   UNL     1       6.363  -0.529  25.539  0.00  0.00    -0.453 OA
BRANCH  11  12
ATOM     12  C   UNL     1       6.472  -1.558  24.589  0.00  0.00    +0.214 A 
ATOM     13  C   UNL     1       5.561  -2.761  24.615  0.00  0.00    +0.238 A 
ATOM     14  O   UNL     1       4.830  -2.985  25.573  0.00  0.00    -0.283 OA
ATOM     15  C   UNL     1       5.669  -3.731  23.508  0.00  0.00    +0.109 A 
ATOM     16  C   UNL     1       6.667  -3.533  22.568  0.00  0.00    +0.147 A 
ATOM     17  C   UNL     1       6.844  -4.418  21.502  0.00  0.00    +0.092 A 
ATOM     18  C   UNL     1       6.013  -5.521  21.393  0.00  0.00    +0.124 A 
ATOM     19  C   UNL     1       5.025  -5.763  22.340  0.00  0.00    +0.091 A 
ATOM     20  O   UNL     1       7.555  -2.493  22.635  0.00  0.00    -0.451 OA
ATOM     21  C   UNL     1       4.848  -4.862  23.392  0.00  0.00    +0.135 A 
ATOM     22  C   UNL     1       7.452  -1.554  23.653  0.00  0.00    +0.181 A 
BRANCH  22  23
ATOM     23  C   UNL     1       8.580  -0.576  23.588  0.00  0.00    +0.025 A 
ATOM     24  C   UNL     1       9.369  -0.328  24.739  0.00  0.00    +0.015 A 
ATOM     25  C   UNL     1      10.325   0.695  24.777  0.00  0.00    +0.050 A 
ATOM     26  C   UNL     1      10.494   1.496  23.664  0.00  0.00    +0.158 A 
ATOM     27  C   UNL     1       9.742   1.274  22.517  0.00  0.00    +0.159 A 
ATOM     28  C   UNL     1       8.799   0.249  22.470  0.00  0.00    +0.060 A 
BRANCH  27  29
ATOM     29  O   UNL     1       9.928   2.131  21.467  0.00  0.00    -0.503 OA
ATOM     30  H   UNL     1       9.973   1.611  20.647  0.00  0.00    +0.292 HD
ENDBRANCH  27  29
BRANCH  26  31
ATOM     31  O   UNL     1      11.373   2.538  23.717  0.00  0.00    -0.503 OA
ATOM     32  H   UNL     1      11.602   2.619  24.666  0.00  0.00    +0.292 HD
ENDBRANCH  26  31
ENDBRANCH  22  23
BRANCH  21  33
ATOM     33  O   UNL     1       3.876  -5.130  24.315  0.00  0.00    -0.506 OA
ATOM     34  H   UNL     1       3.265  -4.380  24.381  0.00  0.00    +0.292 HD
ENDBRANCH  21  33
BRANCH  18  35
ATOM     35  O   UNL     1       6.141  -6.426  20.374  0.00  0.00    -0.507 OA
ATOM     36  H   UNL     1       5.586  -6.138  19.618  0.00  0.00    +0.292 HD
ENDBRANCH  18  35
ENDBRANCH  11  12
ENDBRANCH   6  11
BRANCH   4  37
ATOM     37  C   UNL     1       6.676   2.409  25.731  0.00  0.00    +0.197 C 
BRANCH  37  38
ATOM     38  O   UNL     1       7.066   3.598  25.036  0.00  0.00    -0.346 OA
BRANCH  38  39
ATOM     39  C   UNL     1       7.437   3.443  23.665  0.00  0.00    +0.282 C 
ATOM     40  O   UNL     1       8.628   4.212  23.430  0.00  0.00    -0.341 OA
ATOM     41  C   UNL     1       8.451   5.612  23.720  0.00  0.00    +0.178 C 
ATOM     42  C   UNL     1       7.317   6.221  22.862  0.00  0.00    +0.177 C 
ATOM     43  C   UNL     1       6.025   5.400  22.994  0.00  0.00    +0.179 C 
ATOM     44  C   UNL     1       6.332   3.917  22.698  0.00  0.00    +0.201 C 
BRANCH  44  45
ATOM     45  O   UNL     1       5.155   3.103  22.744  0.00  0.00    -0.384 OA
ATOM     46  H   UNL     1       4.633   3.387  23.521  0.00  0.00    +0.210 HD
ENDBRANCH  44  45
BRANCH  43  47
ATOM     47  O   UNL     1       5.421   5.591  24.279  0.00  0.00    -0.386 OA
ATOM     48  H   UNL     1       4.444   5.588  24.175  0.00  0.00    +0.210 HD
ENDBRANCH  43  47
BRANCH  42  49
ATOM     49  O   UNL     1       7.690   6.231  21.480  0.00  0.00    -0.386 OA
ATOM     50  H   UNL     1       8.661   6.157  21.442  0.00  0.00    +0.210 HD
ENDBRANCH  42  49
BRANCH  41  51
ATOM     51  C   UNL     1       9.810   6.306  23.545  0.00  0.00    +0.190 C 
BRANCH  51  52
ATOM     52  O   UNL     1      10.823   5.479  22.988  0.00  0.00    -0.392 OA
ATOM     53  H   UNL     1      11.559   5.467  23.632  0.00  0.00    +0.210 HD
ENDBRANCH  51  52
ENDBRANCH  41  51
ENDBRANCH  38  39
ENDBRANCH  37  38
ENDBRANCH   4  37
BRANCH   1  54
ATOM     54  O   UNL     1       3.390  -0.328  27.741  0.00  0.00    -0.337 OA
BRANCH  54  58
ATOM     55  C   UNL     1       3.754  -3.529  30.484  0.00  0.00    +0.041 C 
ATOM     56  C   UNL     1       3.979  -3.702  28.979  0.00  0.00    +0.149 C 
ATOM     57  O   UNL     1       4.193  -2.441  28.322  0.00  0.00    -0.343 OA
ATOM     58  C   UNL     1       3.032  -1.601  28.289  0.00  0.00    +0.282 C 
ATOM     59  C   UNL     1       1.883  -2.282  27.514  0.00  0.00    +0.201 C 
ATOM     60  C   UNL     1       1.579  -3.640  28.139  0.00  0.00    +0.179 C 
ATOM     61  C   UNL     1       2.851  -4.483  28.283  0.00  0.00    +0.174 C 
BRANCH  61  62
ATOM     62  O   UNL     1       3.272  -4.862  26.958  0.00  0.00    -0.387 OA
ATOM     63  H   UNL     1       3.371  -5.841  26.973  0.00  0.00    +0.210 HD
ENDBRANCH  61  62
BRANCH  60  64
ATOM     64  O   UNL     1       0.630  -4.320  27.305  0.00  0.00    -0.386 OA
ATOM     65  H   UNL     1       0.830  -4.019  26.393  0.00  0.00    +0.210 HD
ENDBRANCH  60  64
BRANCH  59  66
ATOM     66  O   UNL     1       2.238  -2.440  26.126  0.00  0.00    -0.384 OA
ATOM     67  H   UNL     1       1.396  -2.507  25.638  0.00  0.00    +0.210 HD
ENDBRANCH  59  66
ENDBRANCH  54  58
ENDBRANCH   1  54
TORSDOF 22
ENDMDL
MODEL 5
REMARK VINA RESULT:      -6.2      1.904      2.751
REMARK  Name = 
REMARK  23 active torsions:
REMARK  status: ('A' for Active; 'I' for Inactive)
REMARK    1  A    between atoms: C_1  and  C_2
REMARK    2  A    between atoms: C_3  and  O_62
REMARK    3  A    between atoms: C_5  and  O_61
REMARK    4  A    between atoms: C_6  and  O_60
REMARK    5  A    between atoms: C_8  and  O_11
REMARK    6  A    between atoms: O_11  and  C_12
REMARK    7  A    between atoms: C_13  and  O_38
REMARK    8  A    between atoms: C_16  and  C_22
REMARK    9  A    between atoms: C_17  and  O_21
REMARK   10  A    between atoms: C_19  and  O_20
REMARK   11  A    between atoms: C_22  and  O_23
REMARK   12  A    between atoms: O_23  and  C_24
REMARK   13  A    between atoms: C_26  and  O_37
REMARK   14  A    between atoms: C_27  and  O_36
REMARK   15  A    between atoms: C_29  and  O_35
REMARK   16  A    between atoms: C_31  and  C_33
REMARK   17  A    between atoms: C_33  and  O_34
REMARK   18  A    between atoms: O_38  and  C_39
REMARK   19  A    between atoms: C_40  and  C_52
REMARK   20  A    between atoms: C_44  and  O_51
REMARK   21  A    between atoms: C_46  and  O_50
REMARK   22  A    between atoms: C_54  and  O_59
REMARK   23  A    between atoms: C_55  and  O_58
REMARK                            x       y       z     vdW  Elec       q    Type
REMARK                         _______ _______ _______ _____ _____    ______ ____
ROOT
ATOM      1  C   UNL     1       3.405  -0.487  26.850  0.00  0.00    +0.221 C 
ATOM      2  C   UNL     1       2.619  -1.800  27.030  0.00  0.00    +0.180 C 
ATOM      3  C   UNL     1       3.236  -2.629  28.165  0.00  0.00    +0.177 C 
ATOM      4  C   UNL     1       4.735  -2.824  27.930  0.00  0.00    +0.179 C 
ATOM      5  O   UNL     1       5.414  -1.571  27.858  0.00  0.00    -0.331 OA
ATOM      6  C   UNL     1       4.955  -0.697  26.828  0.00  0.00    +0.340 C 
ENDROOT
BRANCH   3   7
ATOM      7  O   UNL     1       2.566  -3.882  28.321  0.00  0.00    -0.386 OA
ATOM      8  H   UNL     1       2.944  -4.328  29.099  0.00  0.00    +0.210 HD
ENDBRANCH   3   7
BRANCH   2   9
ATOM      9  O   UNL     1       2.530  -2.559  25.815  0.00  0.00    -0.386 OA
ATOM     10  H   UNL     1       1.788  -3.183  25.855  0.00  0.00    +0.210 HD
ENDBRANCH   2   9
BRANCH   6  11
ATOM     11  O   UNL     1       5.426  -1.013  25.503  0.00  0.00    -0.453 OA
BRANCH  11  12
ATOM     12  C   UNL     1       6.548  -0.308  25.039  0.00  0.00    +0.214 A 
ATOM     13  C   UNL     1       6.447   1.125  24.573  0.00  0.00    +0.238 A 
ATOM     14  O   UNL     1       5.358   1.660  24.393  0.00  0.00    -0.283 OA
ATOM     15  C   UNL     1       7.697   1.823  24.217  0.00  0.00    +0.109 A 
ATOM     16  C   UNL     1       8.875   1.093  24.234  0.00  0.00    +0.147 A 
ATOM     17  C   UNL     1      10.096   1.680  23.892  0.00  0.00    +0.092 A 
ATOM     18  C   UNL     1      10.123   3.012  23.515  0.00  0.00    +0.124 A 
ATOM     19  C   UNL     1       8.954   3.760  23.456  0.00  0.00    +0.091 A 
ATOM     20  O   UNL     1       8.919  -0.238  24.550  0.00  0.00    -0.451 OA
ATOM     21  C   UNL     1       7.742   3.167  23.816  0.00  0.00    +0.135 A 
ATOM     22  C   UNL     1       7.757  -0.906  24.916  0.00  0.00    +0.181 A 
BRANCH  22  23
ATOM     23  C   UNL     1       8.024  -2.363  25.116  0.00  0.00    +0.025 A 
ATOM     24  C   UNL     1       8.621  -2.814  26.320  0.00  0.00    +0.015 A 
ATOM     25  C   UNL     1       9.042  -4.139  26.488  0.00  0.00    +0.050 A 
ATOM     26  C   UNL     1       8.884  -5.030  25.444  0.00  0.00    +0.158 A 
ATOM     27  C   UNL     1       8.295  -4.622  24.254  0.00  0.00    +0.159 A 
ATOM     28  C   UNL     1       7.862  -3.307  24.087  0.00  0.00    +0.060 A 
BRANCH  27  29
ATOM     29  O   UNL     1       8.209  -5.543  23.246  0.00  0.00    -0.503 OA
ATOM     30  H   UNL     1       8.000  -5.078  22.419  0.00  0.00    +0.292 HD
ENDBRANCH  27  29
BRANCH  26  31
ATOM     31  O   UNL     1       9.356  -6.303  25.575  0.00  0.00    -0.503 OA
ATOM     32  H   UNL     1       8.841  -6.825  24.925  0.00  0.00    +0.292 HD
ENDBRANCH  26  31
ENDBRANCH  22  23
BRANCH  21  33
ATOM     33  O   UNL     1       6.605   3.921  23.738  0.00  0.00    -0.506 OA
ATOM     34  H   UNL     1       6.355   4.236  24.621  0.00  0.00    +0.292 HD
ENDBRANCH  21  33
BRANCH  18  35
ATOM     35  O   UNL     1      11.288   3.641  23.163  0.00  0.00    -0.507 OA
ATOM     36  H   UNL     1      12.012   2.980  23.131  0.00  0.00    +0.292 HD
ENDBRANCH  18  35
ENDBRANCH  11  12
ENDBRANCH   6  11
BRANCH   4  37
ATOM     37  C   UNL     1       5.064  -3.691  26.715  0.00  0.00    +0.197 C 
BRANCH  37  38
ATOM     38  O   UNL     1       4.068  -4.682  26.441  0.00  0.00    -0.346 OA
BRANCH  38  39
ATOM     39  C   UNL     1       4.536  -6.018  26.245  0.00  0.00    +0.282 C 
ATOM     40  O   UNL     1       4.932  -6.160  24.871  0.00  0.00    -0.341 OA
ATOM     41  C   UNL     1       3.855  -5.894  23.952  0.00  0.00    +0.178 C 
ATOM     42  C   UNL     1       2.660  -6.844  24.202  0.00  0.00    +0.177 C 
ATOM     43  C   UNL     1       2.230  -6.813  25.677  0.00  0.00    +0.179 C 
ATOM     44  C   UNL     1       3.460  -7.074  26.571  0.00  0.00    +0.201 C 
BRANCH  44  45
ATOM     45  O   UNL     1       3.116  -7.119  27.961  0.00  0.00    -0.384 OA
ATOM     46  H   UNL     1       3.542  -7.913  28.341  0.00  0.00    +0.210 HD
ENDBRANCH  44  45
BRANCH  43  47
ATOM     47  O   UNL     1       1.570  -5.582  25.996  0.00  0.00    -0.386 OA
ATOM     48  H   UNL     1       0.598  -5.720  25.946  0.00  0.00    +0.210 HD
ENDBRANCH  43  47
BRANCH  42  49
ATOM     49  O   UNL     1       3.021  -8.192  23.881  0.00  0.00    -0.386 OA
ATOM     50  H   UNL     1       3.688  -8.475  24.532  0.00  0.00    +0.210 HD
ENDBRANCH  42  49
BRANCH  41  51
ATOM     51  C   UNL     1       4.422  -5.962  22.526  0.00  0.00    +0.190 C 
BRANCH  51  52
ATOM     52  O   UNL     1       5.358  -4.938  22.218  0.00  0.00    -0.392 OA
ATOM     53  H   UNL     1       6.213  -5.215  22.605  0.00  0.00    +0.210 HD
ENDBRANCH  51  52
ENDBRANCH  41  51
ENDBRANCH  38  39
ENDBRANCH  37  38
ENDBRANCH   4  37
BRANCH   1  54
ATOM     54  O   UNL     1       2.998   0.382  27.929  0.00  0.00    -0.337 OA
BRANCH  54  58
ATOM     55  C   UNL     1       0.446   3.190  26.058  0.00  0.00    +0.041 C 
ATOM     56  C   UNL     1       1.901   2.983  25.628  0.00  0.00    +0.149 C 
ATOM     57  O   UNL     1       2.431   1.738  26.117  0.00  0.00    -0.343 OA
ATOM     58  C   UNL     1       2.600   1.701  27.539  0.00  0.00    +0.282 C 
ATOM     59  C   UNL     1       3.597   2.786  28.004  0.00  0.00    +0.201 C 
ATOM     60  C   UNL     1       3.121   4.154  27.528  0.00  0.00    +0.179 C 
ATOM     61  C   UNL     1       2.824   4.149  26.025  0.00  0.00    +0.174 C 
BRANCH  61  62
ATOM     62  O   UNL     1       4.083   4.026  25.335  0.00  0.00    -0.387 OA
ATOM     63  H   UNL     1       4.737   4.529  25.870  0.00  0.00    +0.210 HD
ENDBRANCH  61  62
BRANCH  60  64
ATOM     64  O   UNL     1       4.143   5.118  27.825  0.00  0.00    -0.386 OA
ATOM     65  H   UNL     1       3.873   5.520  28.678  0.00  0.00    +0.210 HD
ENDBRANCH  60  64
BRANCH  59  66
ATOM     66  O   UNL     1       4.915   2.509  27.488  0.00  0.00    -0.384 OA
ATOM     67  H   UNL     1       4.895   2.763  26.546  0.00  0.00    +0.210 HD
ENDBRANCH  59  66
ENDBRANCH  54  58
ENDBRANCH   1  54
TORSDOF 22
ENDMDL
MODEL 6
REMARK VINA RESULT:      -6.1      2.310      9.520
REMARK  Name = 
REMARK  23 active torsions:
REMARK  status: ('A' for Active; 'I' for Inactive)
REMARK    1  A    between atoms: C_1  and  C_2
REMARK    2  A    between atoms: C_3  and  O_62
REMARK    3  A    between atoms: C_5  and  O_61
REMARK    4  A    between atoms: C_6  and  O_60
REMARK    5  A    between atoms: C_8  and  O_11
REMARK    6  A    between atoms: O_11  and  C_12
REMARK    7  A    between atoms: C_13  and  O_38
REMARK    8  A    between atoms: C_16  and  C_22
REMARK    9  A    between atoms: C_17  and  O_21
REMARK   10  A    between atoms: C_19  and  O_20
REMARK   11  A    between atoms: C_22  and  O_23
REMARK   12  A    between atoms: O_23  and  C_24
REMARK   13  A    between atoms: C_26  and  O_37
REMARK   14  A    between atoms: C_27  and  O_36
REMARK   15  A    between atoms: C_29  and  O_35
REMARK   16  A    between atoms: C_31  and  C_33
REMARK   17  A    between atoms: C_33  and  O_34
REMARK   18  A    between atoms: O_38  and  C_39
REMARK   19  A    between atoms: C_40  and  C_52
REMARK   20  A    between atoms: C_44  and  O_51
REMARK   21  A    between atoms: C_46  and  O_50
REMARK   22  A    between atoms: C_54  and  O_59
REMARK   23  A    between atoms: C_55  and  O_58
REMARK                            x       y       z     vdW  Elec       q    Type
REMARK                         _______ _______ _______ _____ _____    ______ ____
ROOT
ATOM      1  C   UNL     1       8.126  -0.739  23.575  0.00  0.00    +0.221 C 
ATOM      2  C   UNL     1       8.554   0.451  22.695  0.00  0.00    +0.180 C 
ATOM      3  C   UNL     1       9.644   1.265  23.406  0.00  0.00    +0.177 C 
ATOM      4  C   UNL     1       9.185   1.659  24.811  0.00  0.00    +0.179 C 
ATOM      5  O   UNL     1       8.886   0.508  25.599  0.00  0.00    -0.331 OA
ATOM      6  C   UNL     1       7.869  -0.339  25.066  0.00  0.00    +0.340 C 
ENDROOT
BRANCH   3   7
ATOM      7  O   UNL     1      10.023   2.412  22.641  0.00  0.00    -0.386 OA
ATOM      8  H   UNL     1      10.062   3.175  23.245  0.00  0.00    +0.210 HD
ENDBRANCH   3   7
BRANCH   2   9
ATOM      9  O   UNL     1       7.446   1.280  22.313  0.00  0.00    -0.386 OA
ATOM     10  H   UNL     1       7.663   1.800  21.523  0.00  0.00    +0.210 HD
ENDBRANCH   2   9
BRANCH   6  11
ATOM     11  O   UNL     1       6.520   0.128  25.261  0.00  0.00    -0.453 OA
BRANCH  11  12
ATOM     12  C   UNL     1       5.748  -0.536  26.228  0.00  0.00    +0.214 A 
ATOM     13  C   UNL     1       4.956  -1.777  25.894  0.00  0.00    +0.238 A 
ATOM     14  O   UNL     1       4.794  -2.135  24.732  0.00  0.00    -0.283 OA
ATOM     15  C   UNL     1       4.272  -2.476  26.998  0.00  0.00    +0.109 A 
ATOM     16  C   UNL     1       4.314  -1.897  28.256  0.00  0.00    +0.147 A 
ATOM     17  C   UNL     1       3.676  -2.490  29.348  0.00  0.00    +0.092 A 
ATOM     18  C   UNL     1       2.976  -3.671  29.163  0.00  0.00    +0.124 A 
ATOM     19  C   UNL     1       2.888  -4.257  27.907  0.00  0.00    +0.091 A 
ATOM     20  O   UNL     1       4.945  -0.708  28.506  0.00  0.00    -0.451 OA
ATOM     21  C   UNL     1       3.545  -3.663  26.826  0.00  0.00    +0.135 A 
ATOM     22  C   UNL     1       5.618  -0.049  27.485  0.00  0.00    +0.181 A 
BRANCH  22  23
ATOM     23  C   UNL     1       6.140   1.269  27.959  0.00  0.00    +0.025 A 
ATOM     24  C   UNL     1       7.067   1.319  29.029  0.00  0.00    +0.015 A 
ATOM     25  C   UNL     1       7.457   2.529  29.617  0.00  0.00    +0.050 A 
ATOM     26  C   UNL     1       6.910   3.709  29.149  0.00  0.00    +0.158 A 
ATOM     27  C   UNL     1       6.004   3.695  28.095  0.00  0.00    +0.159 A 
ATOM     28  C   UNL     1       5.623   2.493  27.498  0.00  0.00    +0.060 A 
BRANCH  27  29
ATOM     29  O   UNL     1       5.468   4.892  27.710  0.00  0.00    -0.503 OA
ATOM     30  H   UNL     1       4.634   5.027  28.191  0.00  0.00    +0.292 HD
ENDBRANCH  27  29
BRANCH  26  31
ATOM     31  O   UNL     1       7.230   4.885  29.762  0.00  0.00    -0.503 OA
ATOM     32  H   UNL     1       7.654   5.420  29.061  0.00  0.00    +0.292 HD
ENDBRANCH  26  31
ENDBRANCH  22  23
BRANCH  21  33
ATOM     33  O   UNL     1       3.433  -4.255  25.599  0.00  0.00    -0.506 OA
ATOM     34  H   UNL     1       3.053  -3.629  24.962  0.00  0.00    +0.292 HD
ENDBRANCH  21  33
BRANCH  18  35
ATOM     35  O   UNL     1       2.326  -4.296  30.194  0.00  0.00    -0.507 OA
ATOM     36  H   UNL     1       2.986  -4.590  30.858  0.00  0.00    +0.292 HD
ENDBRANCH  18  35
ENDBRANCH  11  12
ENDBRANCH   6  11
BRANCH   4  37
ATOM     37  C   UNL     1       8.017   2.646  24.826  0.00  0.00    +0.197 C 
BRANCH  37  38
ATOM     38  O   UNL     1       8.188   3.741  23.919  0.00  0.00    -0.346 OA
BRANCH  38  39
ATOM     39  C   UNL     1       7.942   5.047  24.443  0.00  0.00    +0.282 C 
ATOM     40  O   UNL     1       6.590   5.089  24.931  0.00  0.00    -0.341 OA
ATOM     41  C   UNL     1       5.621   4.796  23.905  0.00  0.00    +0.178 C 
ATOM     42  C   UNL     1       5.732   5.795  22.730  0.00  0.00    +0.177 C 
ATOM     43  C   UNL     1       7.175   5.870  22.206  0.00  0.00    +0.179 C 
ATOM     44  C   UNL     1       8.129   6.152  23.384  0.00  0.00    +0.201 C 
BRANCH  44  45
ATOM     45  O   UNL     1       9.488   6.296  22.954  0.00  0.00    -0.384 OA
ATOM     46  H   UNL     1       9.623   7.237  22.721  0.00  0.00    +0.210 HD
ENDBRANCH  44  45
BRANCH  43  47
ATOM     47  O   UNL     1       7.525   4.682  21.486  0.00  0.00    -0.386 OA
ATOM     48  H   UNL     1       7.138   4.730  20.584  0.00  0.00    +0.210 HD
ENDBRANCH  43  47
BRANCH  42  49
ATOM     49  O   UNL     1       5.352   7.108  23.155  0.00  0.00    -0.386 OA
ATOM     50  H   UNL     1       5.356   7.680  22.366  0.00  0.00    +0.210 HD
ENDBRANCH  42  49
BRANCH  41  51
ATOM     51  C   UNL     1       4.234   4.756  24.565  0.00  0.00    +0.190 C 
BRANCH  51  52
ATOM     52  O   UNL     1       3.917   5.908  25.335  0.00  0.00    -0.392 OA
ATOM     53  H   UNL     1       3.288   6.436  24.802  0.00  0.00    +0.210 HD
ENDBRANCH  51  52
ENDBRANCH  41  51
ENDBRANCH  38  39
ENDBRANCH  37  38
ENDBRANCH   4  37
BRANCH   1  54
ATOM     54  O   UNL     1       9.173  -1.727  23.459  0.00  0.00    -0.337 OA
BRANCH  54  58
ATOM     55  C   UNL     1       7.170  -5.098  21.871  0.00  0.00    +0.041 C 
ATOM     56  C   UNL     1       6.773  -4.454  23.202  0.00  0.00    +0.149 C 
ATOM     57  O   UNL     1       7.310  -3.125  23.335  0.00  0.00    -0.343 OA
ATOM     58  C   UNL     1       8.735  -3.090  23.474  0.00  0.00    +0.282 C 
ATOM     59  C   UNL     1       9.183  -3.846  24.745  0.00  0.00    +0.201 C 
ATOM     60  C   UNL     1       8.656  -5.277  24.700  0.00  0.00    +0.179 C 
ATOM     61  C   UNL     1       7.148  -5.307  24.426  0.00  0.00    +0.174 C 
BRANCH  61  62
ATOM     62  O   UNL     1       6.485  -4.791  25.597  0.00  0.00    -0.387 OA
ATOM     63  H   UNL     1       6.869  -3.900  25.757  0.00  0.00    +0.210 HD
ENDBRANCH  61  62
BRANCH  60  64
ATOM     64  O   UNL     1       8.941  -5.903  25.960  0.00  0.00    -0.386 OA
ATOM     65  H   UNL     1       8.096  -6.320  26.233  0.00  0.00    +0.210 HD
ENDBRANCH  60  64
BRANCH  59  66
ATOM     66  O   UNL     1       8.699  -3.173  25.925  0.00  0.00    -0.384 OA
ATOM     67  H   UNL     1       9.492  -2.901  26.424  0.00  0.00    +0.210 HD
ENDBRANCH  59  66
ENDBRANCH  54  58
ENDBRANCH   1  54
TORSDOF 22
ENDMDL
MODEL 7
REMARK VINA RESULT:      -6.1      1.540      7.413
REMARK  Name = 
REMARK  23 active torsions:
REMARK  status: ('A' for Active; 'I' for Inactive)
REMARK    1  A    between atoms: C_1  and  C_2
REMARK    2  A    between atoms: C_3  and  O_62
REMARK    3  A    between atoms: C_5  and  O_61
REMARK    4  A    between atoms: C_6  and  O_60
REMARK    5  A    between atoms: C_8  and  O_11
REMARK    6  A    between atoms: O_11  and  C_12
REMARK    7  A    between atoms: C_13  and  O_38
REMARK    8  A    between atoms: C_16  and  C_22
REMARK    9  A    between atoms: C_17  and  O_21
REMARK   10  A    between atoms: C_19  and  O_20
REMARK   11  A    between atoms: C_22  and  O_23
REMARK   12  A    between atoms: O_23  and  C_24
REMARK   13  A    between atoms: C_26  and  O_37
REMARK   14  A    between atoms: C_27  and  O_36
REMARK   15  A    between atoms: C_29  and  O_35
REMARK   16  A    between atoms: C_31  and  C_33
REMARK   17  A    between atoms: C_33  and  O_34
REMARK   18  A    between atoms: O_38  and  C_39
REMARK   19  A    between atoms: C_40  and  C_52
REMARK   20  A    between atoms: C_44  and  O_51
REMARK   21  A    between atoms: C_46  and  O_50
REMARK   22  A    between atoms: C_54  and  O_59
REMARK   23  A    between atoms: C_55  and  O_58
REMARK                            x       y       z     vdW  Elec       q    Type
REMARK                         _______ _______ _______ _____ _____    ______ ____
ROOT
ATOM      1  C   UNL     1       5.053  -2.208  25.868  0.00  0.00    +0.221 C 
ATOM      2  C   UNL     1       4.254  -2.289  27.183  0.00  0.00    +0.180 C 
ATOM      3  C   UNL     1       3.180  -1.194  27.213  0.00  0.00    +0.177 C 
ATOM      4  C   UNL     1       3.805   0.176  26.944  0.00  0.00    +0.179 C 
ATOM      5  O   UNL     1       4.454   0.207  25.674  0.00  0.00    -0.331 OA
ATOM      6  C   UNL     1       5.498  -0.752  25.508  0.00  0.00    +0.340 C 
ENDROOT
BRANCH   3   7
ATOM      7  O   UNL     1       2.457  -1.203  28.447  0.00  0.00    -0.386 OA
ATOM      8  H   UNL     1       2.725  -1.997  28.943  0.00  0.00    +0.210 HD
ENDBRANCH   3   7
BRANCH   2   9
ATOM      9  O   UNL     1       5.097  -2.228  28.343  0.00  0.00    -0.386 OA
ATOM     10  H   UNL     1       5.918  -2.723  28.197  0.00  0.00    +0.210 HD
ENDBRANCH   2   9
BRANCH   6  11
ATOM     11  O   UNL     1       6.747  -0.411  26.140  0.00  0.00    -0.453 OA
BRANCH  11  12
ATOM     12  C   UNL     1       7.654   0.355  25.391  0.00  0.00    +0.214 A 
ATOM     13  C   UNL     1       7.695   1.861  25.494  0.00  0.00    +0.238 A 
ATOM     14  O   UNL     1       6.814   2.482  26.078  0.00  0.00    -0.283 OA
ATOM     15  C   UNL     1       8.760   2.573  24.762  0.00  0.00    +0.109 A 
ATOM     16  C   UNL     1       9.593   1.828  23.943  0.00  0.00    +0.147 A 
ATOM     17  C   UNL     1      10.613   2.433  23.204  0.00  0.00    +0.092 A 
ATOM     18  C   UNL     1      10.780   3.806  23.282  0.00  0.00    +0.124 A 
ATOM     19  C   UNL     1       9.938   4.583  24.068  0.00  0.00    +0.091 A 
ATOM     20  O   UNL     1       9.458   0.476  23.779  0.00  0.00    -0.451 OA
ATOM     21  C   UNL     1       8.934   3.964  24.815  0.00  0.00    +0.135 A 
ATOM     22  C   UNL     1       8.481  -0.217  24.482  0.00  0.00    +0.181 A 
BRANCH  22  23
ATOM     23  C   UNL     1       8.451  -1.654  24.072  0.00  0.00    +0.025 A 
ATOM     24  C   UNL     1       7.685  -2.053  22.948  0.00  0.00    +0.015 A 
ATOM     25  C   UNL     1       7.491  -3.401  22.624  0.00  0.00    +0.050 A 
ATOM     26  C   UNL     1       8.050  -4.373  23.432  0.00  0.00    +0.158 A 
ATOM     27  C   UNL     1       8.814  -4.015  24.536  0.00  0.00    +0.159 A 
ATOM     28  C   UNL     1       9.021  -2.673  24.855  0.00  0.00    +0.060 A 
BRANCH  27  29
ATOM     29  O   UNL     1       9.303  -5.025  25.317  0.00  0.00    -0.503 OA
ATOM     30  H   UNL     1       9.951  -4.651  25.937  0.00  0.00    +0.292 HD
ENDBRANCH  27  29
BRANCH  26  31
ATOM     31  O   UNL     1       7.807  -5.688  23.163  0.00  0.00    -0.503 OA
ATOM     32  H   UNL     1       7.753  -5.734  22.187  0.00  0.00    +0.292 HD
ENDBRANCH  26  31
ENDBRANCH  22  23
BRANCH  21  33
ATOM     33  O   UNL     1       8.112   4.753  25.571  0.00  0.00    -0.506 OA
ATOM     34  H   UNL     1       8.577   5.565  25.828  0.00  0.00    +0.292 HD
ENDBRANCH  21  33
BRANCH  18  35
ATOM     35  O   UNL     1      11.758   4.457  22.577  0.00  0.00    -0.507 OA
ATOM     36  H   UNL     1      11.998   5.282  23.050  0.00  0.00    +0.292 HD
ENDBRANCH  18  35
ENDBRANCH  11  12
ENDBRANCH   6  11
BRANCH   4  37
ATOM     37  C   UNL     1       4.748   0.653  28.048  0.00  0.00    +0.197 C 
BRANCH  37  38
ATOM     38  O   UNL     1       4.714   2.070  28.249  0.00  0.00    -0.346 OA
BRANCH  38  39
ATOM     39  C   UNL     1       5.169   2.545  29.518  0.00  0.00    +0.282 C 
ATOM     40  O   UNL     1       4.041   3.081  30.229  0.00  0.00    -0.341 OA
ATOM     41  C   UNL     1       3.397   4.157  29.520  0.00  0.00    +0.178 C 
ATOM     42  C   UNL     1       4.383   5.319  29.253  0.00  0.00    +0.177 C 
ATOM     43  C   UNL     1       5.660   4.810  28.566  0.00  0.00    +0.179 C 
ATOM     44  C   UNL     1       6.246   3.641  29.384  0.00  0.00    +0.201 C 
BRANCH  44  45
ATOM     45  O   UNL     1       7.476   3.158  28.830  0.00  0.00    -0.384 OA
ATOM     46  H   UNL     1       7.321   2.241  28.529  0.00  0.00    +0.210 HD
ENDBRANCH  44  45
BRANCH  43  47
ATOM     47  O   UNL     1       5.405   4.452  27.202  0.00  0.00    -0.386 OA
ATOM     48  H   UNL     1       4.436   4.361  27.073  0.00  0.00    +0.210 HD
ENDBRANCH  43  47
BRANCH  42  49
ATOM     49  O   UNL     1       4.767   5.939  30.484  0.00  0.00    -0.386 OA
ATOM     50  H   UNL     1       4.004   5.880  31.088  0.00  0.00    +0.210 HD
ENDBRANCH  42  49
BRANCH  41  51
ATOM     51  C   UNL     1       2.148   4.567  30.316  0.00  0.00    +0.190 C 
BRANCH  51  52
ATOM     52  O   UNL     1       1.600   5.823  29.941  0.00  0.00    -0.392 OA
ATOM     53  H   UNL     1       0.639   5.683  29.818  0.00  0.00    +0.210 HD
ENDBRANCH  51  52
ENDBRANCH  41  51
ENDBRANCH  38  39
ENDBRANCH  37  38
ENDBRANCH   4  37
BRANCH   1  54
ATOM     54  O   UNL     1       4.208  -2.777  24.844  0.00  0.00    -0.337 OA
BRANCH  54  58
ATOM     55  C   UNL     1       4.314  -6.507  26.839  0.00  0.00    +0.041 C 
ATOM     56  C   UNL     1       5.061  -6.252  25.527  0.00  0.00    +0.149 C 
ATOM     57  O   UNL     1       5.206  -4.846  25.258  0.00  0.00    -0.343 OA
ATOM     58  C   UNL     1       3.971  -4.185  24.957  0.00  0.00    +0.282 C 
ATOM     59  C   UNL     1       3.322  -4.783  23.689  0.00  0.00    +0.201 C 
ATOM     60  C   UNL     1       3.127  -6.285  23.875  0.00  0.00    +0.179 C 
ATOM     61  C   UNL     1       4.427  -6.964  24.319  0.00  0.00    +0.174 C 
BRANCH  61  62
ATOM     62  O   UNL     1       5.338  -6.927  23.203  0.00  0.00    -0.387 OA
ATOM     63  H   UNL     1       5.445  -5.977  22.971  0.00  0.00    +0.210 HD
ENDBRANCH  61  62
BRANCH  60  64
ATOM     64  O   UNL     1       2.681  -6.841  22.629  0.00  0.00    -0.386 OA
ATOM     65  H   UNL     1       2.429  -7.766  22.839  0.00  0.00    +0.210 HD
ENDBRANCH  60  64
BRANCH  59  66
ATOM     66  O   UNL     1       4.147  -4.526  22.534  0.00  0.00    -0.384 OA
ATOM     67  H   UNL     1       3.535  -4.454  21.777  0.00  0.00    +0.210 HD
ENDBRANCH  59  66
ENDBRANCH  54  58
ENDBRANCH   1  54
TORSDOF 22
ENDMDL
MODEL 8
REMARK VINA RESULT:      -5.9      2.386      5.869
REMARK  Name = 
REMARK  23 active torsions:
REMARK  status: ('A' for Active; 'I' for Inactive)
REMARK    1  A    between atoms: C_1  and  C_2
REMARK    2  A    between atoms: C_3  and  O_62
REMARK    3  A    between atoms: C_5  and  O_61
REMARK    4  A    between atoms: C_6  and  O_60
REMARK    5  A    between atoms: C_8  and  O_11
REMARK    6  A    between atoms: O_11  and  C_12
REMARK    7  A    between atoms: C_13  and  O_38
REMARK    8  A    between atoms: C_16  and  C_22
REMARK    9  A    between atoms: C_17  and  O_21
REMARK   10  A    between atoms: C_19  and  O_20
REMARK   11  A    between atoms: C_22  and  O_23
REMARK   12  A    between atoms: O_23  and  C_24
REMARK   13  A    between atoms: C_26  and  O_37
REMARK   14  A    between atoms: C_27  and  O_36
REMARK   15  A    between atoms: C_29  and  O_35
REMARK   16  A    between atoms: C_31  and  C_33
REMARK   17  A    between atoms: C_33  and  O_34
REMARK   18  A    between atoms: O_38  and  C_39
REMARK   19  A    between atoms: C_40  and  C_52
REMARK   20  A    between atoms: C_44  and  O_51
REMARK   21  A    between atoms: C_46  and  O_50
REMARK   22  A    between atoms: C_54  and  O_59
REMARK   23  A    between atoms: C_55  and  O_58
REMARK                            x       y       z     vdW  Elec       q    Type
REMARK                         _______ _______ _______ _____ _____    ______ ____
ROOT
ATOM      1  C   UNL     1       8.479   0.746  23.768  0.00  0.00    +0.221 C 
ATOM      2  C   UNL     1       9.652  -0.138  23.306  0.00  0.00    +0.180 C 
ATOM      3  C   UNL     1       9.217  -1.013  22.122  0.00  0.00    +0.177 C 
ATOM      4  C   UNL     1       7.947  -1.791  22.472  0.00  0.00    +0.179 C 
ATOM      5  O   UNL     1       6.877  -0.909  22.807  0.00  0.00    -0.331 OA
ATOM      6  C   UNL     1       7.134  -0.043  23.911  0.00  0.00    +0.340 C 
ENDROOT
BRANCH   3   7
ATOM      7  O   UNL     1      10.267  -1.889  21.706  0.00  0.00    -0.386 OA
ATOM      8  H   UNL     1      11.104  -1.395  21.748  0.00  0.00    +0.210 HD
ENDBRANCH   3   7
BRANCH   2   9
ATOM      9  O   UNL     1      10.196  -0.932  24.371  0.00  0.00    -0.386 OA
ATOM     10  H   UNL     1      10.736  -0.385  24.964  0.00  0.00    +0.210 HD
ENDBRANCH   2   9
BRANCH   6  11
ATOM     11  O   UNL     1       7.019  -0.655  25.210  0.00  0.00    -0.453 OA
BRANCH  11  12
ATOM     12  C   UNL     1       5.865  -0.362  25.954  0.00  0.00    +0.214 A 
ATOM     13  C   UNL     1       5.296   1.035  26.017  0.00  0.00    +0.238 A 
ATOM     14  O   UNL     1       5.925   1.998  25.590  0.00  0.00    -0.283 OA
ATOM     15  C   UNL     1       4.015   1.227  26.723  0.00  0.00    +0.109 A 
ATOM     16  C   UNL     1       3.463   0.134  27.372  0.00  0.00    +0.147 A 
ATOM     17  C   UNL     1       2.261   0.241  28.076  0.00  0.00    +0.092 A 
ATOM     18  C   UNL     1       1.621   1.467  28.138  0.00  0.00    +0.124 A 
ATOM     19  C   UNL     1       2.167   2.588  27.525  0.00  0.00    +0.091 A 
ATOM     20  O   UNL     1       4.062  -1.097  27.394  0.00  0.00    -0.451 OA
ATOM     21  C   UNL     1       3.361   2.465  26.810  0.00  0.00    +0.135 A 
ATOM     22  C   UNL     1       5.254  -1.304  26.712  0.00  0.00    +0.181 A 
BRANCH  22  23
ATOM     23  C   UNL     1       5.773  -2.683  26.959  0.00  0.00    +0.025 A 
ATOM     24  C   UNL     1       4.977  -3.624  27.659  0.00  0.00    +0.015 A 
ATOM     25  C   UNL     1       5.479  -4.868  28.060  0.00  0.00    +0.050 A 
ATOM     26  C   UNL     1       6.795  -5.183  27.778  0.00  0.00    +0.158 A 
ATOM     27  C   UNL     1       7.600  -4.286  27.086  0.00  0.00    +0.159 A 
ATOM     28  C   UNL     1       7.100  -3.051  26.673  0.00  0.00    +0.060 A 
BRANCH  27  29
ATOM     29  O   UNL     1       8.904  -4.642  26.878  0.00  0.00    -0.503 OA
ATOM     30  H   UNL     1       9.366  -3.895  26.462  0.00  0.00    +0.292 HD
ENDBRANCH  27  29
BRANCH  26  31
ATOM     31  O   UNL     1       7.312  -6.363  28.226  0.00  0.00    -0.503 OA
ATOM     32  H   UNL     1       6.893  -7.046  27.663  0.00  0.00    +0.292 HD
ENDBRANCH  26  31
ENDBRANCH  22  23
BRANCH  21  33
ATOM     33  O   UNL     1       3.882   3.585  26.226  0.00  0.00    -0.506 OA
ATOM     34  H   UNL     1       3.515   4.379  26.645  0.00  0.00    +0.292 HD
ENDBRANCH  21  33
BRANCH  18  35
ATOM     35  O   UNL     1       0.443   1.636  28.818  0.00  0.00    -0.507 OA
ATOM     36  H   UNL     1       0.549   2.366  29.464  0.00  0.00    +0.292 HD
ENDBRANCH  18  35
ENDBRANCH  11  12
ENDBRANCH   6  11
BRANCH   4  37
ATOM     37  C   UNL     1       8.147  -2.843  23.563  0.00  0.00    +0.197 C 
BRANCH  37  38
ATOM     38  O   UNL     1       7.313  -3.995  23.398  0.00  0.00    -0.346 OA
BRANCH  38  39
ATOM     39  C   UNL     1       5.912  -3.753  23.261  0.00  0.00    +0.282 C 
ATOM     40  O   UNL     1       5.220  -4.540  24.245  0.00  0.00    -0.341 OA
ATOM     41  C   UNL     1       5.476  -5.951  24.107  0.00  0.00    +0.178 C 
ATOM     42  C   UNL     1       5.052  -6.462  22.709  0.00  0.00    +0.177 C 
ATOM     43  C   UNL     1       5.687  -5.612  21.597  0.00  0.00    +0.179 C 
ATOM     44  C   UNL     1       5.384  -4.122  21.860  0.00  0.00    +0.201 C 
BRANCH  44  45
ATOM     45  O   UNL     1       5.896  -3.277  20.823  0.00  0.00    -0.384 OA
ATOM     46  H   UNL     1       6.769  -3.633  20.561  0.00  0.00    +0.210 HD
ENDBRANCH  44  45
BRANCH  43  47
ATOM     47  O   UNL     1       7.091  -5.876  21.484  0.00  0.00    -0.386 OA
ATOM     48  H   UNL     1       7.461  -6.021  22.382  0.00  0.00    +0.210 HD
ENDBRANCH  43  47
BRANCH  42  49
ATOM     49  O   UNL     1       3.631  -6.384  22.561  0.00  0.00    -0.386 OA
ATOM     50  H   UNL     1       3.235  -6.713  23.389  0.00  0.00    +0.210 HD
ENDBRANCH  42  49
BRANCH  41  51
ATOM     51  C   UNL     1       4.784  -6.673  25.273  0.00  0.00    +0.190 C 
BRANCH  51  52
ATOM     52  O   UNL     1       4.007  -7.799  24.888  0.00  0.00    -0.392 OA
ATOM     53  H   UNL     1       3.995  -8.406  25.655  0.00  0.00    +0.210 HD
ENDBRANCH  51  52
ENDBRANCH  41  51
ENDBRANCH  38  39
ENDBRANCH  37  38
ENDBRANCH   4  37
BRANCH   1  54
ATOM     54  O   UNL     1       8.371   1.815  22.802  0.00  0.00    -0.337 OA
BRANCH  54  58
ATOM     55  C   UNL     1       5.591   4.950  23.393  0.00  0.00    +0.041 C 
ATOM     56  C   UNL     1       6.930   5.157  22.678  0.00  0.00    +0.149 C 
ATOM     57  O   UNL     1       7.506   3.911  22.250  0.00  0.00    -0.343 OA
ATOM     58  C   UNL     1       7.945   3.077  23.329  0.00  0.00    +0.282 C 
ATOM     59  C   UNL     1       9.045   3.779  24.156  0.00  0.00    +0.201 C 
ATOM     60  C   UNL     1       8.527   5.124  24.657  0.00  0.00    +0.179 C 
ATOM     61  C   UNL     1       7.945   5.959  23.510  0.00  0.00    +0.174 C 
BRANCH  61  62
ATOM     62  O   UNL     1       9.044   6.367  22.671  0.00  0.00    -0.387 OA
ATOM     63  H   UNL     1       9.302   7.265  22.979  0.00  0.00    +0.210 HD
ENDBRANCH  61  62
BRANCH  60  64
ATOM     64  O   UNL     1       9.615   5.826  25.275  0.00  0.00    -0.386 OA
ATOM     65  H   UNL     1       9.563   5.590  26.226  0.00  0.00    +0.210 HD
ENDBRANCH  60  64
BRANCH  59  66
ATOM     66  O   UNL     1      10.230   3.968  23.356  0.00  0.00    -0.384 OA
ATOM     67  H   UNL     1       9.922   4.303  22.493  0.00  0.00    +0.210 HD
ENDBRANCH  59  66
ENDBRANCH  54  58
ENDBRANCH   1  54
TORSDOF 22
ENDMDL
MODEL 9
REMARK VINA RESULT:      -5.9      2.146      8.613
REMARK  Name = 
REMARK  23 active torsions:
REMARK  status: ('A' for Active; 'I' for Inactive)
REMARK    1  A    between atoms: C_1  and  C_2
REMARK    2  A    between atoms: C_3  and  O_62
REMARK    3  A    between atoms: C_5  and  O_61
REMARK    4  A    between atoms: C_6  and  O_60
REMARK    5  A    between atoms: C_8  and  O_11
REMARK    6  A    between atoms: O_11  and  C_12
REMARK    7  A    between atoms: C_13  and  O_38
REMARK    8  A    between atoms: C_16  and  C_22
REMARK    9  A    between atoms: C_17  and  O_21
REMARK   10  A    between atoms: C_19  and  O_20
REMARK   11  A    between atoms: C_22  and  O_23
REMARK   12  A    between atoms: O_23  and  C_24
REMARK   13  A    between atoms: C_26  and  O_37
REMARK   14  A    between atoms: C_27  and  O_36
REMARK   15  A    between atoms: C_29  and  O_35
REMARK   16  A    between atoms: C_31  and  C_33
REMARK   17  A    between atoms: C_33  and  O_34
REMARK   18  A    between atoms: O_38  and  C_39
REMARK   19  A    between atoms: C_40  and  C_52
REMARK   20  A    between atoms: C_44  and  O_51
REMARK   21  A    between atoms: C_46  and  O_50
REMARK   22  A    between atoms: C_54  and  O_59
REMARK   23  A    between atoms: C_55  and  O_58
REMARK                            x       y       z     vdW  Elec       q    Type
REMARK                         _______ _______ _______ _____ _____    ______ ____
ROOT
ATOM      1  C   UNL     1       5.321  -0.419  27.900  0.00  0.00    +0.221 C 
ATOM      2  C   UNL     1       5.961   0.849  28.496  0.00  0.00    +0.180 C 
ATOM      3  C   UNL     1       5.537   2.082  27.685  0.00  0.00    +0.177 C 
ATOM      4  C   UNL     1       5.833   1.871  26.199  0.00  0.00    +0.179 C 
ATOM      5  O   UNL     1       5.142   0.730  25.692  0.00  0.00    -0.331 OA
ATOM      6  C   UNL     1       5.453  -0.500  26.342  0.00  0.00    +0.340 C 
ENDROOT
BRANCH   3   7
ATOM      7  O   UNL     1       6.161   3.270  28.177  0.00  0.00    -0.386 OA
ATOM      8  H   UNL     1       5.484   3.968  28.218  0.00  0.00    +0.210 HD
ENDBRANCH   3   7
BRANCH   2   9
ATOM      9  O   UNL     1       7.390   0.751  28.592  0.00  0.00    -0.386 OA
ATOM     10  H   UNL     1       7.803   1.617  28.446  0.00  0.00    +0.210 HD
ENDBRANCH   2   9
BRANCH   6  11
ATOM     11  O   UNL     1       6.704  -1.100  25.951  0.00  0.00    -0.453 OA
BRANCH  11  12
ATOM     12  C   UNL     1       6.664  -2.030  24.899  0.00  0.00    +0.214 A 
ATOM     13  C   UNL     1       6.115  -3.423  25.092  0.00  0.00    +0.238 A 
ATOM     14  O   UNL     1       5.871  -3.860  26.212  0.00  0.00    -0.283 OA
ATOM     15  C   UNL     1       6.001  -4.290  23.904  0.00  0.00    +0.109 A 
ATOM     16  C   UNL     1       6.499  -3.811  22.703  0.00  0.00    +0.147 A 
ATOM     17  C   UNL     1       6.444  -4.581  21.538  0.00  0.00    +0.092 A 
ATOM     18  C   UNL     1       5.894  -5.851  21.592  0.00  0.00    +0.124 A 
ATOM     19  C   UNL     1       5.418  -6.370  22.790  0.00  0.00    +0.091 A 
ATOM     20  O   UNL     1       7.098  -2.586  22.582  0.00  0.00    -0.451 OA
ATOM     21  C   UNL     1       5.464  -5.585  23.944  0.00  0.00    +0.135 A 
ATOM     22  C   UNL     1       7.189  -1.744  23.683  0.00  0.00    +0.181 A 
BRANCH  22  23
ATOM     23  C   UNL     1       7.966  -0.513  23.345  0.00  0.00    +0.025 A 
ATOM     24  C   UNL     1       7.519   0.344  22.308  0.00  0.00    +0.015 A 
ATOM     25  C   UNL     1       8.295   1.413  21.844  0.00  0.00    +0.050 A 
ATOM     26  C   UNL     1       9.539   1.632  22.404  0.00  0.00    +0.158 A 
ATOM     27  C   UNL     1      10.002   0.816  23.428  0.00  0.00    +0.159 A 
ATOM     28  C   UNL     1       9.228  -0.242  23.903  0.00  0.00    +0.060 A 
BRANCH  27  29
ATOM     29  O   UNL     1      11.260   1.061  23.907  0.00  0.00    -0.503 OA
ATOM     30  H   UNL     1      11.549   1.932  23.588  0.00  0.00    +0.292 HD
ENDBRANCH  27  29
BRANCH  26  31
ATOM     31  O   UNL     1      10.329   2.628  21.909  0.00  0.00    -0.503 OA
ATOM     32  H   UNL     1      11.007   2.771  22.600  0.00  0.00    +0.292 HD
ENDBRANCH  26  31
ENDBRANCH  22  23
BRANCH  21  33
ATOM     33  O   UNL     1       4.999  -6.124  25.111  0.00  0.00    -0.506 OA
ATOM     34  H   UNL     1       4.839  -5.421  25.760  0.00  0.00    +0.292 HD
ENDBRANCH  21  33
BRANCH  18  35
ATOM     35  O   UNL     1       5.817  -6.655  20.486  0.00  0.00    -0.507 OA
ATOM     36  H   UNL     1       5.006  -7.203  20.544  0.00  0.00    +0.292 HD
ENDBRANCH  18  35
ENDBRANCH  11  12
ENDBRANCH   6  11
BRANCH   4  37
ATOM     37  C   UNL     1       7.323   1.795  25.869  0.00  0.00    +0.197 C 
BRANCH  37  38
ATOM     38  O   UNL     1       7.952   3.078  25.790  0.00  0.00    -0.346 OA
BRANCH  38  39
ATOM     39  C   UNL     1       7.610   3.887  24.663  0.00  0.00    +0.282 C 
ATOM     40  O   UNL     1       8.813   4.167  23.927  0.00  0.00    -0.341 OA
ATOM     41  C   UNL     1       9.803   4.849  24.720  0.00  0.00    +0.178 C 
ATOM     42  C   UNL     1       9.257   6.191  25.262  0.00  0.00    +0.177 C 
ATOM     43  C   UNL     1       7.920   5.987  25.993  0.00  0.00    +0.179 C 
ATOM     44  C   UNL     1       6.949   5.220  25.072  0.00  0.00    +0.201 C 
BRANCH  44  45
ATOM     45  O   UNL     1       5.660   5.049  25.671  0.00  0.00    -0.384 OA
ATOM     46  H   UNL     1       4.995   5.103  24.955  0.00  0.00    +0.210 HD
ENDBRANCH  44  45
BRANCH  43  47
ATOM     47  O   UNL     1       8.116   5.333  27.253  0.00  0.00    -0.386 OA
ATOM     48  H   UNL     1       9.045   5.021  27.309  0.00  0.00    +0.210 HD
ENDBRANCH  43  47
BRANCH  42  49
ATOM     49  O   UNL     1       9.030   7.107  24.186  0.00  0.00    -0.386 OA
ATOM     50  H   UNL     1       8.492   7.839  24.537  0.00  0.00    +0.210 HD
ENDBRANCH  42  49
BRANCH  41  51
ATOM     51  C   UNL     1      11.075   4.989  23.870  0.00  0.00    +0.190 C 
BRANCH  51  52
ATOM     52  O   UNL     1      10.932   5.830  22.734  0.00  0.00    -0.392 OA
ATOM     53  H   UNL     1      10.093   6.319  22.853  0.00  0.00    +0.210 HD
ENDBRANCH  51  52
ENDBRANCH  41  51
ENDBRANCH  38  39
ENDBRANCH  37  38
ENDBRANCH   4  37
BRANCH   1  54
ATOM     54  O   UNL     1       3.939  -0.412  28.319  0.00  0.00    -0.337 OA
BRANCH  54  58
ATOM     55  C   UNL     1       3.774  -4.043  30.485  0.00  0.00    +0.041 C 
ATOM     56  C   UNL     1       4.011  -3.995  28.973  0.00  0.00    +0.149 C 
ATOM     57  O   UNL     1       4.419  -2.686  28.537  0.00  0.00    -0.343 OA
ATOM     58  C   UNL     1       3.390  -1.694  28.644  0.00  0.00    +0.282 C 
ATOM     59  C   UNL     1       2.176  -2.063  27.764  0.00  0.00    +0.201 C 
ATOM     60  C   UNL     1       1.667  -3.448  28.150  0.00  0.00    +0.179 C 
ATOM     61  C   UNL     1       2.802  -4.478  28.153  0.00  0.00    +0.174 C 
BRANCH  61  62
ATOM     62  O   UNL     1       3.199  -4.688  26.784  0.00  0.00    -0.387 OA
ATOM     63  H   UNL     1       3.229  -5.663  26.656  0.00  0.00    +0.210 HD
ENDBRANCH  61  62
BRANCH  60  64
ATOM     64  O   UNL     1       0.652  -3.836  27.212  0.00  0.00    -0.386 OA
ATOM     65  H   UNL     1       0.865  -4.764  26.975  0.00  0.00    +0.210 HD
ENDBRANCH  60  64
BRANCH  59  66
ATOM     66  O   UNL     1       2.542  -2.038  26.369  0.00  0.00    -0.384 OA
ATOM     67  H   UNL     1       3.474  -2.321  26.330  0.00  0.00    +0.210 HD
ENDBRANCH  59  66
ENDBRANCH  54  58
ENDBRANCH   1  54
TORSDOF 22
ENDMDL
