MODEL 1
REMARK VINA RESULT:      -6.8      0.000      0.000
REMARK  Name = 
REMARK  9 active torsions:
REMARK  status: ('A' for Active; 'I' for Inactive)
REMARK    1  A    between atoms: C_1  and  O_2
REMARK    2  A    between atoms: O_2  and  C_3
REMARK    3  A    between atoms: C_4  and  O_24
REMARK    4  A    between atoms: C_6  and  C_9
REMARK    5  A    between atoms: C_10  and  O_22
REMARK    6  A    between atoms: C_14  and  O_21
REMARK    7  A    between atoms: C_16  and  O_20
REMARK    8  A    between atoms: O_22  and  C_23
REMARK    9  A    between atoms: O_24  and  C_25
REMARK                            x       y       z     vdW  Elec       q    Type
REMARK                         _______ _______ _______ _____ _____    ______ ____
ROOT
ATOM      1  C   UNL     1       7.952  -0.710  23.014  0.00  0.00    +0.181 A 
ATOM      2  O   UNL     1       6.816  -1.470  22.671  0.00  0.00    -0.451 OA
ATOM      3  C   UNL     1       6.797  -2.825  22.861  0.00  0.00    +0.147 A 
ATOM      4  C   UNL     1       7.875  -3.522  23.372  0.00  0.00    +0.109 A 
ATOM      5  C   UNL     1       7.820  -4.915  23.536  0.00  0.00    +0.135 A 
ATOM      6  C   UNL     1       6.675  -5.620  23.186  0.00  0.00    +0.091 A 
ATOM      7  C   UNL     1       5.588  -4.918  22.676  0.00  0.00    +0.124 A 
ATOM      8  C   UNL     1       9.059  -2.764  23.738  0.00  0.00    +0.238 A 
ATOM      9  O   UNL     1      10.021  -3.381  24.199  0.00  0.00    -0.283 OA
ATOM     10  C   UNL     1       5.636  -3.533  22.511  0.00  0.00    +0.092 A 
ATOM     11  C   UNL     1       9.079  -1.278  23.541  0.00  0.00    +0.211 A 
ENDROOT
BRANCH   1  15
ATOM     12  C   UNL     1       7.155   3.522  22.297  0.00  0.00    +0.162 A 
ATOM     13  C   UNL     1       8.345   2.923  21.879  0.00  0.00    +0.050 A 
ATOM     14  C   UNL     1       8.621   1.580  22.158  0.00  0.00    +0.015 A 
ATOM     15  C   UNL     1       7.674   0.745  22.748  0.00  0.00    +0.025 A 
ATOM     16  C   UNL     1       6.484   1.373  23.205  0.00  0.00    +0.061 A 
ATOM     17  C   UNL     1       6.232   2.754  23.019  0.00  0.00    +0.162 A 
BRANCH  12  19
ATOM     18  C   UNL     1       7.744   5.802  22.803  0.00  0.00    +0.277 C 
ATOM     19  O   UNL     1       7.097   4.852  21.967  0.00  0.00    -0.491 OA
ENDBRANCH  12  19
BRANCH  17  20
ATOM     20  O   UNL     1       5.140   3.411  23.515  0.00  0.00    -0.491 OA
ATOM     21  C   UNL     1       3.936   3.461  22.768  0.00  0.00    +0.277 C 
ENDBRANCH  17  20
ENDBRANCH   1  15
BRANCH   5  22
ATOM     22  O   UNL     1       8.861  -5.651  24.035  0.00  0.00    -0.506 OA
ATOM     23  H   UNL     1       8.925  -6.486  23.506  0.00  0.00    +0.292 HD
ENDBRANCH   5  22
BRANCH   7  24
ATOM     24  O   UNL     1       4.439  -5.568  22.328  0.00  0.00    -0.507 OA
ATOM     25  H   UNL     1       4.380  -6.390  22.848  0.00  0.00    +0.292 HD
ENDBRANCH   7  24
BRANCH  11  26
ATOM     26  O   UNL     1      10.281  -0.795  23.956  0.00  0.00    -0.488 OA
ATOM     27  C   UNL     1      10.623   0.251  24.827  0.00  0.00    +0.277 C 
ENDBRANCH  11  26
TORSDOF 6
ENDMDL
MODEL 2
REMARK VINA RESULT:      -6.8      2.684      8.054
REMARK  Name = 
REMARK  9 active torsions:
REMARK  status: ('A' for Active; 'I' for Inactive)
REMARK    1  A    between atoms: C_1  and  O_2
REMARK    2  A    between atoms: O_2  and  C_3
REMARK    3  A    between atoms: C_4  and  O_24
REMARK    4  A    between atoms: C_6  and  C_9
REMARK    5  A    between atoms: C_10  and  O_22
REMARK    6  A    between atoms: C_14  and  O_21
REMARK    7  A    between atoms: C_16  and  O_20
REMARK    8  A    between atoms: O_22  and  C_23
REMARK    9  A    between atoms: O_24  and  C_25
REMARK                            x       y       z     vdW  Elec       q    Type
REMARK                         _______ _______ _______ _____ _____    ______ ____
ROOT
ATOM      1  C   UNL     1       9.014   1.586  23.722  0.00  0.00    +0.181 A 
ATOM      2  O   UNL     1      10.356   1.971  23.529  0.00  0.00    -0.451 OA
ATOM      3  C   UNL     1      10.715   3.291  23.549  0.00  0.00    +0.147 A 
ATOM      4  C   UNL     1       9.801   4.310  23.735  0.00  0.00    +0.109 A 
ATOM      5  C   UNL     1      10.209   5.653  23.732  0.00  0.00    +0.135 A 
ATOM      6  C   UNL     1      11.546   5.983  23.542  0.00  0.00    +0.091 A 
ATOM      7  C   UNL     1      12.466   4.957  23.360  0.00  0.00    +0.124 A 
ATOM      8  C   UNL     1       8.411   3.943  23.939  0.00  0.00    +0.238 A 
ATOM      9  O   UNL     1       7.593   4.849  24.111  0.00  0.00    -0.283 OA
ATOM     10  C   UNL     1      12.068   3.619  23.362  0.00  0.00    +0.092 A 
ATOM     11  C   UNL     1       8.016   2.497  23.929  0.00  0.00    +0.211 A 
ENDROOT
BRANCH   1  15
ATOM     12  C   UNL     1       8.771  -2.772  23.613  0.00  0.00    +0.162 A 
ATOM     13  C   UNL     1       9.706  -2.114  24.414  0.00  0.00    +0.050 A 
ATOM     14  C   UNL     1       9.818  -0.718  24.406  0.00  0.00    +0.015 A 
ATOM     15  C   UNL     1       8.922   0.084  23.702  0.00  0.00    +0.025 A 
ATOM     16  C   UNL     1       8.000  -0.595  22.860  0.00  0.00    +0.061 A 
ATOM     17  C   UNL     1       7.940  -2.008  22.781  0.00  0.00    +0.162 A 
BRANCH  12  19
ATOM     18  C   UNL     1       8.118  -4.789  24.755  0.00  0.00    +0.277 C 
ATOM     19  O   UNL     1       8.852  -4.136  23.730  0.00  0.00    -0.491 OA
ENDBRANCH  12  19
BRANCH  17  20
ATOM     20  O   UNL     1       7.127  -2.698  21.924  0.00  0.00    -0.491 OA
ATOM     21  C   UNL     1       5.799  -3.017  22.301  0.00  0.00    +0.277 C 
ENDBRANCH  17  20
ENDBRANCH   1  15
BRANCH   5  22
ATOM     22  O   UNL     1       9.342   6.699  23.910  0.00  0.00    -0.506 OA
ATOM     23  H   UNL     1       8.950   6.922  23.028  0.00  0.00    +0.292 HD
ENDBRANCH   5  22
BRANCH   7  24
ATOM     24  O   UNL     1      13.792   5.233  23.179  0.00  0.00    -0.507 OA
ATOM     25  H   UNL     1      14.184   5.441  24.046  0.00  0.00    +0.292 HD
ENDBRANCH   7  24
BRANCH  11  26
ATOM     26  O   UNL     1       6.676   2.405  24.143  0.00  0.00    -0.488 OA
ATOM     27  C   UNL     1       5.926   1.755  25.135  0.00  0.00    +0.277 C 
ENDBRANCH  11  26
TORSDOF 6
ENDMDL
MODEL 3
REMARK VINA RESULT:      -6.7      1.761      7.122
REMARK  Name = 
REMARK  9 active torsions:
REMARK  status: ('A' for Active; 'I' for Inactive)
REMARK    1  A    between atoms: C_1  and  O_2
REMARK    2  A    between atoms: O_2  and  C_3
REMARK    3  A    between atoms: C_4  and  O_24
REMARK    4  A    between atoms: C_6  and  C_9
REMARK    5  A    between atoms: C_10  and  O_22
REMARK    6  A    between atoms: C_14  and  O_21
REMARK    7  A    between atoms: C_16  and  O_20
REMARK    8  A    between atoms: O_22  and  C_23
REMARK    9  A    between atoms: O_24  and  C_25
REMARK                            x       y       z     vdW  Elec       q    Type
REMARK                         _______ _______ _______ _____ _____    ______ ____
ROOT
ATOM      1  C   UNL     1       7.248  -0.591  23.460  0.00  0.00    +0.181 A 
ATOM      2  O   UNL     1       6.564   0.544  22.979  0.00  0.00    -0.451 OA
ATOM      3  C   UNL     1       7.166   1.772  22.968  0.00  0.00    +0.147 A 
ATOM      4  C   UNL     1       8.449   1.977  23.437  0.00  0.00    +0.109 A 
ATOM      5  C   UNL     1       9.024   3.258  23.422  0.00  0.00    +0.135 A 
ATOM      6  C   UNL     1       8.310   4.346  22.934  0.00  0.00    +0.091 A 
ATOM      7  C   UNL     1       7.020   4.137  22.458  0.00  0.00    +0.124 A 
ATOM      8  C   UNL     1       9.181   0.826  23.935  0.00  0.00    +0.238 A 
ATOM      9  O   UNL     1      10.328   1.005  24.349  0.00  0.00    -0.283 OA
ATOM     10  C   UNL     1       6.442   2.867  22.469  0.00  0.00    +0.092 A 
ATOM     11  C   UNL     1       8.527  -0.523  23.939  0.00  0.00    +0.211 A 
ENDROOT
BRANCH   1  15
ATOM     12  C   UNL     1       4.743  -4.140  23.023  0.00  0.00    +0.162 A 
ATOM     13  C   UNL     1       4.658  -3.322  24.151  0.00  0.00    +0.050 A 
ATOM     14  C   UNL     1       5.501  -2.215  24.314  0.00  0.00    +0.015 A 
ATOM     15  C   UNL     1       6.369  -1.803  23.306  0.00  0.00    +0.025 A 
ATOM     16  C   UNL     1       6.477  -2.664  22.180  0.00  0.00    +0.061 A 
ATOM     17  C   UNL     1       5.703  -3.842  22.046  0.00  0.00    +0.162 A 
BRANCH  12  19
ATOM     18  C   UNL     1       4.165  -6.300  23.917  0.00  0.00    +0.277 C 
ATOM     19  O   UNL     1       3.868  -5.194  23.077  0.00  0.00    -0.491 OA
ENDBRANCH  12  19
BRANCH  17  20
ATOM     20  O   UNL     1       5.836  -4.739  21.022  0.00  0.00    -0.491 OA
ATOM     21  C   UNL     1       6.696  -5.857  21.158  0.00  0.00    +0.277 C 
ENDBRANCH  17  20
ENDBRANCH   1  15
BRANCH   5  22
ATOM     22  O   UNL     1      10.291   3.515  23.877  0.00  0.00    -0.506 OA
ATOM     23  H   UNL     1      10.597   4.362  23.465  0.00  0.00    +0.292 HD
ENDBRANCH   5  22
BRANCH   7  24
ATOM     24  O   UNL     1       6.284   5.175  21.960  0.00  0.00    -0.507 OA
ATOM     25  H   UNL     1       6.760   6.005  22.142  0.00  0.00    +0.292 HD
ENDBRANCH   7  24
BRANCH  11  26
ATOM     26  O   UNL     1       9.402  -1.434  24.443  0.00  0.00    -0.488 OA
ATOM     27  C   UNL     1       9.819  -2.692  23.981  0.00  0.00    +0.277 C 
ENDBRANCH  11  26
TORSDOF 6
ENDMDL
MODEL 4
REMARK VINA RESULT:      -6.6      2.873      4.876
REMARK  Name = 
REMARK  9 active torsions:
REMARK  status: ('A' for Active; 'I' for Inactive)
REMARK    1  A    between atoms: C_1  and  O_2
REMARK    2  A    between atoms: O_2  and  C_3
REMARK    3  A    between atoms: C_4  and  O_24
REMARK    4  A    between atoms: C_6  and  C_9
REMARK    5  A    between atoms: C_10  and  O_22
REMARK    6  A    between atoms: C_14  and  O_21
REMARK    7  A    between atoms: C_16  and  O_20
REMARK    8  A    between atoms: O_22  and  C_23
REMARK    9  A    between atoms: O_24  and  C_25
REMARK                            x       y       z     vdW  Elec       q    Type
REMARK                         _______ _______ _______ _____ _____    ______ ____
ROOT
ATOM      1  C   UNL     1       6.558  -3.683  23.912  0.00  0.00    +0.181 A 
ATOM      2  O   UNL     1       6.765  -3.668  25.306  0.00  0.00    -0.451 OA
ATOM      3  C   UNL     1       6.231  -4.643  26.103  0.00  0.00    +0.147 A 
ATOM      4  C   UNL     1       5.454  -5.672  25.605  0.00  0.00    +0.109 A 
ATOM      5  C   UNL     1       4.912  -6.644  26.460  0.00  0.00    +0.135 A 
ATOM      6  C   UNL     1       5.148  -6.589  27.829  0.00  0.00    +0.091 A 
ATOM      7  C   UNL     1       5.933  -5.556  28.329  0.00  0.00    +0.124 A 
ATOM      8  C   UNL     1       5.227  -5.715  24.172  0.00  0.00    +0.238 A 
ATOM      9  O   UNL     1       4.539  -6.634  23.722  0.00  0.00    -0.283 OA
ATOM     10  C   UNL     1       6.477  -4.586  27.485  0.00  0.00    +0.092 A 
ATOM     11  C   UNL     1       5.819  -4.654  23.294  0.00  0.00    +0.211 A 
ENDROOT
BRANCH   1  15
ATOM     12  C   UNL     1       8.709  -0.314  22.155  0.00  0.00    +0.162 A 
ATOM     13  C   UNL     1       9.311  -1.564  22.307  0.00  0.00    +0.050 A 
ATOM     14  C   UNL     1       8.638  -2.628  22.921  0.00  0.00    +0.015 A 
ATOM     15  C   UNL     1       7.297  -2.530  23.288  0.00  0.00    +0.025 A 
ATOM     16  C   UNL     1       6.706  -1.244  23.166  0.00  0.00    +0.061 A 
ATOM     17  C   UNL     1       7.406  -0.131  22.639  0.00  0.00    +0.162 A 
BRANCH  12  19
ATOM     18  C   UNL     1      10.164   1.590  22.390  0.00  0.00    +0.277 C 
ATOM     19  O   UNL     1       9.548   0.602  21.576  0.00  0.00    -0.491 OA
ENDBRANCH  12  19
BRANCH  17  20
ATOM     20  O   UNL     1       6.902   1.139  22.581  0.00  0.00    -0.491 OA
ATOM     21  C   UNL     1       6.367   1.750  23.743  0.00  0.00    +0.277 C 
ENDBRANCH  17  20
ENDBRANCH   1  15
BRANCH   5  22
ATOM     22  O   UNL     1       4.135  -7.681  26.017  0.00  0.00    -0.506 OA
ATOM     23  H   UNL     1       4.513  -8.522  26.379  0.00  0.00    +0.292 HD
ENDBRANCH   5  22
BRANCH   7  24
ATOM     24  O   UNL     1       6.200  -5.467  29.666  0.00  0.00    -0.507 OA
ATOM     25  H   UNL     1       6.274  -4.525  29.903  0.00  0.00    +0.292 HD
ENDBRANCH   7  24
BRANCH  11  26
ATOM     26  O   UNL     1       5.474  -4.907  22.003  0.00  0.00    -0.488 OA
ATOM     27  C   UNL     1       6.166  -5.526  20.950  0.00  0.00    +0.277 C 
ENDBRANCH  11  26
TORSDOF 6
ENDMDL
MODEL 5
REMARK VINA RESULT:      -6.5      2.193      2.756
REMARK  Name = 
REMARK  9 active torsions:
REMARK  status: ('A' for Active; 'I' for Inactive)
REMARK    1  A    between atoms: C_1  and  O_2
REMARK    2  A    between atoms: O_2  and  C_3
REMARK    3  A    between atoms: C_4  and  O_24
REMARK    4  A    between atoms: C_6  and  C_9
REMARK    5  A    between atoms: C_10  and  O_22
REMARK    6  A    between atoms: C_14  and  O_21
REMARK    7  A    between atoms: C_16  and  O_20
REMARK    8  A    between atoms: O_22  and  C_23
REMARK    9  A    between atoms: O_24  and  C_25
REMARK                            x       y       z     vdW  Elec       q    Type
REMARK                         _______ _______ _______ _____ _____    ______ ____
ROOT
ATOM      1  C   UNL     1       8.330  -1.511  24.230  0.00  0.00    +0.181 A 
ATOM      2  O   UNL     1       7.953  -2.185  23.050  0.00  0.00    -0.451 OA
ATOM      3  C   UNL     1       7.277  -3.373  23.108  0.00  0.00    +0.147 A 
ATOM      4  C   UNL     1       6.945  -3.985  24.302  0.00  0.00    +0.109 A 
ATOM      5  C   UNL     1       6.265  -5.213  24.317  0.00  0.00    +0.135 A 
ATOM      6  C   UNL     1       5.911  -5.837  23.126  0.00  0.00    +0.091 A 
ATOM      7  C   UNL     1       6.241  -5.219  21.926  0.00  0.00    +0.124 A 
ATOM      8  C   UNL     1       7.318  -3.312  25.534  0.00  0.00    +0.238 A 
ATOM      9  O   UNL     1       7.019  -3.852  26.601  0.00  0.00    -0.283 OA
ATOM     10  C   UNL     1       6.917  -3.997  21.903  0.00  0.00    +0.092 A 
ATOM     11  C   UNL     1       8.049  -2.005  25.473  0.00  0.00    +0.211 A 
ENDROOT
BRANCH   1  15
ATOM     12  C   UNL     1      10.257   2.271  23.207  0.00  0.00    +0.162 A 
ATOM     13  C   UNL     1      10.827   1.385  24.124  0.00  0.00    +0.050 A 
ATOM     14  C   UNL     1      10.181   0.199  24.491  0.00  0.00    +0.015 A 
ATOM     15  C   UNL     1       9.007  -0.217  23.866  0.00  0.00    +0.025 A 
ATOM     16  C   UNL     1       8.414   0.707  22.965  0.00  0.00    +0.061 A 
ATOM     17  C   UNL     1       9.006   1.957  22.658  0.00  0.00    +0.162 A 
BRANCH  12  19
ATOM     18  C   UNL     1      10.713   4.572  23.748  0.00  0.00    +0.277 C 
ATOM     19  O   UNL     1      11.022   3.392  23.020  0.00  0.00    -0.491 OA
ENDBRANCH  12  19
BRANCH  17  20
ATOM     20  O   UNL     1       8.428   2.908  21.863  0.00  0.00    -0.491 OA
ATOM     21  C   UNL     1       7.276   3.606  22.304  0.00  0.00    +0.277 C 
ENDBRANCH  17  20
ENDBRANCH   1  15
BRANCH   5  22
ATOM     22  O   UNL     1       5.916  -5.861  25.472  0.00  0.00    -0.506 OA
ATOM     23  H   UNL     1       5.513  -5.195  26.085  0.00  0.00    +0.292 HD
ENDBRANCH   5  22
BRANCH   7  24
ATOM     24  O   UNL     1       5.905  -5.790  20.731  0.00  0.00    -0.507 OA
ATOM     25  H   UNL     1       6.016  -5.124  20.029  0.00  0.00    +0.292 HD
ENDBRANCH   7  24
BRANCH  11  26
ATOM     26  O   UNL     1       8.283  -1.573  26.742  0.00  0.00    -0.488 OA
ATOM     27  C   UNL     1       7.938  -0.387  27.408  0.00  0.00    +0.277 C 
ENDBRANCH  11  26
TORSDOF 6
ENDMDL
MODEL 6
REMARK VINA RESULT:      -6.5      2.669      3.229
REMARK  Name = 
REMARK  9 active torsions:
REMARK  status: ('A' for Active; 'I' for Inactive)
REMARK    1  A    between atoms: C_1  and  O_2
REMARK    2  A    between atoms: O_2  and  C_3
REMARK    3  A    between atoms: C_4  and  O_24
REMARK    4  A    between atoms: C_6  and  C_9
REMARK    5  A    between atoms: C_10  and  O_22
REMARK    6  A    between atoms: C_14  and  O_21
REMARK    7  A    between atoms: C_16  and  O_20
REMARK    8  A    between atoms: O_22  and  C_23
REMARK    9  A    between atoms: O_24  and  C_25
REMARK                            x       y       z     vdW  Elec       q    Type
REMARK                         _______ _______ _______ _____ _____    ______ ____
ROOT
ATOM      1  C   UNL     1       8.145  -1.290  24.453  0.00  0.00    +0.181 A 
ATOM      2  O   UNL     1       7.095  -1.536  25.362  0.00  0.00    -0.451 OA
ATOM      3  C   UNL     1       7.008  -2.728  26.025  0.00  0.00    +0.147 A 
ATOM      4  C   UNL     1       7.914  -3.755  25.837  0.00  0.00    +0.109 A 
ATOM      5  C   UNL     1       7.779  -4.970  26.527  0.00  0.00    +0.135 A 
ATOM      6  C   UNL     1       6.728  -5.162  27.416  0.00  0.00    +0.091 A 
ATOM      7  C   UNL     1       5.820  -4.127  27.609  0.00  0.00    +0.124 A 
ATOM      8  C   UNL     1       9.008  -3.530  24.909  0.00  0.00    +0.238 A 
ATOM      9  O   UNL     1       9.821  -4.441  24.742  0.00  0.00    -0.283 OA
ATOM     10  C   UNL     1       5.948  -2.916  26.927  0.00  0.00    +0.092 A 
ATOM     11  C   UNL     1       9.112  -2.220  24.188  0.00  0.00    +0.211 A 
ENDROOT
BRANCH   1  15
ATOM     12  C   UNL     1       7.825   2.762  22.861  0.00  0.00    +0.162 A 
ATOM     13  C   UNL     1       6.965   1.745  22.444  0.00  0.00    +0.050 A 
ATOM     14  C   UNL     1       7.104   0.434  22.915  0.00  0.00    +0.015 A 
ATOM     15  C   UNL     1       8.019   0.110  23.915  0.00  0.00    +0.025 A 
ATOM     16  C   UNL     1       8.915   1.141  24.303  0.00  0.00    +0.061 A 
ATOM     17  C   UNL     1       8.852   2.449  23.762  0.00  0.00    +0.162 A 
BRANCH  12  19
ATOM     18  C   UNL     1       6.670   4.875  22.881  0.00  0.00    +0.277 C 
ATOM     19  O   UNL     1       7.553   3.959  22.249  0.00  0.00    -0.491 OA
ENDBRANCH  12  19
BRANCH  17  20
ATOM     20  O   UNL     1       9.745   3.444  24.047  0.00  0.00    -0.491 OA
ATOM     21  C   UNL     1      10.983   3.511  23.360  0.00  0.00    +0.277 C 
ENDBRANCH  17  20
ENDBRANCH   1  15
BRANCH   5  22
ATOM     22  O   UNL     1       8.648  -6.017  26.374  0.00  0.00    -0.506 OA
ATOM     23  H   UNL     1       8.308  -6.776  26.912  0.00  0.00    +0.292 HD
ENDBRANCH   5  22
BRANCH   7  24
ATOM     24  O   UNL     1       4.777  -4.267  28.480  0.00  0.00    -0.507 OA
ATOM     25  H   UNL     1       4.652  -3.422  28.949  0.00  0.00    +0.292 HD
ENDBRANCH   7  24
BRANCH  11  26
ATOM     26  O   UNL     1      10.211  -2.245  23.385  0.00  0.00    -0.488 OA
ATOM     27  C   UNL     1      10.550  -1.517  22.235  0.00  0.00    +0.277 C 
ENDBRANCH  11  26
TORSDOF 6
ENDMDL
MODEL 7
REMARK VINA RESULT:      -6.2      1.614      7.226
REMARK  Name = 
REMARK  9 active torsions:
REMARK  status: ('A' for Active; 'I' for Inactive)
REMARK    1  A    between atoms: C_1  and  O_2
REMARK    2  A    between atoms: O_2  and  C_3
REMARK    3  A    between atoms: C_4  and  O_24
REMARK    4  A    between atoms: C_6  and  C_9
REMARK    5  A    between atoms: C_10  and  O_22
REMARK    6  A    between atoms: C_14  and  O_21
REMARK    7  A    between atoms: C_16  and  O_20
REMARK    8  A    between atoms: O_22  and  C_23
REMARK    9  A    between atoms: O_24  and  C_25
REMARK                            x       y       z     vdW  Elec       q    Type
REMARK                         _______ _______ _______ _____ _____    ______ ____
ROOT
ATOM      1  C   UNL     1       8.312   0.273  23.212  0.00  0.00    +0.181 A 
ATOM      2  O   UNL     1       7.035   0.822  22.974  0.00  0.00    -0.451 OA
ATOM      3  C   UNL     1       6.868   2.174  22.844  0.00  0.00    +0.147 A 
ATOM      4  C   UNL     1       7.914   3.069  22.954  0.00  0.00    +0.109 A 
ATOM      5  C   UNL     1       7.696   4.450  22.829  0.00  0.00    +0.135 A 
ATOM      6  C   UNL     1       6.418   4.943  22.590  0.00  0.00    +0.091 A 
ATOM      7  C   UNL     1       5.367   4.041  22.475  0.00  0.00    +0.124 A 
ATOM      8  C   UNL     1       9.242   2.533  23.196  0.00  0.00    +0.238 A 
ATOM      9  O   UNL     1      10.179   3.328  23.289  0.00  0.00    -0.283 OA
ATOM     10  C   UNL     1       5.576   2.666  22.597  0.00  0.00    +0.092 A 
ATOM     11  C   UNL     1       9.430   1.051  23.329  0.00  0.00    +0.211 A 
ENDROOT
BRANCH   1  15
ATOM     12  C   UNL     1       7.971  -4.075  23.396  0.00  0.00    +0.162 A 
ATOM     13  C   UNL     1       7.279  -3.329  22.441  0.00  0.00    +0.050 A 
ATOM     14  C   UNL     1       7.347  -1.931  22.418  0.00  0.00    +0.015 A 
ATOM     15  C   UNL     1       8.206  -1.227  23.260  0.00  0.00    +0.025 A 
ATOM     16  C   UNL     1       8.875  -1.991  24.253  0.00  0.00    +0.061 A 
ATOM     17  C   UNL     1       8.739  -3.397  24.353  0.00  0.00    +0.162 A 
BRANCH  12  19
ATOM     18  C   UNL     1       7.050  -5.906  22.133  0.00  0.00    +0.277 C 
ATOM     19  O   UNL     1       7.736  -5.421  23.278  0.00  0.00    -0.491 OA
ENDBRANCH  12  19
BRANCH  17  20
ATOM     20  O   UNL     1       9.299  -4.157  25.343  0.00  0.00    -0.491 OA
ATOM     21  C   UNL     1       8.607  -4.363  26.563  0.00  0.00    +0.277 C 
ENDBRANCH  17  20
ENDBRANCH   1  15
BRANCH   5  22
ATOM     22  O   UNL     1       8.698   5.378  22.932  0.00  0.00    -0.506 OA
ATOM     23  H   UNL     1       9.175   5.410  22.065  0.00  0.00    +0.292 HD
ENDBRANCH   5  22
BRANCH   7  24
ATOM     24  O   UNL     1       4.096   4.479  22.231  0.00  0.00    -0.507 OA
ATOM     25  H   UNL     1       3.625   3.792  21.725  0.00  0.00    +0.292 HD
ENDBRANCH   7  24
BRANCH  11  26
ATOM     26  O   UNL     1      10.748   0.793  23.545  0.00  0.00    -0.488 OA
ATOM     27  C   UNL     1      11.482   0.577  24.722  0.00  0.00    +0.277 C 
ENDBRANCH  11  26
TORSDOF 6
ENDMDL
MODEL 8
REMARK VINA RESULT:      -6.2      2.537      3.933
REMARK  Name = 
REMARK  9 active torsions:
REMARK  status: ('A' for Active; 'I' for Inactive)
REMARK    1  A    between atoms: C_1  and  O_2
REMARK    2  A    between atoms: O_2  and  C_3
REMARK    3  A    between atoms: C_4  and  O_24
REMARK    4  A    between atoms: C_6  and  C_9
REMARK    5  A    between atoms: C_10  and  O_22
REMARK    6  A    between atoms: C_14  and  O_21
REMARK    7  A    between atoms: C_16  and  O_20
REMARK    8  A    between atoms: O_22  and  C_23
REMARK    9  A    between atoms: O_24  and  C_25
REMARK                            x       y       z     vdW  Elec       q    Type
REMARK                         _______ _______ _______ _____ _____    ______ ____
ROOT
ATOM      1  C   UNL     1       8.272   0.572  24.229  0.00  0.00    +0.181 A 
ATOM      2  O   UNL     1       9.195  -0.489  24.331  0.00  0.00    -0.451 OA
ATOM      3  C   UNL     1       8.765  -1.779  24.483  0.00  0.00    +0.147 A 
ATOM      4  C   UNL     1       7.428  -2.114  24.564  0.00  0.00    +0.109 A 
ATOM      5  C   UNL     1       7.030  -3.450  24.736  0.00  0.00    +0.135 A 
ATOM      6  C   UNL     1       7.978  -4.462  24.827  0.00  0.00    +0.091 A 
ATOM      7  C   UNL     1       9.324  -4.124  24.740  0.00  0.00    +0.124 A 
ATOM      8  C   UNL     1       6.453  -1.043  24.459  0.00  0.00    +0.238 A 
ATOM      9  O   UNL     1       5.259  -1.339  24.525  0.00  0.00    -0.283 OA
ATOM     10  C   UNL     1       9.728  -2.798  24.568  0.00  0.00    +0.092 A 
ATOM     11  C   UNL     1       6.921   0.371  24.282  0.00  0.00    +0.211 A 
ENDROOT
BRANCH   1  15
ATOM     12  C   UNL     1      10.447   4.317  23.677  0.00  0.00    +0.162 A 
ATOM     13  C   UNL     1      11.031   3.084  23.380  0.00  0.00    +0.050 A 
ATOM     14  C   UNL     1      10.351   1.882  23.609  0.00  0.00    +0.015 A 
ATOM     15  C   UNL     1       9.020   1.861  24.020  0.00  0.00    +0.025 A 
ATOM     16  C   UNL     1       8.448   3.118  24.357  0.00  0.00    +0.061 A 
ATOM     17  C   UNL     1       9.157   4.337  24.225  0.00  0.00    +0.162 A 
BRANCH  12  19
ATOM     18  C   UNL     1      12.657   5.105  23.134  0.00  0.00    +0.277 C 
ATOM     19  O   UNL     1      11.292   5.368  23.425  0.00  0.00    -0.491 OA
ENDBRANCH  12  19
BRANCH  17  20
ATOM     20  O   UNL     1       8.674   5.555  24.616  0.00  0.00    -0.491 OA
ATOM     21  C   UNL     1       8.779   5.965  25.968  0.00  0.00    +0.277 C 
ENDBRANCH  17  20
ENDBRANCH   1  15
BRANCH   5  22
ATOM     22  O   UNL     1       5.718  -3.834  24.824  0.00  0.00    -0.506 OA
ATOM     23  H   UNL     1       5.656  -4.777  24.529  0.00  0.00    +0.292 HD
ENDBRANCH   5  22
BRANCH   7  24
ATOM     24  O   UNL     1      10.291  -5.086  24.814  0.00  0.00    -0.507 OA
ATOM     25  H   UNL     1      10.435  -5.447  23.921  0.00  0.00    +0.292 HD
ENDBRANCH   7  24
BRANCH  11  26
ATOM     26  O   UNL     1       5.835   1.187  24.206  0.00  0.00    -0.488 OA
ATOM     27  C   UNL     1       5.156   1.939  25.176  0.00  0.00    +0.277 C 
ENDBRANCH  11  26
TORSDOF 6
ENDMDL
MODEL 9
REMARK VINA RESULT:      -6.2      2.604      2.823
REMARK  Name = 
REMARK  9 active torsions:
REMARK  status: ('A' for Active; 'I' for Inactive)
REMARK    1  A    between atoms: C_1  and  O_2
REMARK    2  A    between atoms: O_2  and  C_3
REMARK    3  A    between atoms: C_4  and  O_24
REMARK    4  A    between atoms: C_6  and  C_9
REMARK    5  A    between atoms: C_10  and  O_22
REMARK    6  A    between atoms: C_14  and  O_21
REMARK    7  A    between atoms: C_16  and  O_20
REMARK    8  A    between atoms: O_22  and  C_23
REMARK    9  A    between atoms: O_24  and  C_25
REMARK                            x       y       z     vdW  Elec       q    Type
REMARK                         _______ _______ _______ _____ _____    ______ ____
ROOT
ATOM      1  C   UNL     1       7.942  -0.567  24.496  0.00  0.00    +0.181 A 
ATOM      2  O   UNL     1       7.272  -1.345  25.463  0.00  0.00    -0.451 OA
ATOM      3  C   UNL     1       7.705  -2.606  25.767  0.00  0.00    +0.147 A 
ATOM      4  C   UNL     1       8.791  -3.193  25.147  0.00  0.00    +0.109 A 
ATOM      5  C   UNL     1       9.192  -4.496  25.478  0.00  0.00    +0.135 A 
ATOM      6  C   UNL     1       8.502  -5.223  26.441  0.00  0.00    +0.091 A 
ATOM      7  C   UNL     1       7.412  -4.631  27.069  0.00  0.00    +0.124 A 
ATOM      8  C   UNL     1       9.503  -2.413  24.149  0.00  0.00    +0.238 A 
ATOM      9  O   UNL     1      10.476  -2.931  23.597  0.00  0.00    -0.283 OA
ATOM     10  C   UNL     1       7.007  -3.334  26.745  0.00  0.00    +0.092 A 
ATOM     11  C   UNL     1       9.037  -1.027  23.820  0.00  0.00    +0.211 A 
ENDROOT
BRANCH   1  15
ATOM     12  C   UNL     1       6.020   3.348  24.286  0.00  0.00    +0.162 A 
ATOM     13  C   UNL     1       7.409   3.216  24.275  0.00  0.00    +0.050 A 
ATOM     14  C   UNL     1       8.024   1.964  24.398  0.00  0.00    +0.015 A 
ATOM     15  C   UNL     1       7.284   0.784  24.405  0.00  0.00    +0.025 A 
ATOM     16  C   UNL     1       5.871   0.930  24.455  0.00  0.00    +0.061 A 
ATOM     17  C   UNL     1       5.235   2.196  24.433  0.00  0.00    +0.162 A 
BRANCH  12  19
ATOM     18  C   UNL     1       5.735   5.491  25.347  0.00  0.00    +0.277 C 
ATOM     19  O   UNL     1       5.619   4.657  24.203  0.00  0.00    -0.491 OA
ENDBRANCH  12  19
BRANCH  17  20
ATOM     20  O   UNL     1       3.887   2.382  24.563  0.00  0.00    -0.491 OA
ATOM     21  C   UNL     1       3.313   2.580  25.844  0.00  0.00    +0.277 C 
ENDBRANCH  17  20
ENDBRANCH   1  15
BRANCH   5  22
ATOM     22  O   UNL     1      10.259  -5.123  24.891  0.00  0.00    -0.506 OA
ATOM     23  H   UNL     1      10.961  -4.443  24.729  0.00  0.00    +0.292 HD
ENDBRANCH   5  22
BRANCH   7  24
ATOM     24  O   UNL     1       6.709  -5.303  28.028  0.00  0.00    -0.507 OA
ATOM     25  H   UNL     1       6.876  -4.876  28.888  0.00  0.00    +0.292 HD
ENDBRANCH   7  24
BRANCH  11  26
ATOM     26  O   UNL     1       9.857  -0.502  22.870  0.00  0.00    -0.488 OA
ATOM     27  C   UNL     1       9.599   0.022  21.594  0.00  0.00    +0.277 C 
ENDBRANCH  11  26
TORSDOF 6
ENDMDL
