MODEL 1
REMARK VINA RESULT:      -6.9      0.000      0.000
REMARK  Name = 
REMARK  14 active torsions:
REMARK  status: ('A' for Active; 'I' for Inactive)
REMARK    1  A    between atoms: C_1  and  C_2
REMARK    2  A    between atoms: C_2  and  O_4
REMARK    3  A    between atoms: O_4  and  C_5
REMARK    4  A    between atoms: C_5  and  C_6
REMARK    5  A    between atoms: C_8  and  O_39
REMARK    6  A    between atoms: C_10  and  O_38
REMARK    7  A    between atoms: C_11  and  O_37
REMARK    8  A    between atoms: C_12  and  O_15
REMARK    9  A    between atoms: O_15  and  C_16
REMARK   10  A    between atoms: C_17  and  C_29
REMARK   11  A    between atoms: C_21  and  O_28
REMARK   12  A    between atoms: C_23  and  O_27
REMARK   13  A    between atoms: C_31  and  O_36
REMARK   14  A    between atoms: C_32  and  O_35
REMARK                            x       y       z     vdW  Elec       q    Type
REMARK                         _______ _______ _______ _____ _____    ______ ____
ROOT
ATOM      1  C   UNL     1       5.771  -1.896  23.926  0.00  0.00    +0.214 A 
ATOM      2  C   UNL     1       5.367  -3.200  23.296  0.00  0.00    +0.238 A 
ATOM      3  O   UNL     1       5.097  -3.306  22.110  0.00  0.00    -0.283 OA
ATOM      4  C   UNL     1       5.182  -4.374  24.125  0.00  0.00    +0.109 A 
ATOM      5  C   UNL     1       5.220  -4.194  25.500  0.00  0.00    +0.147 A 
ATOM      6  C   UNL     1       4.939  -5.292  26.325  0.00  0.00    +0.092 A 
ATOM      7  C   UNL     1       4.625  -6.532  25.754  0.00  0.00    +0.124 A 
ATOM      8  C   UNL     1       4.600  -6.710  24.377  0.00  0.00    +0.091 A 
ATOM      9  O   UNL     1       5.501  -2.983  26.082  0.00  0.00    -0.451 OA
ATOM     10  C   UNL     1       4.889  -5.632  23.560  0.00  0.00    +0.135 A 
ATOM     11  C   UNL     1       5.804  -1.858  25.291  0.00  0.00    +0.181 A 
ENDROOT
BRANCH  11  12
ATOM     12  C   UNL     1       6.129  -0.640  26.144  0.00  0.00    +0.025 A 
ATOM     13  C   UNL     1       5.390   0.558  26.064  0.00  0.00    +0.015 A 
ATOM     14  C   UNL     1       5.696   1.693  26.831  0.00  0.00    +0.050 A 
ATOM     15  C   UNL     1       6.721   1.638  27.750  0.00  0.00    +0.158 A 
ATOM     16  C   UNL     1       7.454   0.464  27.902  0.00  0.00    +0.159 A 
ATOM     17  C   UNL     1       7.183  -0.655  27.097  0.00  0.00    +0.060 A 
BRANCH  15  18
ATOM     18  O   UNL     1       6.970   2.731  28.526  0.00  0.00    -0.503 OA
ATOM     19  H   UNL     1       7.854   2.575  28.911  0.00  0.00    +0.292 HD
ENDBRANCH  15  18
BRANCH  16  20
ATOM     20  O   UNL     1       8.420   0.470  28.871  0.00  0.00    -0.503 OA
ATOM     21  H   UNL     1       8.195   1.150  29.529  0.00  0.00    +0.292 HD
ENDBRANCH  16  20
ENDBRANCH  11  12
BRANCH   7  22
ATOM     22  O   UNL     1       4.320  -7.628  26.496  0.00  0.00    -0.507 OA
ATOM     23  H   UNL     1       5.019  -7.770  27.154  0.00  0.00    +0.292 HD
ENDBRANCH   7  22
BRANCH  10  24
ATOM     24  O   UNL     1       4.885  -5.827  22.206  0.00  0.00    -0.506 OA
ATOM     25  H   UNL     1       4.766  -6.765  21.989  0.00  0.00    +0.292 HD
ENDBRANCH  10  24
BRANCH   1  26
ATOM     26  O   UNL     1       6.071  -0.791  23.102  0.00  0.00    -0.453 OA
BRANCH  26  29
ATOM     27  C   UNL     1       9.578  -1.660  22.852  0.00  0.00    +0.191 C 
ATOM     28  O   UNL     1       8.349  -1.335  23.542  0.00  0.00    -0.330 OA
ATOM     29  C   UNL     1       7.427  -0.717  22.621  0.00  0.00    +0.340 C 
ATOM     30  C   UNL     1       7.963   0.722  22.465  0.00  0.00    +0.214 C 
ATOM     31  C   UNL     1       9.337   0.590  21.755  0.00  0.00    +0.180 C 
ATOM     32  C   UNL     1      10.313  -0.353  22.507  0.00  0.00    +0.178 C 
BRANCH  30  33
ATOM     33  O   UNL     1       8.149   1.360  23.748  0.00  0.00    -0.383 OA
ATOM     34  H   UNL     1       8.864   0.874  24.202  0.00  0.00    +0.210 HD
ENDBRANCH  30  33
BRANCH  31  35
ATOM     35  O   UNL     1       9.934   1.872  21.556  0.00  0.00    -0.386 OA
ATOM     36  H   UNL     1      10.893   1.693  21.472  0.00  0.00    +0.210 HD
ENDBRANCH  31  35
BRANCH  32  37
ATOM     37  O   UNL     1      10.812   0.293  23.685  0.00  0.00    -0.386 OA
ATOM     38  H   UNL     1      10.415  -0.153  24.454  0.00  0.00    +0.210 HD
ENDBRANCH  32  37
BRANCH  27  39
ATOM     39  C   UNL     1      10.379  -2.647  23.700  0.00  0.00    +0.266 C 
BRANCH  39  40
ATOM     40  O   UNL     1       9.632  -2.970  24.885  0.00  0.00    -0.462 OA
BRANCH  40  42
ATOM     41  C   UNL     1       8.920  -4.655  26.342  0.00  0.00    +0.136 C 
ATOM     42  C   UNL     1       9.060  -4.200  24.920  0.00  0.00    +0.304 C 
ATOM     43  O   UNL     1       8.701  -4.858  23.953  0.00  0.00    -0.251 OA
ENDBRANCH  40  42
ENDBRANCH  39  40
ENDBRANCH  27  39
ENDBRANCH  26  29
ENDBRANCH   1  26
TORSDOF 13
ENDMDL
MODEL 2
REMARK VINA RESULT:      -6.9      2.108      5.760
REMARK  Name = 
REMARK  14 active torsions:
REMARK  status: ('A' for Active; 'I' for Inactive)
REMARK    1  A    between atoms: C_1  and  C_2
REMARK    2  A    between atoms: C_2  and  O_4
REMARK    3  A    between atoms: O_4  and  C_5
REMARK    4  A    between atoms: C_5  and  C_6
REMARK    5  A    between atoms: C_8  and  O_39
REMARK    6  A    between atoms: C_10  and  O_38
REMARK    7  A    between atoms: C_11  and  O_37
REMARK    8  A    between atoms: C_12  and  O_15
REMARK    9  A    between atoms: O_15  and  C_16
REMARK   10  A    between atoms: C_17  and  C_29
REMARK   11  A    between atoms: C_21  and  O_28
REMARK   12  A    between atoms: C_23  and  O_27
REMARK   13  A    between atoms: C_31  and  O_36
REMARK   14  A    between atoms: C_32  and  O_35
REMARK                            x       y       z     vdW  Elec       q    Type
REMARK                         _______ _______ _______ _____ _____    ______ ____
ROOT
ATOM      1  C   UNL     1       7.850  -2.039  25.453  0.00  0.00    +0.214 A 
ATOM      2  C   UNL     1       7.155  -3.363  25.619  0.00  0.00    +0.238 A 
ATOM      3  O   UNL     1       7.024  -3.910  26.703  0.00  0.00    -0.283 OA
ATOM      4  C   UNL     1       6.703  -4.090  24.450  0.00  0.00    +0.109 A 
ATOM      5  C   UNL     1       7.092  -3.606  23.209  0.00  0.00    +0.147 A 
ATOM      6  C   UNL     1       6.758  -4.349  22.069  0.00  0.00    +0.092 A 
ATOM      7  C   UNL     1       6.051  -5.552  22.201  0.00  0.00    +0.124 A 
ATOM      8  C   UNL     1       5.654  -6.026  23.444  0.00  0.00    +0.091 A 
ATOM      9  O   UNL     1       7.804  -2.443  23.057  0.00  0.00    -0.451 OA
ATOM     10  C   UNL     1       5.971  -5.289  24.571  0.00  0.00    +0.135 A 
ATOM     11  C   UNL     1       8.148  -1.659  24.175  0.00  0.00    +0.181 A 
ENDROOT
BRANCH  11  12
ATOM     12  C   UNL     1       8.892  -0.394  23.769  0.00  0.00    +0.025 A 
ATOM     13  C   UNL     1      10.194  -0.104  24.226  0.00  0.00    +0.015 A 
ATOM     14  C   UNL     1      10.879   1.069  23.875  0.00  0.00    +0.050 A 
ATOM     15  C   UNL     1      10.298   1.961  23.000  0.00  0.00    +0.158 A 
ATOM     16  C   UNL     1       9.031   1.701  22.484  0.00  0.00    +0.159 A 
ATOM     17  C   UNL     1       8.323   0.554  22.877  0.00  0.00    +0.060 A 
BRANCH  15  18
ATOM     18  O   UNL     1      11.000   3.069  22.626  0.00  0.00    -0.503 OA
ATOM     19  H   UNL     1      11.028   3.635  23.422  0.00  0.00    +0.292 HD
ENDBRANCH  15  18
BRANCH  16  20
ATOM     20  O   UNL     1       8.544   2.607  21.582  0.00  0.00    -0.503 OA
ATOM     21  H   UNL     1       8.758   2.299  20.685  0.00  0.00    +0.292 HD
ENDBRANCH  16  20
ENDBRANCH  11  12
BRANCH   7  22
ATOM     22  O   UNL     1       5.719  -6.330  21.139  0.00  0.00    -0.507 OA
ATOM     23  H   UNL     1       5.904  -7.258  21.357  0.00  0.00    +0.292 HD
ENDBRANCH   7  22
BRANCH  10  24
ATOM     24  O   UNL     1       5.553  -5.755  25.787  0.00  0.00    -0.506 OA
ATOM     25  H   UNL     1       6.274  -6.205  26.255  0.00  0.00    +0.292 HD
ENDBRANCH  10  24
BRANCH   1  26
ATOM     26  O   UNL     1       8.175  -1.278  26.595  0.00  0.00    -0.453 OA
BRANCH  26  29
ATOM     27  C   UNL     1       6.607   1.967  26.229  0.00  0.00    +0.191 C 
ATOM     28  O   UNL     1       7.718   1.042  26.306  0.00  0.00    -0.330 OA
ATOM     29  C   UNL     1       7.277  -0.195  26.904  0.00  0.00    +0.340 C 
ATOM     30  C   UNL     1       7.178   0.134  28.409  0.00  0.00    +0.214 C 
ATOM     31  C   UNL     1       6.030   1.169  28.544  0.00  0.00    +0.180 C 
ATOM     32  C   UNL     1       6.243   2.422  27.653  0.00  0.00    +0.178 C 
BRANCH  30  33
ATOM     33  O   UNL     1       8.404   0.712  28.907  0.00  0.00    -0.383 OA
ATOM     34  H   UNL     1       8.456   0.485  29.856  0.00  0.00    +0.210 HD
ENDBRANCH  30  33
BRANCH  31  35
ATOM     35  O   UNL     1       5.844   1.551  29.908  0.00  0.00    -0.386 OA
ATOM     36  H   UNL     1       6.158   2.477  29.955  0.00  0.00    +0.210 HD
ENDBRANCH  31  35
BRANCH  32  37
ATOM     37  O   UNL     1       7.267   3.255  28.214  0.00  0.00    -0.386 OA
ATOM     38  H   UNL     1       7.663   2.770  28.960  0.00  0.00    +0.210 HD
ENDBRANCH  32  37
BRANCH  27  39
ATOM     39  C   UNL     1       6.963   3.094  25.261  0.00  0.00    +0.266 C 
BRANCH  39  40
ATOM     40  O   UNL     1       8.315   3.518  25.503  0.00  0.00    -0.462 OA
BRANCH  40  42
ATOM     41  C   UNL     1       8.600   5.784  26.006  0.00  0.00    +0.136 C 
ATOM     42  C   UNL     1       8.679   4.709  24.964  0.00  0.00    +0.304 C 
ATOM     43  O   UNL     1       9.026   4.901  23.807  0.00  0.00    -0.251 OA
ENDBRANCH  40  42
ENDBRANCH  39  40
ENDBRANCH  27  39
ENDBRANCH  26  29
ENDBRANCH   1  26
TORSDOF 13
ENDMDL
MODEL 3
REMARK VINA RESULT:      -6.7      2.991      7.898
REMARK  Name = 
REMARK  14 active torsions:
REMARK  status: ('A' for Active; 'I' for Inactive)
REMARK    1  A    between atoms: C_1  and  C_2
REMARK    2  A    between atoms: C_2  and  O_4
REMARK    3  A    between atoms: O_4  and  C_5
REMARK    4  A    between atoms: C_5  and  C_6
REMARK    5  A    between atoms: C_8  and  O_39
REMARK    6  A    between atoms: C_10  and  O_38
REMARK    7  A    between atoms: C_11  and  O_37
REMARK    8  A    between atoms: C_12  and  O_15
REMARK    9  A    between atoms: O_15  and  C_16
REMARK   10  A    between atoms: C_17  and  C_29
REMARK   11  A    between atoms: C_21  and  O_28
REMARK   12  A    between atoms: C_23  and  O_27
REMARK   13  A    between atoms: C_31  and  O_36
REMARK   14  A    between atoms: C_32  and  O_35
REMARK                            x       y       z     vdW  Elec       q    Type
REMARK                         _______ _______ _______ _____ _____    ______ ____
ROOT
ATOM      1  C   UNL     1       7.712   2.277  23.570  0.00  0.00    +0.214 A 
ATOM      2  C   UNL     1       8.025   3.747  23.502  0.00  0.00    +0.238 A 
ATOM      3  O   UNL     1       7.173   4.596  23.289  0.00  0.00    -0.283 OA
ATOM      4  C   UNL     1       9.401   4.194  23.586  0.00  0.00    +0.109 A 
ATOM      5  C   UNL     1      10.389   3.222  23.552  0.00  0.00    +0.147 A 
ATOM      6  C   UNL     1      11.729   3.633  23.525  0.00  0.00    +0.092 A 
ATOM      7  C   UNL     1      12.041   4.999  23.529  0.00  0.00    +0.124 A 
ATOM      8  C   UNL     1      11.047   5.968  23.575  0.00  0.00    +0.091 A 
ATOM      9  O   UNL     1      10.108   1.879  23.524  0.00  0.00    -0.451 OA
ATOM     10  C   UNL     1       9.725   5.566  23.615  0.00  0.00    +0.135 A 
ATOM     11  C   UNL     1       8.776   1.422  23.564  0.00  0.00    +0.181 A 
ENDROOT
BRANCH  11  12
ATOM     12  C   UNL     1       8.702  -0.098  23.572  0.00  0.00    +0.025 A 
ATOM     13  C   UNL     1       8.736  -0.862  22.387  0.00  0.00    +0.015 A 
ATOM     14  C   UNL     1       8.647  -2.263  22.383  0.00  0.00    +0.050 A 
ATOM     15  C   UNL     1       8.581  -2.945  23.578  0.00  0.00    +0.158 A 
ATOM     16  C   UNL     1       8.588  -2.241  24.779  0.00  0.00    +0.159 A 
ATOM     17  C   UNL     1       8.624  -0.837  24.783  0.00  0.00    +0.060 A 
BRANCH  15  18
ATOM     18  O   UNL     1       8.549  -4.308  23.558  0.00  0.00    -0.503 OA
ATOM     19  H   UNL     1       7.676  -4.549  23.922  0.00  0.00    +0.292 HD
ENDBRANCH  15  18
BRANCH  16  20
ATOM     20  O   UNL     1       8.573  -2.991  25.924  0.00  0.00    -0.503 OA
ATOM     21  H   UNL     1       8.137  -2.479  26.626  0.00  0.00    +0.292 HD
ENDBRANCH  16  20
ENDBRANCH  11  12
BRANCH   7  22
ATOM     22  O   UNL     1      13.316   5.463  23.479  0.00  0.00    -0.507 OA
ATOM     23  H   UNL     1      13.898   4.755  23.159  0.00  0.00    +0.292 HD
ENDBRANCH   7  22
BRANCH  10  24
ATOM     24  O   UNL     1       8.757   6.531  23.685  0.00  0.00    -0.506 OA
ATOM     25  H   UNL     1       7.915   6.207  23.328  0.00  0.00    +0.292 HD
ENDBRANCH  10  24
BRANCH   1  26
ATOM     26  O   UNL     1       6.366   1.857  23.614  0.00  0.00    -0.453 OA
BRANCH  26  29
ATOM     27  C   UNL     1       5.162  -0.297  26.265  0.00  0.00    +0.191 C 
ATOM     28  O   UNL     1       5.234   0.211  24.912  0.00  0.00    -0.330 OA
ATOM     29  C   UNL     1       5.858   1.512  24.917  0.00  0.00    +0.340 C 
ATOM     30  C   UNL     1       4.750   2.454  25.433  0.00  0.00    +0.214 C 
ATOM     31  C   UNL     1       4.490   2.040  26.906  0.00  0.00    +0.180 C 
ATOM     32  C   UNL     1       4.137   0.536  27.053  0.00  0.00    +0.178 C 
BRANCH  30  33
ATOM     33  O   UNL     1       3.531   2.305  24.673  0.00  0.00    -0.383 OA
ATOM     34  H   UNL     1       2.827   2.756  25.180  0.00  0.00    +0.210 HD
ENDBRANCH  30  33
BRANCH  31  35
ATOM     35  O   UNL     1       3.473   2.853  27.493  0.00  0.00    -0.386 OA
ATOM     36  H   UNL     1       3.574   3.728  27.069  0.00  0.00    +0.210 HD
ENDBRANCH  31  35
BRANCH  32  37
ATOM     37  O   UNL     1       2.802   0.298  26.590  0.00  0.00    -0.386 OA
ATOM     38  H   UNL     1       2.708  -0.662  26.448  0.00  0.00    +0.210 HD
ENDBRANCH  32  37
BRANCH  27  39
ATOM     39  C   UNL     1       4.877  -1.798  26.219  0.00  0.00    +0.266 C 
BRANCH  39  40
ATOM     40  O   UNL     1       4.696  -2.205  24.852  0.00  0.00    -0.462 OA
BRANCH  40  42
ATOM     41  C   UNL     1       4.938  -3.690  23.062  0.00  0.00    +0.136 C 
ATOM     42  C   UNL     1       5.194  -3.421  24.515  0.00  0.00    +0.304 C 
ATOM     43  O   UNL     1       5.770  -4.199  25.264  0.00  0.00    -0.251 OA
ENDBRANCH  40  42
ENDBRANCH  39  40
ENDBRANCH  27  39
ENDBRANCH  26  29
ENDBRANCH   1  26
TORSDOF 13
ENDMDL
MODEL 4
REMARK VINA RESULT:      -6.6      1.944      5.236
REMARK  Name = 
REMARK  14 active torsions:
REMARK  status: ('A' for Active; 'I' for Inactive)
REMARK    1  A    between atoms: C_1  and  C_2
REMARK    2  A    between atoms: C_2  and  O_4
REMARK    3  A    between atoms: O_4  and  C_5
REMARK    4  A    between atoms: C_5  and  C_6
REMARK    5  A    between atoms: C_8  and  O_39
REMARK    6  A    between atoms: C_10  and  O_38
REMARK    7  A    between atoms: C_11  and  O_37
REMARK    8  A    between atoms: C_12  and  O_15
REMARK    9  A    between atoms: O_15  and  C_16
REMARK   10  A    between atoms: C_17  and  C_29
REMARK   11  A    between atoms: C_21  and  O_28
REMARK   12  A    between atoms: C_23  and  O_27
REMARK   13  A    between atoms: C_31  and  O_36
REMARK   14  A    between atoms: C_32  and  O_35
REMARK                            x       y       z     vdW  Elec       q    Type
REMARK                         _______ _______ _______ _____ _____    ______ ____
ROOT
ATOM      1  C   UNL     1       8.123  -2.178  25.360  0.00  0.00    +0.214 A 
ATOM      2  C   UNL     1       7.471  -3.528  25.477  0.00  0.00    +0.238 A 
ATOM      3  O   UNL     1       7.466  -4.172  26.515  0.00  0.00    -0.283 OA
ATOM      4  C   UNL     1       6.908  -4.161  24.301  0.00  0.00    +0.109 A 
ATOM      5  C   UNL     1       7.153  -3.559  23.076  0.00  0.00    +0.147 A 
ATOM      6  C   UNL     1       6.711  -4.206  21.914  0.00  0.00    +0.092 A 
ATOM      7  C   UNL     1       6.041  -5.434  22.010  0.00  0.00    +0.124 A 
ATOM      8  C   UNL     1       5.788  -6.026  23.241  0.00  0.00    +0.091 A 
ATOM      9  O   UNL     1       7.827  -2.369  22.956  0.00  0.00    -0.451 OA
ATOM     10  C   UNL     1       6.213  -5.384  24.390  0.00  0.00    +0.135 A 
ATOM     11  C   UNL     1       8.276  -1.678  24.098  0.00  0.00    +0.181 A 
ENDROOT
BRANCH  11  12
ATOM     12  C   UNL     1       8.952  -0.364  23.732  0.00  0.00    +0.025 A 
ATOM     13  C   UNL     1      10.173   0.043  24.307  0.00  0.00    +0.015 A 
ATOM     14  C   UNL     1      10.793   1.262  23.992  0.00  0.00    +0.050 A 
ATOM     15  C   UNL     1      10.232   2.085  23.040  0.00  0.00    +0.158 A 
ATOM     16  C   UNL     1       9.049   1.709  22.408  0.00  0.00    +0.159 A 
ATOM     17  C   UNL     1       8.401   0.515  22.761  0.00  0.00    +0.060 A 
BRANCH  15  18
ATOM     18  O   UNL     1      10.875   3.240  22.706  0.00  0.00    -0.503 OA
ATOM     19  H   UNL     1      10.317   3.956  23.065  0.00  0.00    +0.292 HD
ENDBRANCH  15  18
BRANCH  16  20
ATOM     20  O   UNL     1       8.584   2.553  21.437  0.00  0.00    -0.503 OA
ATOM     21  H   UNL     1       9.334   2.842  20.890  0.00  0.00    +0.292 HD
ENDBRANCH  16  20
ENDBRANCH  11  12
BRANCH   7  22
ATOM     22  O   UNL     1       5.610  -6.123  20.923  0.00  0.00    -0.507 OA
ATOM     23  H   UNL     1       5.179  -5.508  20.309  0.00  0.00    +0.292 HD
ENDBRANCH   7  22
BRANCH  10  24
ATOM     24  O   UNL     1       5.935  -5.966  25.596  0.00  0.00    -0.506 OA
ATOM     25  H   UNL     1       6.719  -5.977  26.167  0.00  0.00    +0.292 HD
ENDBRANCH  10  24
BRANCH   1  26
ATOM     26  O   UNL     1       8.556  -1.513  26.525  0.00  0.00    -0.453 OA
BRANCH  26  29
ATOM     27  C   UNL     1       5.193  -0.595  27.506  0.00  0.00    +0.191 C 
ATOM     28  O   UNL     1       6.277  -0.820  26.576  0.00  0.00    -0.330 OA
ATOM     29  C   UNL     1       7.530  -0.854  27.291  0.00  0.00    +0.340 C 
ATOM     30  C   UNL     1       7.824   0.630  27.598  0.00  0.00    +0.214 C 
ATOM     31  C   UNL     1       6.718   1.089  28.585  0.00  0.00    +0.180 C 
ATOM     32  C   UNL     1       5.287   0.846  28.038  0.00  0.00    +0.178 C 
BRANCH  30  33
ATOM     33  O   UNL     1       7.764   1.440  26.403  0.00  0.00    -0.383 OA
ATOM     34  H   UNL     1       6.868   1.325  26.031  0.00  0.00    +0.210 HD
ENDBRANCH  30  33
BRANCH  31  35
ATOM     35  O   UNL     1       6.891   2.461  28.943  0.00  0.00    -0.386 OA
ATOM     36  H   UNL     1       6.006   2.864  28.830  0.00  0.00    +0.210 HD
ENDBRANCH  31  35
BRANCH  32  37
ATOM     37  O   UNL     1       4.983   1.801  27.013  0.00  0.00    -0.386 OA
ATOM     38  H   UNL     1       4.024   1.971  27.045  0.00  0.00    +0.210 HD
ENDBRANCH  32  37
BRANCH  27  39
ATOM     39  C   UNL     1       3.871  -0.948  26.826  0.00  0.00    +0.266 C 
BRANCH  39  40
ATOM     40  O   UNL     1       4.118  -1.894  25.772  0.00  0.00    -0.462 OA
BRANCH  40  42
ATOM     41  C   UNL     1       2.901  -3.710  24.942  0.00  0.00    +0.136 C 
ATOM     42  C   UNL     1       3.788  -3.185  26.030  0.00  0.00    +0.304 C 
ATOM     43  O   UNL     1       4.149  -3.843  26.996  0.00  0.00    -0.251 OA
ENDBRANCH  40  42
ENDBRANCH  39  40
ENDBRANCH  27  39
ENDBRANCH  26  29
ENDBRANCH   1  26
TORSDOF 13
ENDMDL
MODEL 5
REMARK VINA RESULT:      -6.6      2.343      7.435
REMARK  Name = 
REMARK  14 active torsions:
REMARK  status: ('A' for Active; 'I' for Inactive)
REMARK    1  A    between atoms: C_1  and  C_2
REMARK    2  A    between atoms: C_2  and  O_4
REMARK    3  A    between atoms: O_4  and  C_5
REMARK    4  A    between atoms: C_5  and  C_6
REMARK    5  A    between atoms: C_8  and  O_39
REMARK    6  A    between atoms: C_10  and  O_38
REMARK    7  A    between atoms: C_11  and  O_37
REMARK    8  A    between atoms: C_12  and  O_15
REMARK    9  A    between atoms: O_15  and  C_16
REMARK   10  A    between atoms: C_17  and  C_29
REMARK   11  A    between atoms: C_21  and  O_28
REMARK   12  A    between atoms: C_23  and  O_27
REMARK   13  A    between atoms: C_31  and  O_36
REMARK   14  A    between atoms: C_32  and  O_35
REMARK                            x       y       z     vdW  Elec       q    Type
REMARK                         _______ _______ _______ _____ _____    ______ ____
ROOT
ATOM      1  C   UNL     1       6.506   0.232  24.380  0.00  0.00    +0.214 A 
ATOM      2  C   UNL     1       6.758   1.703  24.574  0.00  0.00    +0.238 A 
ATOM      3  O   UNL     1       5.882   2.485  24.907  0.00  0.00    -0.283 OA
ATOM      4  C   UNL     1       8.059   2.258  24.261  0.00  0.00    +0.109 A 
ATOM      5  C   UNL     1       8.969   1.426  23.625  0.00  0.00    +0.147 A 
ATOM      6  C   UNL     1      10.195   1.969  23.215  0.00  0.00    +0.092 A 
ATOM      7  C   UNL     1      10.474   3.322  23.449  0.00  0.00    +0.124 A 
ATOM      8  C   UNL     1       9.563   4.147  24.096  0.00  0.00    +0.091 A 
ATOM      9  O   UNL     1       8.710   0.104  23.365  0.00  0.00    -0.451 OA
ATOM     10  C   UNL     1       8.357   3.612  24.512  0.00  0.00    +0.135 A 
ATOM     11  C   UNL     1       7.497  -0.484  23.772  0.00  0.00    +0.181 A 
ENDROOT
BRANCH  11  12
ATOM     12  C   UNL     1       7.444  -1.965  23.424  0.00  0.00    +0.025 A 
ATOM     13  C   UNL     1       6.590  -2.477  22.425  0.00  0.00    +0.015 A 
ATOM     14  C   UNL     1       6.519  -3.843  22.112  0.00  0.00    +0.050 A 
ATOM     15  C   UNL     1       7.352  -4.733  22.754  0.00  0.00    +0.158 A 
ATOM     16  C   UNL     1       8.246  -4.274  23.718  0.00  0.00    +0.159 A 
ATOM     17  C   UNL     1       8.280  -2.915  24.070  0.00  0.00    +0.060 A 
BRANCH  15  18
ATOM     18  O   UNL     1       7.309  -6.049  22.400  0.00  0.00    -0.503 OA
ATOM     19  H   UNL     1       7.446  -6.058  21.433  0.00  0.00    +0.292 HD
ENDBRANCH  15  18
BRANCH  16  20
ATOM     20  O   UNL     1       9.076  -5.211  24.273  0.00  0.00    -0.503 OA
ATOM     21  H   UNL     1       9.816  -4.753  24.707  0.00  0.00    +0.292 HD
ENDBRANCH  16  20
ENDBRANCH  11  12
BRANCH   7  22
ATOM     22  O   UNL     1      11.630   3.914  23.055  0.00  0.00    -0.507 OA
ATOM     23  H   UNL     1      11.431   4.577  22.375  0.00  0.00    +0.292 HD
ENDBRANCH   7  22
BRANCH  10  24
ATOM     24  O   UNL     1       7.480   4.431  25.170  0.00  0.00    -0.506 OA
ATOM     25  H   UNL     1       6.707   4.628  24.619  0.00  0.00    +0.292 HD
ENDBRANCH  10  24
BRANCH   1  26
ATOM     26  O   UNL     1       5.282  -0.323  24.804  0.00  0.00    -0.453 OA
BRANCH  26  29
ATOM     27  C   UNL     1       5.869  -3.014  27.156  0.00  0.00    +0.191 C 
ATOM     28  O   UNL     1       5.388  -2.422  25.927  0.00  0.00    -0.330 OA
ATOM     29  C   UNL     1       5.303  -0.990  26.081  0.00  0.00    +0.340 C 
ATOM     30  C   UNL     1       4.027  -0.781  26.925  0.00  0.00    +0.214 C 
ATOM     31  C   UNL     1       4.331  -1.398  28.316  0.00  0.00    +0.180 C 
ATOM     32  C   UNL     1       4.776  -2.882  28.231  0.00  0.00    +0.178 C 
BRANCH  30  33
ATOM     33  O   UNL     1       2.890  -1.455  26.341  0.00  0.00    -0.383 OA
ATOM     34  H   UNL     1       2.939  -2.388  26.629  0.00  0.00    +0.210 HD
ENDBRANCH  30  33
BRANCH  31  35
ATOM     35  O   UNL     1       3.209  -1.262  29.190  0.00  0.00    -0.386 OA
ATOM     36  H   UNL     1       3.054  -2.161  29.543  0.00  0.00    +0.210 HD
ENDBRANCH  31  35
BRANCH  32  37
ATOM     37  O   UNL     1       3.649  -3.717  27.936  0.00  0.00    -0.386 OA
ATOM     38  H   UNL     1       3.984  -4.514  27.487  0.00  0.00    +0.210 HD
ENDBRANCH  32  37
BRANCH  27  39
ATOM     39  C   UNL     1       6.328  -4.444  26.874  0.00  0.00    +0.266 C 
BRANCH  39  40
ATOM     40  O   UNL     1       5.540  -4.993  25.805  0.00  0.00    -0.462 OA
BRANCH  40  42
ATOM     41  C   UNL     1       4.610  -6.790  24.632  0.00  0.00    +0.136 C 
ATOM     42  C   UNL     1       5.184  -6.297  25.926  0.00  0.00    +0.304 C 
ATOM     43  O   UNL     1       5.306  -6.988  26.928  0.00  0.00    -0.251 OA
ENDBRANCH  40  42
ENDBRANCH  39  40
ENDBRANCH  27  39
ENDBRANCH  26  29
ENDBRANCH   1  26
TORSDOF 13
ENDMDL
MODEL 6
REMARK VINA RESULT:      -6.6      1.909      6.269
REMARK  Name = 
REMARK  14 active torsions:
REMARK  status: ('A' for Active; 'I' for Inactive)
REMARK    1  A    between atoms: C_1  and  C_2
REMARK    2  A    between atoms: C_2  and  O_4
REMARK    3  A    between atoms: O_4  and  C_5
REMARK    4  A    between atoms: C_5  and  C_6
REMARK    5  A    between atoms: C_8  and  O_39
REMARK    6  A    between atoms: C_10  and  O_38
REMARK    7  A    between atoms: C_11  and  O_37
REMARK    8  A    between atoms: C_12  and  O_15
REMARK    9  A    between atoms: O_15  and  C_16
REMARK   10  A    between atoms: C_17  and  C_29
REMARK   11  A    between atoms: C_21  and  O_28
REMARK   12  A    between atoms: C_23  and  O_27
REMARK   13  A    between atoms: C_31  and  O_36
REMARK   14  A    between atoms: C_32  and  O_35
REMARK                            x       y       z     vdW  Elec       q    Type
REMARK                         _______ _______ _______ _____ _____    ______ ____
ROOT
ATOM      1  C   UNL     1       7.928  -1.905  25.992  0.00  0.00    +0.214 A 
ATOM      2  C   UNL     1       8.853  -2.053  24.815  0.00  0.00    +0.238 A 
ATOM      3  O   UNL     1       9.571  -3.028  24.658  0.00  0.00    -0.283 OA
ATOM      4  C   UNL     1       8.995  -0.965  23.869  0.00  0.00    +0.109 A 
ATOM      5  C   UNL     1       8.393   0.242  24.193  0.00  0.00    +0.147 A 
ATOM      6  C   UNL     1       8.603   1.341  23.347  0.00  0.00    +0.092 A 
ATOM      7  C   UNL     1       9.409   1.202  22.209  0.00  0.00    +0.124 A 
ATOM      8  C   UNL     1      10.000  -0.012  21.884  0.00  0.00    +0.091 A 
ATOM      9  O   UNL     1       7.619   0.408  25.314  0.00  0.00    -0.451 OA
ATOM     10  C   UNL     1       9.784  -1.101  22.709  0.00  0.00    +0.135 A 
ATOM     11  C   UNL     1       7.370  -0.673  26.182  0.00  0.00    +0.181 A 
ENDROOT
BRANCH  11  12
ATOM     12  C   UNL     1       6.452  -0.274  27.329  0.00  0.00    +0.025 A 
ATOM     13  C   UNL     1       6.802   0.719  28.267  0.00  0.00    +0.015 A 
ATOM     14  C   UNL     1       5.971   1.078  29.340  0.00  0.00    +0.050 A 
ATOM     15  C   UNL     1       4.732   0.490  29.468  0.00  0.00    +0.158 A 
ATOM     16  C   UNL     1       4.319  -0.466  28.543  0.00  0.00    +0.159 A 
ATOM     17  C   UNL     1       5.171  -0.864  27.500  0.00  0.00    +0.060 A 
BRANCH  15  18
ATOM     18  O   UNL     1       3.915   0.889  30.485  0.00  0.00    -0.503 OA
ATOM     19  H   UNL     1       3.309   1.541  30.084  0.00  0.00    +0.292 HD
ENDBRANCH  15  18
BRANCH  16  20
ATOM     20  O   UNL     1       3.055  -0.965  28.708  0.00  0.00    -0.503 OA
ATOM     21  H   UNL     1       2.793  -0.848  29.637  0.00  0.00    +0.292 HD
ENDBRANCH  16  20
ENDBRANCH  11  12
BRANCH   7  22
ATOM     22  O   UNL     1       9.672   2.231  21.364  0.00  0.00    -0.507 OA
ATOM     23  H   UNL     1      10.129   2.934  21.854  0.00  0.00    +0.292 HD
ENDBRANCH   7  22
BRANCH  10  24
ATOM     24  O   UNL     1      10.352  -2.296  22.363  0.00  0.00    -0.506 OA
ATOM     25  H   UNL     1       9.922  -2.674  21.580  0.00  0.00    +0.292 HD
ENDBRANCH  10  24
BRANCH   1  26
ATOM     26  O   UNL     1       7.699  -3.010  26.837  0.00  0.00    -0.453 OA
BRANCH  26  29
ATOM     27  C   UNL     1       5.413  -4.655  24.559  0.00  0.00    +0.191 C 
ATOM     28  O   UNL     1       5.841  -3.621  25.477  0.00  0.00    -0.330 OA
ATOM     29  C   UNL     1       6.954  -4.099  26.260  0.00  0.00    +0.340 C 
ATOM     30  C   UNL     1       6.305  -5.040  27.296  0.00  0.00    +0.214 C 
ATOM     31  C   UNL     1       5.736  -6.237  26.488  0.00  0.00    +0.180 C 
ATOM     32  C   UNL     1       4.762  -5.793  25.364  0.00  0.00    +0.178 C 
BRANCH  30  33
ATOM     33  O   UNL     1       5.228  -4.387  28.004  0.00  0.00    -0.383 OA
ATOM     34  H   UNL     1       4.839  -5.054  28.602  0.00  0.00    +0.210 HD
ENDBRANCH  30  33
BRANCH  31  35
ATOM     35  O   UNL     1       5.104  -7.182  27.352  0.00  0.00    -0.386 OA
ATOM     36  H   UNL     1       4.610  -7.779  26.755  0.00  0.00    +0.210 HD
ENDBRANCH  31  35
BRANCH  32  37
ATOM     37  O   UNL     1       3.511  -5.383  25.931  0.00  0.00    -0.386 OA
ATOM     38  H   UNL     1       3.171  -4.648  25.390  0.00  0.00    +0.210 HD
ENDBRANCH  32  37
BRANCH  27  39
ATOM     39  C   UNL     1       4.524  -4.031  23.486  0.00  0.00    +0.266 C 
BRANCH  39  40
ATOM     40  O   UNL     1       4.900  -4.548  22.198  0.00  0.00    -0.462 OA
BRANCH  40  42
ATOM     41  C   UNL     1       6.764  -5.684  21.361  0.00  0.00    +0.136 C 
ATOM     42  C   UNL     1       6.197  -4.380  21.836  0.00  0.00    +0.304 C 
ATOM     43  O   UNL     1       6.828  -3.334  21.879  0.00  0.00    -0.251 OA
ENDBRANCH  40  42
ENDBRANCH  39  40
ENDBRANCH  27  39
ENDBRANCH  26  29
ENDBRANCH   1  26
TORSDOF 13
ENDMDL
MODEL 7
REMARK VINA RESULT:      -6.5      2.374      7.613
REMARK  Name = 
REMARK  14 active torsions:
REMARK  status: ('A' for Active; 'I' for Inactive)
REMARK    1  A    between atoms: C_1  and  C_2
REMARK    2  A    between atoms: C_2  and  O_4
REMARK    3  A    between atoms: O_4  and  C_5
REMARK    4  A    between atoms: C_5  and  C_6
REMARK    5  A    between atoms: C_8  and  O_39
REMARK    6  A    between atoms: C_10  and  O_38
REMARK    7  A    between atoms: C_11  and  O_37
REMARK    8  A    between atoms: C_12  and  O_15
REMARK    9  A    between atoms: O_15  and  C_16
REMARK   10  A    between atoms: C_17  and  C_29
REMARK   11  A    between atoms: C_21  and  O_28
REMARK   12  A    between atoms: C_23  and  O_27
REMARK   13  A    between atoms: C_31  and  O_36
REMARK   14  A    between atoms: C_32  and  O_35
REMARK                            x       y       z     vdW  Elec       q    Type
REMARK                         _______ _______ _______ _____ _____    ______ ____
ROOT
ATOM      1  C   UNL     1       6.541   0.452  24.295  0.00  0.00    +0.214 A 
ATOM      2  C   UNL     1       6.799   1.923  24.480  0.00  0.00    +0.238 A 
ATOM      3  O   UNL     1       5.920   2.716  24.778  0.00  0.00    -0.283 OA
ATOM      4  C   UNL     1       8.114   2.464  24.199  0.00  0.00    +0.109 A 
ATOM      5  C   UNL     1       9.035   1.618  23.600  0.00  0.00    +0.147 A 
ATOM      6  C   UNL     1      10.277   2.146  23.220  0.00  0.00    +0.092 A 
ATOM      7  C   UNL     1      10.560   3.499  23.447  0.00  0.00    +0.124 A 
ATOM      8  C   UNL     1       9.637   4.339  24.058  0.00  0.00    +0.091 A 
ATOM      9  O   UNL     1       8.773   0.295  23.347  0.00  0.00    -0.451 OA
ATOM     10  C   UNL     1       8.416   3.818  24.444  0.00  0.00    +0.135 A 
ATOM     11  C   UNL     1       7.543  -0.279  23.724  0.00  0.00    +0.181 A 
ENDROOT
BRANCH  11  12
ATOM     12  C   UNL     1       7.489  -1.764  23.391  0.00  0.00    +0.025 A 
ATOM     13  C   UNL     1       8.251  -2.723  24.089  0.00  0.00    +0.015 A 
ATOM     14  C   UNL     1       8.223  -4.091  23.774  0.00  0.00    +0.050 A 
ATOM     15  C   UNL     1       7.380  -4.545  22.784  0.00  0.00    +0.158 A 
ATOM     16  C   UNL     1       6.572  -3.645  22.094  0.00  0.00    +0.159 A 
ATOM     17  C   UNL     1       6.638  -2.270  22.372  0.00  0.00    +0.060 A 
BRANCH  15  18
ATOM     18  O   UNL     1       7.325  -5.884  22.528  0.00  0.00    -0.503 OA
ATOM     19  H   UNL     1       6.648  -6.233  23.139  0.00  0.00    +0.292 HD
ENDBRANCH  15  18
BRANCH  16  20
ATOM     20  O   UNL     1       5.724  -4.179  21.162  0.00  0.00    -0.503 OA
ATOM     21  H   UNL     1       6.196  -4.874  20.674  0.00  0.00    +0.292 HD
ENDBRANCH  16  20
ENDBRANCH  11  12
BRANCH   7  22
ATOM     22  O   UNL     1      11.732   4.077  23.082  0.00  0.00    -0.507 OA
ATOM     23  H   UNL     1      12.136   4.495  23.860  0.00  0.00    +0.292 HD
ENDBRANCH   7  22
BRANCH  10  24
ATOM     24  O   UNL     1       7.526   4.651  25.067  0.00  0.00    -0.506 OA
ATOM     25  H   UNL     1       7.812   4.853  25.971  0.00  0.00    +0.292 HD
ENDBRANCH  10  24
BRANCH   1  26
ATOM     26  O   UNL     1       5.300  -0.089  24.689  0.00  0.00    -0.453 OA
BRANCH  26  29
ATOM     27  C   UNL     1       5.313  -3.260  26.439  0.00  0.00    +0.191 C 
ATOM     28  O   UNL     1       4.846  -2.294  25.469  0.00  0.00    -0.330 OA
ATOM     29  C   UNL     1       5.334  -0.982  25.818  0.00  0.00    +0.340 C 
ATOM     30  C   UNL     1       4.432  -0.549  26.994  0.00  0.00    +0.214 C 
ATOM     31  C   UNL     1       4.763  -1.514  28.163  0.00  0.00    +0.180 C 
ATOM     32  C   UNL     1       4.595  -3.007  27.776  0.00  0.00    +0.178 C 
BRANCH  30  33
ATOM     33  O   UNL     1       3.031  -0.669  26.658  0.00  0.00    -0.383 OA
ATOM     34  H   UNL     1       2.530  -0.287  27.405  0.00  0.00    +0.210 HD
ENDBRANCH  30  33
BRANCH  31  35
ATOM     35  O   UNL     1       3.980  -1.206  29.317  0.00  0.00    -0.386 OA
ATOM     36  H   UNL     1       3.052  -1.252  29.011  0.00  0.00    +0.210 HD
ENDBRANCH  31  35
BRANCH  32  37
ATOM     37  O   UNL     1       3.204  -3.340  27.693  0.00  0.00    -0.386 OA
ATOM     38  H   UNL     1       2.715  -2.515  27.520  0.00  0.00    +0.210 HD
ENDBRANCH  32  37
BRANCH  27  39
ATOM     39  C   UNL     1       5.138  -4.666  25.866  0.00  0.00    +0.266 C 
BRANCH  39  40
ATOM     40  O   UNL     1       3.875  -4.746  25.185  0.00  0.00    -0.462 OA
BRANCH  40  42
ATOM     41  C   UNL     1       4.451  -6.772  24.169  0.00  0.00    +0.136 C 
ATOM     42  C   UNL     1       3.871  -5.400  23.996  0.00  0.00    +0.304 C 
ATOM     43  O   UNL     1       3.460  -4.960  22.931  0.00  0.00    -0.251 OA
ENDBRANCH  40  42
ENDBRANCH  39  40
ENDBRANCH  27  39
ENDBRANCH  26  29
ENDBRANCH   1  26
TORSDOF 13
ENDMDL
MODEL 8
REMARK VINA RESULT:      -6.2      1.812      5.036
REMARK  Name = 
REMARK  14 active torsions:
REMARK  status: ('A' for Active; 'I' for Inactive)
REMARK    1  A    between atoms: C_1  and  C_2
REMARK    2  A    between atoms: C_2  and  O_4
REMARK    3  A    between atoms: O_4  and  C_5
REMARK    4  A    between atoms: C_5  and  C_6
REMARK    5  A    between atoms: C_8  and  O_39
REMARK    6  A    between atoms: C_10  and  O_38
REMARK    7  A    between atoms: C_11  and  O_37
REMARK    8  A    between atoms: C_12  and  O_15
REMARK    9  A    between atoms: O_15  and  C_16
REMARK   10  A    between atoms: C_17  and  C_29
REMARK   11  A    between atoms: C_21  and  O_28
REMARK   12  A    between atoms: C_23  and  O_27
REMARK   13  A    between atoms: C_31  and  O_36
REMARK   14  A    between atoms: C_32  and  O_35
REMARK                            x       y       z     vdW  Elec       q    Type
REMARK                         _______ _______ _______ _____ _____    ______ ____
ROOT
ATOM      1  C   UNL     1       6.442  -3.287  26.225  0.00  0.00    +0.214 A 
ATOM      2  C   UNL     1       5.559  -4.192  27.040  0.00  0.00    +0.238 A 
ATOM      3  O   UNL     1       5.515  -4.150  28.259  0.00  0.00    -0.283 OA
ATOM      4  C   UNL     1       4.797  -5.236  26.384  0.00  0.00    +0.109 A 
ATOM      5  C   UNL     1       5.055  -5.463  25.040  0.00  0.00    +0.147 A 
ATOM      6  C   UNL     1       4.410  -6.535  24.409  0.00  0.00    +0.092 A 
ATOM      7  C   UNL     1       3.532  -7.349  25.137  0.00  0.00    +0.124 A 
ATOM      8  C   UNL     1       3.269  -7.110  26.480  0.00  0.00    +0.091 A 
ATOM      9  O   UNL     1       5.928  -4.693  24.312  0.00  0.00    -0.451 OA
ATOM     10  C   UNL     1       3.895  -6.045  27.103  0.00  0.00    +0.135 A 
ATOM     11  C   UNL     1       6.586  -3.598  24.903  0.00  0.00    +0.181 A 
ENDROOT
BRANCH  11  12
ATOM     12  C   UNL     1       7.466  -2.862  23.902  0.00  0.00    +0.025 A 
ATOM     13  C   UNL     1       6.934  -2.015  22.908  0.00  0.00    +0.015 A 
ATOM     14  C   UNL     1       7.735  -1.350  21.967  0.00  0.00    +0.050 A 
ATOM     15  C   UNL     1       9.106  -1.468  22.035  0.00  0.00    +0.158 A 
ATOM     16  C   UNL     1       9.685  -2.257  23.026  0.00  0.00    +0.159 A 
ATOM     17  C   UNL     1       8.882  -2.966  23.934  0.00  0.00    +0.060 A 
BRANCH  15  18
ATOM     18  O   UNL     1       9.872  -0.772  21.148  0.00  0.00    -0.503 OA
ATOM     19  H   UNL     1      10.594  -1.381  20.901  0.00  0.00    +0.292 HD
ENDBRANCH  15  18
BRANCH  16  20
ATOM     20  O   UNL     1      11.053  -2.282  23.061  0.00  0.00    -0.503 OA
ATOM     21  H   UNL     1      11.387  -2.330  22.148  0.00  0.00    +0.292 HD
ENDBRANCH  16  20
ENDBRANCH  11  12
BRANCH   7  22
ATOM     22  O   UNL     1       2.895  -8.417  24.592  0.00  0.00    -0.507 OA
ATOM     23  H   UNL     1       3.557  -9.048  24.267  0.00  0.00    +0.292 HD
ENDBRANCH   7  22
BRANCH  10  24
ATOM     24  O   UNL     1       3.608  -5.807  28.419  0.00  0.00    -0.506 OA
ATOM     25  H   UNL     1       3.177  -6.575  28.827  0.00  0.00    +0.292 HD
ENDBRANCH  10  24
BRANCH   1  26
ATOM     26  O   UNL     1       7.081  -2.196  26.850  0.00  0.00    -0.453 OA
BRANCH  26  29
ATOM     27  C   UNL     1       6.975   0.976  25.104  0.00  0.00    +0.191 C 
ATOM     28  O   UNL     1       7.600  -0.100  25.844  0.00  0.00    -0.330 OA
ATOM     29  C   UNL     1       6.585  -0.891  26.497  0.00  0.00    +0.340 C 
ATOM     30  C   UNL     1       6.161  -0.028  27.705  0.00  0.00    +0.214 C 
ATOM     31  C   UNL     1       5.479   1.232  27.110  0.00  0.00    +0.180 C 
ATOM     32  C   UNL     1       6.387   1.988  26.104  0.00  0.00    +0.178 C 
BRANCH  30  33
ATOM     33  O   UNL     1       7.301   0.374  28.496  0.00  0.00    -0.383 OA
ATOM     34  H   UNL     1       7.871  -0.415  28.587  0.00  0.00    +0.210 HD
ENDBRANCH  30  33
BRANCH  31  35
ATOM     35  O   UNL     1       5.041   2.113  28.146  0.00  0.00    -0.386 OA
ATOM     36  H   UNL     1       5.158   1.605  28.974  0.00  0.00    +0.210 HD
ENDBRANCH  31  35
BRANCH  32  37
ATOM     37  O   UNL     1       7.421   2.690  26.805  0.00  0.00    -0.386 OA
ATOM     38  H   UNL     1       8.189   2.754  26.209  0.00  0.00    +0.210 HD
ENDBRANCH  32  37
BRANCH  27  39
ATOM     39  C   UNL     1       7.987   1.555  24.117  0.00  0.00    +0.266 C 
BRANCH  39  40
ATOM     40  O   UNL     1       9.253   1.722  24.778  0.00  0.00    -0.462 OA
BRANCH  40  42
ATOM     41  C   UNL     1      10.388   2.299  22.817  0.00  0.00    +0.136 C 
ATOM     42  C   UNL     1      10.358   1.438  24.044  0.00  0.00    +0.304 C 
ATOM     43  O   UNL     1      11.216   0.611  24.322  0.00  0.00    -0.251 OA
ENDBRANCH  40  42
ENDBRANCH  39  40
ENDBRANCH  27  39
ENDBRANCH  26  29
ENDBRANCH   1  26
TORSDOF 13
ENDMDL
MODEL 9
REMARK VINA RESULT:      -6.2      2.222      5.854
REMARK  Name = 
REMARK  14 active torsions:
REMARK  status: ('A' for Active; 'I' for Inactive)
REMARK    1  A    between atoms: C_1  and  C_2
REMARK    2  A    between atoms: C_2  and  O_4
REMARK    3  A    between atoms: O_4  and  C_5
REMARK    4  A    between atoms: C_5  and  C_6
REMARK    5  A    between atoms: C_8  and  O_39
REMARK    6  A    between atoms: C_10  and  O_38
REMARK    7  A    between atoms: C_11  and  O_37
REMARK    8  A    between atoms: C_12  and  O_15
REMARK    9  A    between atoms: O_15  and  C_16
REMARK   10  A    between atoms: C_17  and  C_29
REMARK   11  A    between atoms: C_21  and  O_28
REMARK   12  A    between atoms: C_23  and  O_27
REMARK   13  A    between atoms: C_31  and  O_36
REMARK   14  A    between atoms: C_32  and  O_35
REMARK                            x       y       z     vdW  Elec       q    Type
REMARK                         _______ _______ _______ _____ _____    ______ ____
ROOT
ATOM      1  C   UNL     1       7.182  -0.552  26.268  0.00  0.00    +0.214 A 
ATOM      2  C   UNL     1       6.025  -0.965  27.136  0.00  0.00    +0.238 A 
ATOM      3  O   UNL     1       6.009  -2.013  27.761  0.00  0.00    -0.283 OA
ATOM      4  C   UNL     1       4.823  -0.155  27.167  0.00  0.00    +0.109 A 
ATOM      5  C   UNL     1       4.733   0.884  26.252  0.00  0.00    +0.147 A 
ATOM      6  C   UNL     1       3.538   1.615  26.190  0.00  0.00    +0.092 A 
ATOM      7  C   UNL     1       2.472   1.286  27.038  0.00  0.00    +0.124 A 
ATOM      8  C   UNL     1       2.573   0.252  27.960  0.00  0.00    +0.091 A 
ATOM      9  O   UNL     1       5.754   1.209  25.396  0.00  0.00    -0.451 OA
ATOM     10  C   UNL     1       3.755  -0.463  28.033  0.00  0.00    +0.135 A 
ATOM     11  C   UNL     1       6.976   0.510  25.435  0.00  0.00    +0.181 A 
ENDROOT
BRANCH  11  12
ATOM     12  C   UNL     1       7.977   1.069  24.434  0.00  0.00    +0.025 A 
ATOM     13  C   UNL     1       9.116   1.799  24.832  0.00  0.00    +0.015 A 
ATOM     14  C   UNL     1      10.033   2.337  23.915  0.00  0.00    +0.050 A 
ATOM     15  C   UNL     1       9.865   2.104  22.568  0.00  0.00    +0.158 A 
ATOM     16  C   UNL     1       8.781   1.351  22.124  0.00  0.00    +0.159 A 
ATOM     17  C   UNL     1       7.834   0.858  23.036  0.00  0.00    +0.060 A 
BRANCH  15  18
ATOM     18  O   UNL     1      10.795   2.588  21.695  0.00  0.00    -0.503 OA
ATOM     19  H   UNL     1      11.559   2.838  22.249  0.00  0.00    +0.292 HD
ENDBRANCH  15  18
BRANCH  16  20
ATOM     20  O   UNL     1       8.713   1.119  20.777  0.00  0.00    -0.503 OA
ATOM     21  H   UNL     1       8.150   1.801  20.372  0.00  0.00    +0.292 HD
ENDBRANCH  16  20
ENDBRANCH  11  12
BRANCH   7  22
ATOM     22  O   UNL     1       1.282   1.938  27.011  0.00  0.00    -0.507 OA
ATOM     23  H   UNL     1       0.755   1.604  26.267  0.00  0.00    +0.292 HD
ENDBRANCH   7  22
BRANCH  10  24
ATOM     24  O   UNL     1       3.849  -1.463  28.962  0.00  0.00    -0.506 OA
ATOM     25  H   UNL     1       3.929  -2.330  28.536  0.00  0.00    +0.292 HD
ENDBRANCH  10  24
BRANCH   1  26
ATOM     26  O   UNL     1       8.392  -1.273  26.337  0.00  0.00    -0.453 OA
BRANCH  26  29
ATOM     27  C   UNL     1       7.601  -3.313  23.451  0.00  0.00    +0.191 C 
ATOM     28  O   UNL     1       7.311  -2.581  24.665  0.00  0.00    -0.330 OA
ATOM     29  C   UNL     1       8.534  -2.355  25.397  0.00  0.00    +0.340 C 
ATOM     30  C   UNL     1       8.837  -3.722  26.047  0.00  0.00    +0.214 C 
ATOM     31  C   UNL     1       9.149  -4.691  24.876  0.00  0.00    +0.180 C 
ATOM     32  C   UNL     1       8.010  -4.749  23.824  0.00  0.00    +0.178 C 
BRANCH  30  33
ATOM     33  O   UNL     1       7.701  -4.219  26.789  0.00  0.00    -0.383 OA
ATOM     34  H   UNL     1       7.781  -3.864  27.696  0.00  0.00    +0.210 HD
ENDBRANCH  30  33
BRANCH  31  35
ATOM     35  O   UNL     1       9.448  -6.000  25.362  0.00  0.00    -0.386 OA
ATOM     36  H   UNL     1      10.405  -6.118  25.198  0.00  0.00    +0.210 HD
ENDBRANCH  31  35
BRANCH  32  37
ATOM     37  O   UNL     1       6.899  -5.490  24.344  0.00  0.00    -0.386 OA
ATOM     38  H   UNL     1       6.265  -5.618  23.615  0.00  0.00    +0.210 HD
ENDBRANCH  32  37
BRANCH  27  39
ATOM     39  C   UNL     1       6.404  -3.206  22.507  0.00  0.00    +0.266 C 
BRANCH  39  40
ATOM     40  O   UNL     1       5.220  -2.927  23.273  0.00  0.00    -0.462 OA
BRANCH  40  42
ATOM     41  C   UNL     1       3.574  -3.760  24.710  0.00  0.00    +0.136 C 
ATOM     42  C   UNL     1       4.357  -3.960  23.447  0.00  0.00    +0.304 C 
ATOM     43  O   UNL     1       4.219  -4.919  22.700  0.00  0.00    -0.251 OA
ENDBRANCH  40  42
ENDBRANCH  39  40
ENDBRANCH  27  39
ENDBRANCH  26  29
ENDBRANCH   1  26
TORSDOF 13
ENDMDL
