MODEL 1
REMARK VINA RESULT:      -6.9      0.000      0.000
REMARK  Name = 
REMARK  23 active torsions:
REMARK  status: ('A' for Active; 'I' for Inactive)
REMARK    1  A    between atoms: C_1  and  C_2
REMARK    2  A    between atoms: C_3  and  O_62
REMARK    3  A    between atoms: C_5  and  O_61
REMARK    4  A    between atoms: C_7  and  O_60
REMARK    5  A    between atoms: C_8  and  O_11
REMARK    6  A    between atoms: O_11  and  C_12
REMARK    7  A    between atoms: C_12  and  C_13
REMARK    8  A    between atoms: C_14  and  O_59
REMARK    9  A    between atoms: C_16  and  O_58
REMARK   10  A    between atoms: C_17  and  O_57
REMARK   11  A    between atoms: C_18  and  O_21
REMARK   12  A    between atoms: O_21  and  C_22
REMARK   13  A    between atoms: C_23  and  C_49
REMARK   14  A    between atoms: C_27  and  O_34
REMARK   15  A    between atoms: C_29  and  O_33
REMARK   16  A    between atoms: O_34  and  C_35
REMARK   17  A    between atoms: C_37  and  O_48
REMARK   18  A    between atoms: C_38  and  O_47
REMARK   19  A    between atoms: C_40  and  O_46
REMARK   20  A    between atoms: C_42  and  C_44
REMARK   21  A    between atoms: C_44  and  O_45
REMARK   22  A    between atoms: C_51  and  O_56
REMARK   23  A    between atoms: C_52  and  O_55
REMARK                            x       y       z     vdW  Elec       q    Type
REMARK                         _______ _______ _______ _____ _____    ______ ____
ROOT
ATOM      1  C   UNL     1       6.920   1.530  25.833  0.00  0.00    +0.214 A 
ATOM      2  C   UNL     1       5.763   1.661  26.786  0.00  0.00    +0.238 A 
ATOM      3  O   UNL     1       5.396   2.767  27.172  0.00  0.00    -0.283 OA
ATOM      4  C   UNL     1       5.101   0.371  27.185  0.00  0.00    +0.109 A 
ATOM      5  C   UNL     1       5.272  -0.715  26.347  0.00  0.00    +0.147 A 
ATOM      6  C   UNL     1       4.717  -1.987  26.604  0.00  0.00    +0.093 A 
ATOM      7  C   UNL     1       3.986  -2.207  27.733  0.00  0.00    +0.131 A 
ATOM      8  C   UNL     1       3.795  -1.124  28.611  0.00  0.00    +0.092 A 
ATOM      9  O   UNL     1       6.027  -0.629  25.220  0.00  0.00    -0.451 OA
ATOM     10  C   UNL     1       4.325   0.148  28.329  0.00  0.00    +0.135 A 
ATOM     11  C   UNL     1       6.990   0.355  25.154  0.00  0.00    +0.181 A 
ENDROOT
BRANCH  11  12
ATOM     12  C   UNL     1       8.084  -0.074  24.256  0.00  0.00    +0.025 A 
ATOM     13  C   UNL     1       8.811  -1.235  24.529  0.00  0.00    +0.015 A 
ATOM     14  C   UNL     1       9.866  -1.635  23.712  0.00  0.00    +0.050 A 
ATOM     15  C   UNL     1      10.030  -1.027  22.474  0.00  0.00    +0.158 A 
ATOM     16  C   UNL     1       9.182   0.008  22.097  0.00  0.00    +0.159 A 
ATOM     17  C   UNL     1       8.278   0.541  23.005  0.00  0.00    +0.060 A 
BRANCH  16  18
ATOM     18  O   UNL     1       9.071   0.436  20.804  0.00  0.00    -0.503 OA
ATOM     19  H   UNL     1       8.131   0.417  20.570  0.00  0.00    +0.292 HD
ENDBRANCH  16  18
BRANCH  15  20
ATOM     20  O   UNL     1      10.950  -1.518  21.596  0.00  0.00    -0.503 OA
ATOM     21  H   UNL     1      11.556  -0.788  21.378  0.00  0.00    +0.292 HD
ENDBRANCH  15  20
ENDBRANCH  11  12
BRANCH  10  22
ATOM     22  O   UNL     1       4.100   1.175  29.203  0.00  0.00    -0.506 OA
ATOM     23  H   UNL     1       3.320   0.962  29.743  0.00  0.00    +0.292 HD
ENDBRANCH  10  22
BRANCH   7  24
ATOM     24  O   UNL     1       3.477  -3.454  28.149  0.00  0.00    -0.461 OA
BRANCH  24  25
ATOM     25  C   UNL     1       4.330  -4.186  29.050  0.00  0.00    +0.339 C 
ATOM     26  O   UNL     1       5.556  -4.547  28.414  0.00  0.00    -0.331 OA
ATOM     27  C   UNL     1       5.368  -5.497  27.351  0.00  0.00    +0.179 C 
ATOM     28  C   UNL     1       4.818  -6.840  27.883  0.00  0.00    +0.177 C 
ATOM     29  C   UNL     1       3.513  -6.612  28.670  0.00  0.00    +0.180 C 
ATOM     30  C   UNL     1       3.671  -5.449  29.665  0.00  0.00    +0.214 C 
BRANCH  29  31
ATOM     31  O   UNL     1       2.387  -6.427  27.806  0.00  0.00    -0.386 OA
ATOM     32  H   UNL     1       2.129  -5.493  27.779  0.00  0.00    +0.210 HD
ENDBRANCH  29  31
BRANCH  30  33
ATOM     33  O   UNL     1       2.454  -5.162  30.361  0.00  0.00    -0.383 OA
ATOM     34  H   UNL     1       2.241  -4.224  30.208  0.00  0.00    +0.210 HD
ENDBRANCH  30  33
BRANCH  28  35
ATOM     35  O   UNL     1       5.792  -7.463  28.725  0.00  0.00    -0.386 OA
ATOM     36  H   UNL     1       5.815  -6.986  29.574  0.00  0.00    +0.210 HD
ENDBRANCH  28  35
BRANCH  27  37
ATOM     37  C   UNL     1       6.713  -5.679  26.634  0.00  0.00    +0.190 C 
BRANCH  37  38
ATOM     38  O   UNL     1       7.795  -5.816  27.560  0.00  0.00    -0.392 OA
ATOM     39  H   UNL     1       8.613  -5.975  27.062  0.00  0.00    +0.210 HD
ENDBRANCH  37  38
ENDBRANCH  27  37
ENDBRANCH  24  25
ENDBRANCH   7  24
BRANCH   1  40
ATOM     40  O   UNL     1       7.787   2.577  25.554  0.00  0.00    -0.453 OA
BRANCH  40  43
ATOM     41  C   UNL     1       6.293   4.528  22.711  0.00  0.00    +0.179 C 
ATOM     42  O   UNL     1       6.475   3.516  23.726  0.00  0.00    -0.331 OA
ATOM     43  C   UNL     1       7.493   3.719  24.709  0.00  0.00    +0.340 C 
ATOM     44  C   UNL     1       8.821   4.358  24.210  0.00  0.00    +0.214 C 
ATOM     45  C   UNL     1       8.497   5.598  23.373  0.00  0.00    +0.180 C 
ATOM     46  C   UNL     1       7.621   5.157  22.191  0.00  0.00    +0.177 C 
BRANCH  46  47
ATOM     47  O   UNL     1       7.374   6.271  21.326  0.00  0.00    -0.386 OA
ATOM     48  H   UNL     1       6.532   6.109  20.865  0.00  0.00    +0.210 HD
ENDBRANCH  46  47
BRANCH  45  49
ATOM     49  O   UNL     1       9.707   6.228  22.928  0.00  0.00    -0.386 OA
ATOM     50  H   UNL     1       9.445   6.928  22.301  0.00  0.00    +0.210 HD
ENDBRANCH  45  49
BRANCH  44  51
ATOM     51  O   UNL     1       9.642   3.487  23.408  0.00  0.00    -0.383 OA
ATOM     52  H   UNL     1      10.475   3.957  23.182  0.00  0.00    +0.210 HD
ENDBRANCH  44  51
BRANCH  41  53
ATOM     53  C   UNL     1       5.248   5.640  23.056  0.00  0.00    +0.197 C 
BRANCH  53  54
ATOM     54  O   UNL     1       3.930   5.498  22.530  0.00  0.00    -0.346 OA
BRANCH  54  58
ATOM     55  C   UNL     1       1.433   5.785  26.053  0.00  0.00    +0.041 C 
ATOM     56  C   UNL     1       2.414   4.663  25.725  0.00  0.00    +0.149 C 
ATOM     57  O   UNL     1       3.310   5.074  24.680  0.00  0.00    -0.343 OA
ATOM     58  C   UNL     1       2.837   5.026  23.316  0.00  0.00    +0.282 C 
ATOM     59  C   UNL     1       2.369   3.581  23.025  0.00  0.00    +0.201 C 
ATOM     60  C   UNL     1       1.208   3.275  23.993  0.00  0.00    +0.179 C 
ATOM     61  C   UNL     1       1.691   3.332  25.449  0.00  0.00    +0.174 C 
BRANCH  61  62
ATOM     62  O   UNL     1       2.552   2.221  25.737  0.00  0.00    -0.387 OA
ATOM     63  H   UNL     1       2.465   1.593  24.987  0.00  0.00    +0.210 HD
ENDBRANCH  61  62
BRANCH  60  64
ATOM     64  O   UNL     1       0.591   2.019  23.690  0.00  0.00    -0.386 OA
ATOM     65  H   UNL     1       0.599   1.913  22.719  0.00  0.00    +0.210 HD
ENDBRANCH  60  64
BRANCH  59  66
ATOM     66  O   UNL     1       3.448   2.641  23.236  0.00  0.00    -0.384 OA
ATOM     67  H   UNL     1       4.094   3.082  23.824  0.00  0.00    +0.210 HD
ENDBRANCH  59  66
ENDBRANCH  54  58
ENDBRANCH  53  54
ENDBRANCH  41  53
ENDBRANCH  40  43
ENDBRANCH   1  40
TORSDOF 22
ENDMDL
MODEL 2
REMARK VINA RESULT:      -6.7      2.723      9.513
REMARK  Name = 
REMARK  23 active torsions:
REMARK  status: ('A' for Active; 'I' for Inactive)
REMARK    1  A    between atoms: C_1  and  C_2
REMARK    2  A    between atoms: C_3  and  O_62
REMARK    3  A    between atoms: C_5  and  O_61
REMARK    4  A    between atoms: C_7  and  O_60
REMARK    5  A    between atoms: C_8  and  O_11
REMARK    6  A    between atoms: O_11  and  C_12
REMARK    7  A    between atoms: C_12  and  C_13
REMARK    8  A    between atoms: C_14  and  O_59
REMARK    9  A    between atoms: C_16  and  O_58
REMARK   10  A    between atoms: C_17  and  O_57
REMARK   11  A    between atoms: C_18  and  O_21
REMARK   12  A    between atoms: O_21  and  C_22
REMARK   13  A    between atoms: C_23  and  C_49
REMARK   14  A    between atoms: C_27  and  O_34
REMARK   15  A    between atoms: C_29  and  O_33
REMARK   16  A    between atoms: O_34  and  C_35
REMARK   17  A    between atoms: C_37  and  O_48
REMARK   18  A    between atoms: C_38  and  O_47
REMARK   19  A    between atoms: C_40  and  O_46
REMARK   20  A    between atoms: C_42  and  C_44
REMARK   21  A    between atoms: C_44  and  O_45
REMARK   22  A    between atoms: C_51  and  O_56
REMARK   23  A    between atoms: C_52  and  O_55
REMARK                            x       y       z     vdW  Elec       q    Type
REMARK                         _______ _______ _______ _____ _____    ______ ____
ROOT
ATOM      1  C   UNL     1       5.244  -2.080  27.474  0.00  0.00    +0.214 A 
ATOM      2  C   UNL     1       4.364  -0.875  27.668  0.00  0.00    +0.238 A 
ATOM      3  O   UNL     1       3.412  -0.916  28.442  0.00  0.00    -0.283 OA
ATOM      4  C   UNL     1       4.756   0.348  26.885  0.00  0.00    +0.109 A 
ATOM      5  C   UNL     1       6.065   0.428  26.448  0.00  0.00    +0.147 A 
ATOM      6  C   UNL     1       6.566   1.512  25.696  0.00  0.00    +0.093 A 
ATOM      7  C   UNL     1       5.749   2.543  25.341  0.00  0.00    +0.131 A 
ATOM      8  C   UNL     1       4.408   2.492  25.765  0.00  0.00    +0.092 A 
ATOM      9  O   UNL     1       6.957  -0.567  26.696  0.00  0.00    -0.451 OA
ATOM     10  C   UNL     1       3.927   1.423  26.542  0.00  0.00    +0.135 A 
ATOM     11  C   UNL     1       6.470  -1.832  26.946  0.00  0.00    +0.181 A 
ENDROOT
BRANCH  11  12
ATOM     12  C   UNL     1       7.472  -2.844  26.545  0.00  0.00    +0.025 A 
ATOM     13  C   UNL     1       7.310  -4.184  26.905  0.00  0.00    +0.015 A 
ATOM     14  C   UNL     1       8.260  -5.143  26.564  0.00  0.00    +0.050 A 
ATOM     15  C   UNL     1       9.241  -4.822  25.636  0.00  0.00    +0.158 A 
ATOM     16  C   UNL     1       9.298  -3.536  25.110  0.00  0.00    +0.159 A 
ATOM     17  C   UNL     1       8.485  -2.533  25.619  0.00  0.00    +0.060 A 
BRANCH  16  18
ATOM     18  O   UNL     1      10.011  -3.231  23.985  0.00  0.00    -0.503 OA
ATOM     19  H   UNL     1       9.447  -2.678  23.423  0.00  0.00    +0.292 HD
ENDBRANCH  16  18
BRANCH  15  20
ATOM     20  O   UNL     1      10.073  -5.795  25.167  0.00  0.00    -0.503 OA
ATOM     21  H   UNL     1      10.916  -5.707  25.646  0.00  0.00    +0.292 HD
ENDBRANCH  15  20
ENDBRANCH  11  12
BRANCH  10  22
ATOM     22  O   UNL     1       2.621   1.424  26.946  0.00  0.00    -0.506 OA
ATOM     23  H   UNL     1       2.215   0.576  26.698  0.00  0.00    +0.292 HD
ENDBRANCH  10  22
BRANCH   7  24
ATOM     24  O   UNL     1       6.105   3.619  24.503  0.00  0.00    -0.461 OA
BRANCH  24  25
ATOM     25  C   UNL     1       7.429   3.538  23.942  0.00  0.00    +0.339 C 
ATOM     26  O   UNL     1       8.354   4.317  24.700  0.00  0.00    -0.331 OA
ATOM     27  C   UNL     1       8.087   5.728  24.616  0.00  0.00    +0.179 C 
ATOM     28  C   UNL     1       8.258   6.251  23.172  0.00  0.00    +0.177 C 
ATOM     29  C   UNL     1       7.366   5.453  22.202  0.00  0.00    +0.180 C 
ATOM     30  C   UNL     1       7.512   3.940  22.446  0.00  0.00    +0.214 C 
BRANCH  29  31
ATOM     31  O   UNL     1       5.999   5.873  22.255  0.00  0.00    -0.386 OA
ATOM     32  H   UNL     1       5.562   5.715  21.404  0.00  0.00    +0.210 HD
ENDBRANCH  29  31
BRANCH  30  33
ATOM     33  O   UNL     1       6.642   3.170  21.611  0.00  0.00    -0.383 OA
ATOM     34  H   UNL     1       6.083   3.794  21.114  0.00  0.00    +0.210 HD
ENDBRANCH  30  33
BRANCH  28  35
ATOM     35  O   UNL     1       9.628   6.144  22.777  0.00  0.00    -0.386 OA
ATOM     36  H   UNL     1       9.986   7.042  22.661  0.00  0.00    +0.210 HD
ENDBRANCH  28  35
BRANCH  27  37
ATOM     37  C   UNL     1       9.025   6.448  25.596  0.00  0.00    +0.190 C 
BRANCH  37  38
ATOM     38  O   UNL     1       8.787   6.050  26.949  0.00  0.00    -0.392 OA
ATOM     39  H   UNL     1       8.102   6.624  27.327  0.00  0.00    +0.210 HD
ENDBRANCH  37  38
ENDBRANCH  27  37
ENDBRANCH  24  25
ENDBRANCH   7  24
BRANCH   1  40
ATOM     40  O   UNL     1       4.893  -3.347  27.924  0.00  0.00    -0.453 OA
BRANCH  40  43
ATOM     41  C   UNL     1       1.943  -4.602  25.964  0.00  0.00    +0.179 C 
ATOM     42  O   UNL     1       2.955  -3.717  26.492  0.00  0.00    -0.331 OA
ATOM     43  C   UNL     1       4.042  -4.289  27.224  0.00  0.00    +0.340 C 
ATOM     44  C   UNL     1       3.694  -5.479  28.163  0.00  0.00    +0.214 C 
ATOM     45  C   UNL     1       2.847  -6.495  27.392  0.00  0.00    +0.180 C 
ATOM     46  C   UNL     1       1.574  -5.786  26.910  0.00  0.00    +0.177 C 
BRANCH  46  47
ATOM     47  O   UNL     1       0.707  -6.725  26.266  0.00  0.00    -0.386 OA
ATOM     48  H   UNL     1       0.601  -7.489  26.860  0.00  0.00    +0.210 HD
ENDBRANCH  46  47
BRANCH  45  49
ATOM     49  O   UNL     1       2.541  -7.623  28.226  0.00  0.00    -0.386 OA
ATOM     50  H   UNL     1       3.090  -7.537  29.028  0.00  0.00    +0.210 HD
ENDBRANCH  45  49
BRANCH  44  51
ATOM     51  O   UNL     1       2.966  -5.113  29.352  0.00  0.00    -0.383 OA
ATOM     52  H   UNL     1       3.166  -4.175  29.569  0.00  0.00    +0.210 HD
ENDBRANCH  44  51
BRANCH  41  53
ATOM     53  C   UNL     1       2.197  -5.113  24.507  0.00  0.00    +0.197 C 
BRANCH  53  54
ATOM     54  O   UNL     1       3.397  -5.843  24.261  0.00  0.00    -0.346 OA
BRANCH  54  58
ATOM     55  C   UNL     1       5.684  -2.250  23.492  0.00  0.00    +0.041 C 
ATOM     56  C   UNL     1       5.262  -3.295  22.463  0.00  0.00    +0.149 C 
ATOM     57  O   UNL     1       4.232  -4.139  23.002  0.00  0.00    -0.343 OA
ATOM     58  C   UNL     1       4.620  -5.207  23.893  0.00  0.00    +0.282 C 
ATOM     59  C   UNL     1       5.647  -6.096  23.151  0.00  0.00    +0.201 C 
ATOM     60  C   UNL     1       6.869  -5.209  22.833  0.00  0.00    +0.179 C 
ATOM     61  C   UNL     1       6.471  -4.060  21.895  0.00  0.00    +0.174 C 
BRANCH  61  62
ATOM     62  O   UNL     1       6.180  -4.561  20.582  0.00  0.00    -0.387 OA
ATOM     63  H   UNL     1       6.238  -5.540  20.632  0.00  0.00    +0.210 HD
ENDBRANCH  61  62
BRANCH  60  64
ATOM     64  O   UNL     1       7.948  -5.980  22.295  0.00  0.00    -0.386 OA
ATOM     65  H   UNL     1       8.782  -5.554  22.571  0.00  0.00    +0.210 HD
ENDBRANCH  60  64
BRANCH  59  66
ATOM     66  O   UNL     1       5.083  -6.616  21.925  0.00  0.00    -0.384 OA
ATOM     67  H   UNL     1       5.807  -7.077  21.455  0.00  0.00    +0.210 HD
ENDBRANCH  59  66
ENDBRANCH  54  58
ENDBRANCH  53  54
ENDBRANCH  41  53
ENDBRANCH  40  43
ENDBRANCH   1  40
TORSDOF 22
ENDMDL
MODEL 3
REMARK VINA RESULT:      -6.7      2.238      5.612
REMARK  Name = 
REMARK  23 active torsions:
REMARK  status: ('A' for Active; 'I' for Inactive)
REMARK    1  A    between atoms: C_1  and  C_2
REMARK    2  A    between atoms: C_3  and  O_62
REMARK    3  A    between atoms: C_5  and  O_61
REMARK    4  A    between atoms: C_7  and  O_60
REMARK    5  A    between atoms: C_8  and  O_11
REMARK    6  A    between atoms: O_11  and  C_12
REMARK    7  A    between atoms: C_12  and  C_13
REMARK    8  A    between atoms: C_14  and  O_59
REMARK    9  A    between atoms: C_16  and  O_58
REMARK   10  A    between atoms: C_17  and  O_57
REMARK   11  A    between atoms: C_18  and  O_21
REMARK   12  A    between atoms: O_21  and  C_22
REMARK   13  A    between atoms: C_23  and  C_49
REMARK   14  A    between atoms: C_27  and  O_34
REMARK   15  A    between atoms: C_29  and  O_33
REMARK   16  A    between atoms: O_34  and  C_35
REMARK   17  A    between atoms: C_37  and  O_48
REMARK   18  A    between atoms: C_38  and  O_47
REMARK   19  A    between atoms: C_40  and  O_46
REMARK   20  A    between atoms: C_42  and  C_44
REMARK   21  A    between atoms: C_44  and  O_45
REMARK   22  A    between atoms: C_51  and  O_56
REMARK   23  A    between atoms: C_52  and  O_55
REMARK                            x       y       z     vdW  Elec       q    Type
REMARK                         _______ _______ _______ _____ _____    ______ ____
ROOT
ATOM      1  C   UNL     1       5.805   2.333  25.852  0.00  0.00    +0.214 A 
ATOM      2  C   UNL     1       6.645   1.348  26.619  0.00  0.00    +0.238 A 
ATOM      3  O   UNL     1       7.635   1.724  27.239  0.00  0.00    -0.283 OA
ATOM      4  C   UNL     1       6.165  -0.077  26.587  0.00  0.00    +0.109 A 
ATOM      5  C   UNL     1       4.833  -0.291  26.284  0.00  0.00    +0.147 A 
ATOM      6  C   UNL     1       4.253  -1.576  26.209  0.00  0.00    +0.093 A 
ATOM      7  C   UNL     1       5.009  -2.689  26.418  0.00  0.00    +0.131 A 
ATOM      8  C   UNL     1       6.371  -2.509  26.724  0.00  0.00    +0.092 A 
ATOM      9  O   UNL     1       3.996   0.742  26.004  0.00  0.00    -0.451 OA
ATOM     10  C   UNL     1       6.932  -1.223  26.829  0.00  0.00    +0.135 A 
ATOM     11  C   UNL     1       4.545   1.924  25.555  0.00  0.00    +0.181 A 
ENDROOT
BRANCH  11  12
ATOM     12  C   UNL     1       3.565   2.644  24.713  0.00  0.00    +0.025 A 
ATOM     13  C   UNL     1       2.395   3.163  25.272  0.00  0.00    +0.015 A 
ATOM     14  C   UNL     1       1.447   3.815  24.488  0.00  0.00    +0.050 A 
ATOM     15  C   UNL     1       1.783   4.187  23.192  0.00  0.00    +0.158 A 
ATOM     16  C   UNL     1       3.030   3.851  22.680  0.00  0.00    +0.159 A 
ATOM     17  C   UNL     1       3.880   3.015  23.393  0.00  0.00    +0.060 A 
BRANCH  16  18
ATOM     18  O   UNL     1       3.550   4.437  21.561  0.00  0.00    -0.503 OA
ATOM     19  H   UNL     1       3.224   5.350  21.531  0.00  0.00    +0.292 HD
ENDBRANCH  16  18
BRANCH  15  20
ATOM     20  O   UNL     1       0.931   4.970  22.471  0.00  0.00    -0.503 OA
ATOM     21  H   UNL     1       0.053   4.895  22.886  0.00  0.00    +0.292 HD
ENDBRANCH  15  20
ENDBRANCH  11  12
BRANCH  10  22
ATOM     22  O   UNL     1       8.256  -1.095  27.146  0.00  0.00    -0.506 OA
ATOM     23  H   UNL     1       8.371  -0.304  27.699  0.00  0.00    +0.292 HD
ENDBRANCH  10  22
BRANCH   7  24
ATOM     24  O   UNL     1       4.569  -4.019  26.263  0.00  0.00    -0.461 OA
BRANCH  24  25
ATOM     25  C   UNL     1       5.551  -4.924  25.725  0.00  0.00    +0.339 C 
ATOM     26  O   UNL     1       6.038  -4.461  24.465  0.00  0.00    -0.331 OA
ATOM     27  C   UNL     1       5.029  -4.482  23.441  0.00  0.00    +0.179 C 
ATOM     28  C   UNL     1       4.552  -5.922  23.146  0.00  0.00    +0.177 C 
ATOM     29  C   UNL     1       4.055  -6.599  24.438  0.00  0.00    +0.180 C 
ATOM     30  C   UNL     1       5.060  -6.389  25.586  0.00  0.00    +0.214 C 
BRANCH  29  31
ATOM     31  O   UNL     1       2.737  -6.174  24.798  0.00  0.00    -0.386 OA
ATOM     32  H   UNL     1       2.729  -5.814  25.698  0.00  0.00    +0.210 HD
ENDBRANCH  29  31
BRANCH  30  33
ATOM     33  O   UNL     1       4.594  -6.942  26.821  0.00  0.00    -0.383 OA
ATOM     34  H   UNL     1       4.365  -7.875  26.657  0.00  0.00    +0.210 HD
ENDBRANCH  30  33
BRANCH  28  35
ATOM     35  O   UNL     1       5.624  -6.680  22.579  0.00  0.00    -0.386 OA
ATOM     36  H   UNL     1       6.304  -6.061  22.260  0.00  0.00    +0.210 HD
ENDBRANCH  28  35
BRANCH  27  37
ATOM     37  C   UNL     1       5.608  -3.808  22.189  0.00  0.00    +0.190 C 
BRANCH  37  38
ATOM     38  O   UNL     1       6.998  -4.102  22.023  0.00  0.00    -0.392 OA
ATOM     39  H   UNL     1       7.195  -4.152  21.074  0.00  0.00    +0.210 HD
ENDBRANCH  37  38
ENDBRANCH  27  37
ENDBRANCH  24  25
ENDBRANCH   7  24
BRANCH   1  40
ATOM     40  O   UNL     1       6.228   3.627  25.576  0.00  0.00    -0.453 OA
BRANCH  40  43
ATOM     41  C   UNL     1       9.657   4.794  24.577  0.00  0.00    +0.179 C 
ATOM     42  O   UNL     1       8.584   4.211  25.348  0.00  0.00    -0.331 OA
ATOM     43  C   UNL     1       7.327   3.992  24.703  0.00  0.00    +0.340 C 
ATOM     44  C   UNL     1       6.861   5.089  23.704  0.00  0.00    +0.214 C 
ATOM     45  C   UNL     1       8.011   5.419  22.749  0.00  0.00    +0.180 C 
ATOM     46  C   UNL     1       9.199   5.910  23.588  0.00  0.00    +0.177 C 
BRANCH  46  47
ATOM     47  O   UNL     1      10.266   6.322  22.728  0.00  0.00    -0.386 OA
ATOM     48  H   UNL     1      10.828   5.546  22.557  0.00  0.00    +0.210 HD
ENDBRANCH  46  47
BRANCH  45  49
ATOM     49  O   UNL     1       7.596   6.406  21.793  0.00  0.00    -0.386 OA
ATOM     50  H   UNL     1       6.740   6.106  21.433  0.00  0.00    +0.210 HD
ENDBRANCH  45  49
BRANCH  44  51
ATOM     51  O   UNL     1       6.433   6.320  24.320  0.00  0.00    -0.383 OA
ATOM     52  H   UNL     1       6.021   6.113  25.188  0.00  0.00    +0.210 HD
ENDBRANCH  44  51
BRANCH  41  53
ATOM     53  C   UNL     1      10.598   3.770  23.861  0.00  0.00    +0.197 C 
BRANCH  53  54
ATOM     54  O   UNL     1      10.388   2.383  24.121  0.00  0.00    -0.346 OA
BRANCH  54  58
ATOM     55  C   UNL     1       6.724   1.202  22.143  0.00  0.00    +0.041 C 
ATOM     56  C   UNL     1       7.487   0.401  23.193  0.00  0.00    +0.149 C 
ATOM     57  O   UNL     1       8.433   1.241  23.873  0.00  0.00    -0.343 OA
ATOM     58  C   UNL     1       9.686   1.531  23.217  0.00  0.00    +0.282 C 
ATOM     59  C   UNL     1      10.373   0.185  22.886  0.00  0.00    +0.201 C 
ATOM     60  C   UNL     1       9.441  -0.576  21.922  0.00  0.00    +0.179 C 
ATOM     61  C   UNL     1       8.098  -0.883  22.600  0.00  0.00    +0.174 C 
BRANCH  61  62
ATOM     62  O   UNL     1       8.265  -1.879  23.619  0.00  0.00    -0.387 OA
ATOM     63  H   UNL     1       9.134  -1.707  24.044  0.00  0.00    +0.210 HD
ENDBRANCH  61  62
BRANCH  60  64
ATOM     64  O   UNL     1      10.063  -1.765  21.421  0.00  0.00    -0.386 OA
ATOM     65  H   UNL     1      10.640  -2.115  22.127  0.00  0.00    +0.210 HD
ENDBRANCH  60  64
BRANCH  59  66
ATOM     66  O   UNL     1      10.580  -0.593  24.088  0.00  0.00    -0.384 OA
ATOM     67  H   UNL     1      11.401  -0.258  24.503  0.00  0.00    +0.210 HD
ENDBRANCH  59  66
ENDBRANCH  54  58
ENDBRANCH  53  54
ENDBRANCH  41  53
ENDBRANCH  40  43
ENDBRANCH   1  40
TORSDOF 22
ENDMDL
MODEL 4
REMARK VINA RESULT:      -6.6      2.811      9.782
REMARK  Name = 
REMARK  23 active torsions:
REMARK  status: ('A' for Active; 'I' for Inactive)
REMARK    1  A    between atoms: C_1  and  C_2
REMARK    2  A    between atoms: C_3  and  O_62
REMARK    3  A    between atoms: C_5  and  O_61
REMARK    4  A    between atoms: C_7  and  O_60
REMARK    5  A    between atoms: C_8  and  O_11
REMARK    6  A    between atoms: O_11  and  C_12
REMARK    7  A    between atoms: C_12  and  C_13
REMARK    8  A    between atoms: C_14  and  O_59
REMARK    9  A    between atoms: C_16  and  O_58
REMARK   10  A    between atoms: C_17  and  O_57
REMARK   11  A    between atoms: C_18  and  O_21
REMARK   12  A    between atoms: O_21  and  C_22
REMARK   13  A    between atoms: C_23  and  C_49
REMARK   14  A    between atoms: C_27  and  O_34
REMARK   15  A    between atoms: C_29  and  O_33
REMARK   16  A    between atoms: O_34  and  C_35
REMARK   17  A    between atoms: C_37  and  O_48
REMARK   18  A    between atoms: C_38  and  O_47
REMARK   19  A    between atoms: C_40  and  O_46
REMARK   20  A    between atoms: C_42  and  C_44
REMARK   21  A    between atoms: C_44  and  O_45
REMARK   22  A    between atoms: C_51  and  O_56
REMARK   23  A    between atoms: C_52  and  O_55
REMARK                            x       y       z     vdW  Elec       q    Type
REMARK                         _______ _______ _______ _____ _____    ______ ____
ROOT
ATOM      1  C   UNL     1       7.386  -2.403  25.539  0.00  0.00    +0.214 A 
ATOM      2  C   UNL     1       7.758  -1.140  26.267  0.00  0.00    +0.238 A 
ATOM      3  O   UNL     1       8.322  -1.192  27.356  0.00  0.00    -0.283 OA
ATOM      4  C   UNL     1       7.422   0.142  25.557  0.00  0.00    +0.109 A 
ATOM      5  C   UNL     1       7.247   0.081  24.187  0.00  0.00    +0.147 A 
ATOM      6  C   UNL     1       6.919   1.205  23.398  0.00  0.00    +0.093 A 
ATOM      7  C   UNL     1       6.734   2.425  23.974  0.00  0.00    +0.131 A 
ATOM      8  C   UNL     1       6.900   2.523  25.369  0.00  0.00    +0.092 A 
ATOM      9  O   UNL     1       7.353  -1.092  23.511  0.00  0.00    -0.451 OA
ATOM     10  C   UNL     1       7.260   1.404  26.142  0.00  0.00    +0.135 A 
ATOM     11  C   UNL     1       7.158  -2.266  24.207  0.00  0.00    +0.181 A 
ENDROOT
BRANCH  11  12
ATOM     12  C   UNL     1       6.663  -3.316  23.290  0.00  0.00    +0.025 A 
ATOM     13  C   UNL     1       7.549  -4.227  22.710  0.00  0.00    +0.015 A 
ATOM     14  C   UNL     1       7.104  -5.201  21.820  0.00  0.00    +0.050 A 
ATOM     15  C   UNL     1       5.741  -5.443  21.710  0.00  0.00    +0.158 A 
ATOM     16  C   UNL     1       4.843  -4.671  22.438  0.00  0.00    +0.159 A 
ATOM     17  C   UNL     1       5.285  -3.565  23.151  0.00  0.00    +0.060 A 
BRANCH  16  18
ATOM     18  O   UNL     1       3.541  -5.040  22.629  0.00  0.00    -0.503 OA
ATOM     19  H   UNL     1       3.359  -5.785  22.036  0.00  0.00    +0.292 HD
ENDBRANCH  16  18
BRANCH  15  20
ATOM     20  O   UNL     1       5.300  -6.500  20.972  0.00  0.00    -0.503 OA
ATOM     21  H   UNL     1       5.244  -6.202  20.047  0.00  0.00    +0.292 HD
ENDBRANCH  15  20
ENDBRANCH  11  12
BRANCH  10  22
ATOM     22  O   UNL     1       7.426   1.550  27.492  0.00  0.00    -0.506 OA
ATOM     23  H   UNL     1       7.981   2.331  27.656  0.00  0.00    +0.292 HD
ENDBRANCH  10  22
BRANCH   7  24
ATOM     24  O   UNL     1       6.300   3.589  23.308  0.00  0.00    -0.461 OA
BRANCH  24  25
ATOM     25  C   UNL     1       7.225   4.111  22.336  0.00  0.00    +0.339 C 
ATOM     26  O   UNL     1       8.554   3.663  22.602  0.00  0.00    -0.331 OA
ATOM     27  C   UNL     1       9.083   4.199  23.827  0.00  0.00    +0.179 C 
ATOM     28  C   UNL     1       9.218   5.737  23.760  0.00  0.00    +0.177 C 
ATOM     29  C   UNL     1       7.864   6.380  23.404  0.00  0.00    +0.180 C 
ATOM     30  C   UNL     1       7.213   5.657  22.211  0.00  0.00    +0.214 C 
BRANCH  29  31
ATOM     31  O   UNL     1       6.985   6.448  24.532  0.00  0.00    -0.386 OA
ATOM     32  H   UNL     1       7.434   6.133  25.332  0.00  0.00    +0.210 HD
ENDBRANCH  29  31
BRANCH  30  33
ATOM     33  O   UNL     1       5.919   6.183  21.901  0.00  0.00    -0.383 OA
ATOM     34  H   UNL     1       5.426   5.491  21.425  0.00  0.00    +0.210 HD
ENDBRANCH  30  33
BRANCH  28  35
ATOM     35  O   UNL     1      10.200   6.095  22.784  0.00  0.00    -0.386 OA
ATOM     36  H   UNL     1      10.840   5.365  22.709  0.00  0.00    +0.210 HD
ENDBRANCH  28  35
BRANCH  27  37
ATOM     37  C   UNL     1      10.434   3.522  24.098  0.00  0.00    +0.190 C 
BRANCH  37  38
ATOM     38  O   UNL     1      11.268   3.517  22.936  0.00  0.00    -0.392 OA
ATOM     39  H   UNL     1      10.708   3.614  22.149  0.00  0.00    +0.210 HD
ENDBRANCH  37  38
ENDBRANCH  27  37
ENDBRANCH  24  25
ENDBRANCH   7  24
BRANCH   1  40
ATOM     40  O   UNL     1       7.401  -3.652  26.144  0.00  0.00    -0.453 OA
BRANCH  40  43
ATOM     41  C   UNL     1       5.007  -4.055  29.012  0.00  0.00    +0.179 C 
ATOM     42  O   UNL     1       5.905  -3.447  28.057  0.00  0.00    -0.331 OA
ATOM     43  C   UNL     1       6.329  -4.224  26.935  0.00  0.00    +0.340 C 
ATOM     44  C   UNL     1       6.621  -5.728  27.205  0.00  0.00    +0.214 C 
ATOM     45  C   UNL     1       5.452  -6.334  27.986  0.00  0.00    +0.180 C 
ATOM     46  C   UNL     1       5.308  -5.558  29.303  0.00  0.00    +0.177 C 
BRANCH  46  47
ATOM     47  O   UNL     1       4.286  -6.153  30.110  0.00  0.00    -0.386 OA
ATOM     48  H   UNL     1       3.426  -5.929  29.714  0.00  0.00    +0.210 HD
ENDBRANCH  46  47
BRANCH  45  49
ATOM     49  O   UNL     1       5.680  -7.732  28.219  0.00  0.00    -0.386 OA
ATOM     50  H   UNL     1       4.824  -8.115  28.486  0.00  0.00    +0.210 HD
ENDBRANCH  45  49
BRANCH  44  51
ATOM     51  O   UNL     1       7.828  -5.981  27.952  0.00  0.00    -0.383 OA
ATOM     52  H   UNL     1       7.684  -5.712  28.887  0.00  0.00    +0.210 HD
ENDBRANCH  44  51
BRANCH  41  53
ATOM     53  C   UNL     1       3.484  -3.838  28.728  0.00  0.00    +0.197 C 
BRANCH  53  54
ATOM     54  O   UNL     1       3.015  -4.081  27.404  0.00  0.00    -0.346 OA
BRANCH  54  58
ATOM     55  C   UNL     1       0.444  -7.322  28.676  0.00  0.00    +0.041 C 
ATOM     56  C   UNL     1       1.688  -7.441  27.801  0.00  0.00    +0.149 C 
ATOM     57  O   UNL     1       2.473  -6.241  27.884  0.00  0.00    -0.343 OA
ATOM     58  C   UNL     1       2.061  -5.099  27.102  0.00  0.00    +0.282 C 
ATOM     59  C   UNL     1       1.987  -5.538  25.620  0.00  0.00    +0.201 C 
ATOM     60  C   UNL     1       0.920  -6.648  25.528  0.00  0.00    +0.179 C 
ATOM     61  C   UNL     1       1.337  -7.867  26.364  0.00  0.00    +0.174 C 
BRANCH  61  62
ATOM     62  O   UNL     1       2.448  -8.540  25.752  0.00  0.00    -0.387 OA
ATOM     63  H   UNL     1       3.204  -8.465  26.376  0.00  0.00    +0.210 HD
ENDBRANCH  61  62
BRANCH  60  64
ATOM     64  O   UNL     1       0.655  -7.007  24.168  0.00  0.00    -0.386 OA
ATOM     65  H   UNL     1      -0.187  -6.584  23.910  0.00  0.00    +0.210 HD
ENDBRANCH  60  64
BRANCH  59  66
ATOM     66  O   UNL     1       3.266  -6.044  25.172  0.00  0.00    -0.384 OA
ATOM     67  H   UNL     1       3.078  -6.809  24.591  0.00  0.00    +0.210 HD
ENDBRANCH  59  66
ENDBRANCH  54  58
ENDBRANCH  53  54
ENDBRANCH  41  53
ENDBRANCH  40  43
ENDBRANCH   1  40
TORSDOF 22
ENDMDL
MODEL 5
REMARK VINA RESULT:      -6.4      2.409      8.913
REMARK  Name = 
REMARK  23 active torsions:
REMARK  status: ('A' for Active; 'I' for Inactive)
REMARK    1  A    between atoms: C_1  and  C_2
REMARK    2  A    between atoms: C_3  and  O_62
REMARK    3  A    between atoms: C_5  and  O_61
REMARK    4  A    between atoms: C_7  and  O_60
REMARK    5  A    between atoms: C_8  and  O_11
REMARK    6  A    between atoms: O_11  and  C_12
REMARK    7  A    between atoms: C_12  and  C_13
REMARK    8  A    between atoms: C_14  and  O_59
REMARK    9  A    between atoms: C_16  and  O_58
REMARK   10  A    between atoms: C_17  and  O_57
REMARK   11  A    between atoms: C_18  and  O_21
REMARK   12  A    between atoms: O_21  and  C_22
REMARK   13  A    between atoms: C_23  and  C_49
REMARK   14  A    between atoms: C_27  and  O_34
REMARK   15  A    between atoms: C_29  and  O_33
REMARK   16  A    between atoms: O_34  and  C_35
REMARK   17  A    between atoms: C_37  and  O_48
REMARK   18  A    between atoms: C_38  and  O_47
REMARK   19  A    between atoms: C_40  and  O_46
REMARK   20  A    between atoms: C_42  and  C_44
REMARK   21  A    between atoms: C_44  and  O_45
REMARK   22  A    between atoms: C_51  and  O_56
REMARK   23  A    between atoms: C_52  and  O_55
REMARK                            x       y       z     vdW  Elec       q    Type
REMARK                         _______ _______ _______ _____ _____    ______ ____
ROOT
ATOM      1  C   UNL     1       7.248  -2.224  25.585  0.00  0.00    +0.214 A 
ATOM      2  C   UNL     1       7.581  -0.936  26.289  0.00  0.00    +0.238 A 
ATOM      3  O   UNL     1       8.119  -0.950  27.392  0.00  0.00    -0.283 OA
ATOM      4  C   UNL     1       7.242   0.321  25.537  0.00  0.00    +0.109 A 
ATOM      5  C   UNL     1       7.101   0.222  24.166  0.00  0.00    +0.147 A 
ATOM      6  C   UNL     1       6.774   1.318  23.339  0.00  0.00    +0.093 A 
ATOM      7  C   UNL     1       6.555   2.550  23.879  0.00  0.00    +0.131 A 
ATOM      8  C   UNL     1       6.685   2.687  25.273  0.00  0.00    +0.092 A 
ATOM      9  O   UNL     1       7.243  -0.967  23.523  0.00  0.00    -0.451 OA
ATOM     10  C   UNL     1       7.044   1.595  26.085  0.00  0.00    +0.135 A 
ATOM     11  C   UNL     1       7.050  -2.126  24.245  0.00  0.00    +0.181 A 
ENDROOT
BRANCH  11  12
ATOM     12  C   UNL     1       6.595  -3.208  23.345  0.00  0.00    +0.025 A 
ATOM     13  C   UNL     1       7.520  -4.060  22.737  0.00  0.00    +0.015 A 
ATOM     14  C   UNL     1       7.111  -5.063  21.862  0.00  0.00    +0.050 A 
ATOM     15  C   UNL     1       5.763  -5.393  21.795  0.00  0.00    +0.158 A 
ATOM     16  C   UNL     1       4.841  -4.679  22.551  0.00  0.00    +0.159 A 
ATOM     17  C   UNL     1       5.233  -3.545  23.250  0.00  0.00    +0.060 A 
BRANCH  16  18
ATOM     18  O   UNL     1       3.572  -5.130  22.784  0.00  0.00    -0.503 OA
ATOM     19  H   UNL     1       3.452  -5.180  23.745  0.00  0.00    +0.292 HD
ENDBRANCH  16  18
BRANCH  15  20
ATOM     20  O   UNL     1       5.368  -6.478  21.072  0.00  0.00    -0.503 OA
ATOM     21  H   UNL     1       6.143  -6.785  20.568  0.00  0.00    +0.292 HD
ENDBRANCH  15  20
ENDBRANCH  11  12
BRANCH  10  22
ATOM     22  O   UNL     1       7.175   1.779  27.433  0.00  0.00    -0.506 OA
ATOM     23  H   UNL     1       6.303   1.988  27.807  0.00  0.00    +0.292 HD
ENDBRANCH  10  22
BRANCH   7  24
ATOM     24  O   UNL     1       6.117   3.688  23.172  0.00  0.00    -0.461 OA
BRANCH  24  25
ATOM     25  C   UNL     1       7.065   4.212  22.222  0.00  0.00    +0.339 C 
ATOM     26  O   UNL     1       8.378   3.718  22.483  0.00  0.00    -0.331 OA
ATOM     27  C   UNL     1       8.913   4.201  23.728  0.00  0.00    +0.179 C 
ATOM     28  C   UNL     1       9.093   5.735  23.708  0.00  0.00    +0.177 C 
ATOM     29  C   UNL     1       7.761   6.429  23.363  0.00  0.00    +0.180 C 
ATOM     30  C   UNL     1       7.098   5.761  22.144  0.00  0.00    +0.214 C 
BRANCH  29  31
ATOM     31  O   UNL     1       6.877   6.488  24.486  0.00  0.00    -0.386 OA
ATOM     32  H   UNL     1       7.377   6.620  25.306  0.00  0.00    +0.210 HD
ENDBRANCH  29  31
BRANCH  30  33
ATOM     33  O   UNL     1       5.823   6.334  21.841  0.00  0.00    -0.383 OA
ATOM     34  H   UNL     1       5.611   6.970  22.547  0.00  0.00    +0.210 HD
ENDBRANCH  30  33
BRANCH  28  35
ATOM     35  O   UNL     1      10.092   6.094  22.750  0.00  0.00    -0.386 OA
ATOM     36  H   UNL     1      10.967   6.017  23.173  0.00  0.00    +0.210 HD
ENDBRANCH  28  35
BRANCH  27  37
ATOM     37  C   UNL     1      10.242   3.476  23.987  0.00  0.00    +0.190 C 
BRANCH  37  38
ATOM     38  O   UNL     1      10.924   3.166  22.768  0.00  0.00    -0.392 OA
ATOM     39  H   UNL     1      11.333   3.976  22.425  0.00  0.00    +0.210 HD
ENDBRANCH  37  38
ENDBRANCH  27  37
ENDBRANCH  24  25
ENDBRANCH   7  24
BRANCH   1  40
ATOM     40  O   UNL     1       7.269  -3.457  26.224  0.00  0.00    -0.453 OA
BRANCH  40  43
ATOM     41  C   UNL     1       4.742  -4.027  28.945  0.00  0.00    +0.179 C 
ATOM     42  O   UNL     1       5.689  -3.366  28.077  0.00  0.00    -0.331 OA
ATOM     43  C   UNL     1       6.156  -4.068  26.923  0.00  0.00    +0.340 C 
ATOM     44  C   UNL     1       6.421  -5.591  27.100  0.00  0.00    +0.214 C 
ATOM     45  C   UNL     1       5.211  -6.234  27.783  0.00  0.00    +0.180 C 
ATOM     46  C   UNL     1       5.014  -5.550  29.143  0.00  0.00    +0.177 C 
BRANCH  46  47
ATOM     47  O   UNL     1       3.951  -6.187  29.860  0.00  0.00    -0.386 OA
ATOM     48  H   UNL     1       3.449  -5.495  30.324  0.00  0.00    +0.210 HD
ENDBRANCH  46  47
BRANCH  45  49
ATOM     49  O   UNL     1       5.414  -7.648  27.927  0.00  0.00    -0.386 OA
ATOM     50  H   UNL     1       5.770  -7.791  28.824  0.00  0.00    +0.210 HD
ENDBRANCH  45  49
BRANCH  44  51
ATOM     51  O   UNL     1       7.589  -5.911  27.881  0.00  0.00    -0.383 OA
ATOM     52  H   UNL     1       7.763  -6.876  27.810  0.00  0.00    +0.210 HD
ENDBRANCH  44  51
BRANCH  41  53
ATOM     53  C   UNL     1       3.236  -3.771  28.610  0.00  0.00    +0.197 C 
BRANCH  53  54
ATOM     54  O   UNL     1       2.927  -2.687  27.736  0.00  0.00    -0.346 OA
BRANCH  54  58
ATOM     55  C   UNL     1       0.444   0.855  27.583  0.00  0.00    +0.041 C 
ATOM     56  C   UNL     1       1.916   0.761  27.191  0.00  0.00    +0.149 C 
ATOM     57  O   UNL     1       2.303  -0.614  27.030  0.00  0.00    -0.343 OA
ATOM     58  C   UNL     1       2.593  -1.386  28.216  0.00  0.00    +0.282 C 
ATOM     59  C   UNL     1       3.703  -0.650  29.003  0.00  0.00    +0.201 C 
ATOM     60  C   UNL     1       3.141   0.730  29.401  0.00  0.00    +0.179 C 
ATOM     61  C   UNL     1       2.815   1.561  28.152  0.00  0.00    +0.174 C 
BRANCH  61  62
ATOM     62  O   UNL     1       4.023   1.967  27.491  0.00  0.00    -0.387 OA
ATOM     63  H   UNL     1       3.777   2.199  26.568  0.00  0.00    +0.210 HD
ENDBRANCH  61  62
BRANCH  60  64
ATOM     64  O   UNL     1       4.032   1.424  30.280  0.00  0.00    -0.386 OA
ATOM     65  H   UNL     1       4.614   0.759  30.697  0.00  0.00    +0.210 HD
ENDBRANCH  60  64
BRANCH  59  66
ATOM     66  O   UNL     1       4.885  -0.483  28.186  0.00  0.00    -0.384 OA
ATOM     67  H   UNL     1       5.656  -0.640  28.769  0.00  0.00    +0.210 HD
ENDBRANCH  59  66
ENDBRANCH  54  58
ENDBRANCH  53  54
ENDBRANCH  41  53
ENDBRANCH  40  43
ENDBRANCH   1  40
TORSDOF 22
ENDMDL
MODEL 6
REMARK VINA RESULT:      -6.4      2.485     10.153
REMARK  Name = 
REMARK  23 active torsions:
REMARK  status: ('A' for Active; 'I' for Inactive)
REMARK    1  A    between atoms: C_1  and  C_2
REMARK    2  A    between atoms: C_3  and  O_62
REMARK    3  A    between atoms: C_5  and  O_61
REMARK    4  A    between atoms: C_7  and  O_60
REMARK    5  A    between atoms: C_8  and  O_11
REMARK    6  A    between atoms: O_11  and  C_12
REMARK    7  A    between atoms: C_12  and  C_13
REMARK    8  A    between atoms: C_14  and  O_59
REMARK    9  A    between atoms: C_16  and  O_58
REMARK   10  A    between atoms: C_17  and  O_57
REMARK   11  A    between atoms: C_18  and  O_21
REMARK   12  A    between atoms: O_21  and  C_22
REMARK   13  A    between atoms: C_23  and  C_49
REMARK   14  A    between atoms: C_27  and  O_34
REMARK   15  A    between atoms: C_29  and  O_33
REMARK   16  A    between atoms: O_34  and  C_35
REMARK   17  A    between atoms: C_37  and  O_48
REMARK   18  A    between atoms: C_38  and  O_47
REMARK   19  A    between atoms: C_40  and  O_46
REMARK   20  A    between atoms: C_42  and  C_44
REMARK   21  A    between atoms: C_44  and  O_45
REMARK   22  A    between atoms: C_51  and  O_56
REMARK   23  A    between atoms: C_52  and  O_55
REMARK                            x       y       z     vdW  Elec       q    Type
REMARK                         _______ _______ _______ _____ _____    ______ ____
ROOT
ATOM      1  C   UNL     1       6.807  -2.088  26.592  0.00  0.00    +0.214 A 
ATOM      2  C   UNL     1       7.991  -2.052  25.664  0.00  0.00    +0.238 A 
ATOM      3  O   UNL     1       8.649  -3.066  25.454  0.00  0.00    -0.283 OA
ATOM      4  C   UNL     1       8.265  -0.724  25.014  0.00  0.00    +0.109 A 
ATOM      5  C   UNL     1       7.218   0.176  24.942  0.00  0.00    +0.147 A 
ATOM      6  C   UNL     1       7.339   1.461  24.369  0.00  0.00    +0.093 A 
ATOM      7  C   UNL     1       8.533   1.885  23.869  0.00  0.00    +0.131 A 
ATOM      8  C   UNL     1       9.623   0.996  23.930  0.00  0.00    +0.092 A 
ATOM      9  O   UNL     1       5.996  -0.117  25.457  0.00  0.00    -0.451 OA
ATOM     10  C   UNL     1       9.484  -0.294  24.473  0.00  0.00    +0.135 A 
ATOM     11  C   UNL     1       5.917  -1.072  26.448  0.00  0.00    +0.181 A 
ENDROOT
BRANCH  11  12
ATOM     12  C   UNL     1       4.743  -0.807  27.308  0.00  0.00    +0.025 A 
ATOM     13  C   UNL     1       4.905  -0.231  28.571  0.00  0.00    +0.015 A 
ATOM     14  C   UNL     1       3.814  -0.006  29.406  0.00  0.00    +0.050 A 
ATOM     15  C   UNL     1       2.531  -0.105  28.884  0.00  0.00    +0.158 A 
ATOM     16  C   UNL     1       2.354  -0.487  27.560  0.00  0.00    +0.159 A 
ATOM     17  C   UNL     1       3.435  -0.919  26.803  0.00  0.00    +0.060 A 
BRANCH  16  18
ATOM     18  O   UNL     1       1.176  -0.306  26.892  0.00  0.00    -0.503 OA
ATOM     19  H   UNL     1       0.461  -0.609  27.473  0.00  0.00    +0.292 HD
ENDBRANCH  16  18
BRANCH  15  20
ATOM     20  O   UNL     1       1.462   0.274  29.640  0.00  0.00    -0.503 OA
ATOM     21  H   UNL     1       1.332   1.228  29.495  0.00  0.00    +0.292 HD
ENDBRANCH  15  20
ENDBRANCH  11  12
BRANCH  10  22
ATOM     22  O   UNL     1      10.565  -1.130  24.496  0.00  0.00    -0.506 OA
ATOM     23  H   UNL     1      11.316  -0.683  24.069  0.00  0.00    +0.292 HD
ENDBRANCH  10  22
BRANCH   7  24
ATOM     24  O   UNL     1       8.802   3.178  23.376  0.00  0.00    -0.461 OA
BRANCH  24  25
ATOM     25  C   UNL     1       8.990   4.186  24.388  0.00  0.00    +0.339 C 
ATOM     26  O   UNL     1       7.843   4.283  25.232  0.00  0.00    -0.331 OA
ATOM     27  C   UNL     1       6.685   4.777  24.538  0.00  0.00    +0.179 C 
ATOM     28  C   UNL     1       6.900   6.224  24.039  0.00  0.00    +0.177 C 
ATOM     29  C   UNL     1       8.161   6.307  23.158  0.00  0.00    +0.180 C 
ATOM     30  C   UNL     1       9.345   5.589  23.830  0.00  0.00    +0.214 C 
BRANCH  29  31
ATOM     31  O   UNL     1       7.925   5.822  21.832  0.00  0.00    -0.386 OA
ATOM     32  H   UNL     1       8.731   5.890  21.297  0.00  0.00    +0.210 HD
ENDBRANCH  29  31
BRANCH  30  33
ATOM     33  O   UNL     1      10.514   5.584  23.005  0.00  0.00    -0.383 OA
ATOM     34  H   UNL     1      10.822   6.504  22.925  0.00  0.00    +0.210 HD
ENDBRANCH  30  33
BRANCH  28  35
ATOM     35  O   UNL     1       7.026   7.108  25.156  0.00  0.00    -0.386 OA
ATOM     36  H   UNL     1       6.671   6.660  25.945  0.00  0.00    +0.210 HD
ENDBRANCH  28  35
BRANCH  27  37
ATOM     37  C   UNL     1       5.483   4.677  25.488  0.00  0.00    +0.190 C 
BRANCH  37  38
ATOM     38  O   UNL     1       4.465   5.626  25.159  0.00  0.00    -0.392 OA
ATOM     39  H   UNL     1       4.385   6.262  25.887  0.00  0.00    +0.210 HD
ENDBRANCH  37  38
ENDBRANCH  27  37
ENDBRANCH  24  25
ENDBRANCH   7  24
BRANCH   1  40
ATOM     40  O   UNL     1       6.557  -3.150  27.451  0.00  0.00    -0.453 OA
BRANCH  40  43
ATOM     41  C   UNL     1       3.485  -5.228  26.848  0.00  0.00    +0.179 C 
ATOM     42  O   UNL     1       4.367  -4.087  26.935  0.00  0.00    -0.331 OA
ATOM     43  C   UNL     1       5.762  -4.322  27.140  0.00  0.00    +0.340 C 
ATOM     44  C   UNL     1       6.132  -5.480  28.111  0.00  0.00    +0.214 C 
ATOM     45  C   UNL     1       5.331  -6.728  27.731  0.00  0.00    +0.180 C 
ATOM     46  C   UNL     1       3.839  -6.384  27.833  0.00  0.00    +0.177 C 
BRANCH  46  47
ATOM     47  O   UNL     1       3.051  -7.552  27.580  0.00  0.00    -0.386 OA
ATOM     48  H   UNL     1       3.120  -7.758  26.632  0.00  0.00    +0.210 HD
ENDBRANCH  46  47
BRANCH  45  49
ATOM     49  O   UNL     1       5.681  -7.824  28.590  0.00  0.00    -0.386 OA
ATOM     50  H   UNL     1       4.845  -8.178  28.948  0.00  0.00    +0.210 HD
ENDBRANCH  45  49
BRANCH  44  51
ATOM     51  O   UNL     1       5.881  -5.201  29.502  0.00  0.00    -0.383 OA
ATOM     52  H   UNL     1       4.910  -5.207  29.656  0.00  0.00    +0.210 HD
ENDBRANCH  44  51
BRANCH  41  53
ATOM     53  C   UNL     1       3.248  -5.781  25.404  0.00  0.00    +0.197 C 
BRANCH  53  54
ATOM     54  O   UNL     1       3.483  -4.897  24.309  0.00  0.00    -0.346 OA
BRANCH  54  58
ATOM     55  C   UNL     1       6.177  -2.180  22.287  0.00  0.00    +0.041 C 
ATOM     56  C   UNL     1       5.779  -3.577  21.821  0.00  0.00    +0.149 C 
ATOM     57  O   UNL     1       4.617  -4.030  22.535  0.00  0.00    -0.343 OA
ATOM     58  C   UNL     1       4.795  -4.551  23.870  0.00  0.00    +0.282 C 
ATOM     59  C   UNL     1       5.812  -5.715  23.795  0.00  0.00    +0.201 C 
ATOM     60  C   UNL     1       7.141  -5.125  23.281  0.00  0.00    +0.179 C 
ATOM     61  C   UNL     1       6.967  -4.555  21.866  0.00  0.00    +0.174 C 
BRANCH  61  62
ATOM     62  O   UNL     1       6.784  -5.616  20.917  0.00  0.00    -0.387 OA
ATOM     63  H   UNL     1       7.206  -5.323  20.079  0.00  0.00    +0.210 HD
ENDBRANCH  61  62
BRANCH  60  64
ATOM     64  O   UNL     1       8.197  -6.091  23.336  0.00  0.00    -0.386 OA
ATOM     65  H   UNL     1       7.825  -6.916  23.702  0.00  0.00    +0.210 HD
ENDBRANCH  60  64
BRANCH  59  66
ATOM     66  O   UNL     1       5.346  -6.743  22.890  0.00  0.00    -0.384 OA
ATOM     67  H   UNL     1       4.964  -6.285  22.115  0.00  0.00    +0.210 HD
ENDBRANCH  59  66
ENDBRANCH  54  58
ENDBRANCH  53  54
ENDBRANCH  41  53
ENDBRANCH  40  43
ENDBRANCH   1  40
TORSDOF 22
ENDMDL
MODEL 7
REMARK VINA RESULT:      -6.2      2.360      5.767
REMARK  Name = 
REMARK  23 active torsions:
REMARK  status: ('A' for Active; 'I' for Inactive)
REMARK    1  A    between atoms: C_1  and  C_2
REMARK    2  A    between atoms: C_3  and  O_62
REMARK    3  A    between atoms: C_5  and  O_61
REMARK    4  A    between atoms: C_7  and  O_60
REMARK    5  A    between atoms: C_8  and  O_11
REMARK    6  A    between atoms: O_11  and  C_12
REMARK    7  A    between atoms: C_12  and  C_13
REMARK    8  A    between atoms: C_14  and  O_59
REMARK    9  A    between atoms: C_16  and  O_58
REMARK   10  A    between atoms: C_17  and  O_57
REMARK   11  A    between atoms: C_18  and  O_21
REMARK   12  A    between atoms: O_21  and  C_22
REMARK   13  A    between atoms: C_23  and  C_49
REMARK   14  A    between atoms: C_27  and  O_34
REMARK   15  A    between atoms: C_29  and  O_33
REMARK   16  A    between atoms: O_34  and  C_35
REMARK   17  A    between atoms: C_37  and  O_48
REMARK   18  A    between atoms: C_38  and  O_47
REMARK   19  A    between atoms: C_40  and  O_46
REMARK   20  A    between atoms: C_42  and  C_44
REMARK   21  A    between atoms: C_44  and  O_45
REMARK   22  A    between atoms: C_51  and  O_56
REMARK   23  A    between atoms: C_52  and  O_55
REMARK                            x       y       z     vdW  Elec       q    Type
REMARK                         _______ _______ _______ _____ _____    ______ ____
ROOT
ATOM      1  C   UNL     1       6.146   1.274  26.282  0.00  0.00    +0.214 A 
ATOM      2  C   UNL     1       6.627   0.014  26.949  0.00  0.00    +0.238 A 
ATOM      3  O   UNL     1       7.710  -0.012  27.525  0.00  0.00    -0.283 OA
ATOM      4  C   UNL     1       5.685  -1.157  26.879  0.00  0.00    +0.109 A 
ATOM      5  C   UNL     1       4.350  -0.884  26.648  0.00  0.00    +0.147 A 
ATOM      6  C   UNL     1       3.361  -1.886  26.548  0.00  0.00    +0.093 A 
ATOM      7  C   UNL     1       3.696  -3.202  26.657  0.00  0.00    +0.131 A 
ATOM      8  C   UNL     1       5.048  -3.517  26.889  0.00  0.00    +0.092 A 
ATOM      9  O   UNL     1       3.907   0.388  26.468  0.00  0.00    -0.451 OA
ATOM     10  C   UNL     1       6.021  -2.509  27.020  0.00  0.00    +0.135 A 
ATOM     11  C   UNL     1       4.810   1.339  26.043  0.00  0.00    +0.181 A 
ENDROOT
BRANCH  11  12
ATOM     12  C   UNL     1       4.105   2.403  25.297  0.00  0.00    +0.025 A 
ATOM     13  C   UNL     1       3.328   3.348  25.973  0.00  0.00    +0.015 A 
ATOM     14  C   UNL     1       2.631   4.336  25.283  0.00  0.00    +0.050 A 
ATOM     15  C   UNL     1       2.916   4.552  23.941  0.00  0.00    +0.158 A 
ATOM     16  C   UNL     1       3.842   3.742  23.294  0.00  0.00    +0.159 A 
ATOM     17  C   UNL     1       4.366   2.627  23.933  0.00  0.00    +0.060 A 
BRANCH  16  18
ATOM     18  O   UNL     1       4.403   4.078  22.095  0.00  0.00    -0.503 OA
ATOM     19  H   UNL     1       4.277   3.328  21.493  0.00  0.00    +0.292 HD
ENDBRANCH  16  18
BRANCH  15  20
ATOM     20  O   UNL     1       2.366   5.620  23.297  0.00  0.00    -0.503 OA
ATOM     21  H   UNL     1       2.233   6.318  23.962  0.00  0.00    +0.292 HD
ENDBRANCH  15  20
ENDBRANCH  11  12
BRANCH  10  22
ATOM     22  O   UNL     1       7.320  -2.861  27.261  0.00  0.00    -0.506 OA
ATOM     23  H   UNL     1       7.874  -2.063  27.220  0.00  0.00    +0.292 HD
ENDBRANCH  10  22
BRANCH   7  24
ATOM     24  O   UNL     1       2.820  -4.289  26.467  0.00  0.00    -0.461 OA
BRANCH  24  25
ATOM     25  C   UNL     1       3.457  -5.580  26.417  0.00  0.00    +0.339 C 
ATOM     26  O   UNL     1       4.156  -5.758  25.185  0.00  0.00    -0.331 OA
ATOM     27  C   UNL     1       3.271  -5.824  24.053  0.00  0.00    +0.179 C 
ATOM     28  C   UNL     1       2.342  -7.056  24.133  0.00  0.00    +0.177 C 
ATOM     29  C   UNL     1       1.557  -7.053  25.459  0.00  0.00    +0.180 C 
ATOM     30  C   UNL     1       2.495  -6.775  26.648  0.00  0.00    +0.214 C 
BRANCH  29  31
ATOM     31  O   UNL     1       0.450  -6.147  25.429  0.00  0.00    -0.386 OA
ATOM     32  H   UNL     1       0.482  -5.545  26.188  0.00  0.00    +0.210 HD
ENDBRANCH  29  31
BRANCH  30  33
ATOM     33  O   UNL     1       1.786  -6.692  27.888  0.00  0.00    -0.383 OA
ATOM     34  H   UNL     1       2.355  -6.216  28.520  0.00  0.00    +0.210 HD
ENDBRANCH  30  33
BRANCH  28  35
ATOM     35  O   UNL     1       3.115  -8.255  24.027  0.00  0.00    -0.386 OA
ATOM     36  H   UNL     1       4.059  -8.016  24.069  0.00  0.00    +0.210 HD
ENDBRANCH  28  35
BRANCH  27  37
ATOM     37  C   UNL     1       4.130  -5.842  22.780  0.00  0.00    +0.190 C 
BRANCH  37  38
ATOM     38  O   UNL     1       4.606  -4.537  22.443  0.00  0.00    -0.392 OA
ATOM     39  H   UNL     1       4.787  -4.507  21.490  0.00  0.00    +0.210 HD
ENDBRANCH  37  38
ENDBRANCH  27  37
ENDBRANCH  24  25
ENDBRANCH   7  24
BRANCH   1  40
ATOM     40  O   UNL     1       6.976   2.361  26.043  0.00  0.00    -0.453 OA
BRANCH  40  43
ATOM     41  C   UNL     1      10.218   2.066  24.166  0.00  0.00    +0.179 C 
ATOM     42  O   UNL     1       9.158   1.801  25.111  0.00  0.00    -0.331 OA
ATOM     43  C   UNL     1       7.914   2.486  24.944  0.00  0.00    +0.340 C 
ATOM     44  C   UNL     1       7.998   3.972  24.491  0.00  0.00    +0.214 C 
ATOM     45  C   UNL     1       8.943   4.079  23.292  0.00  0.00    +0.180 C 
ATOM     46  C   UNL     1      10.321   3.559  23.725  0.00  0.00    +0.177 C 
BRANCH  46  47
ATOM     47  O   UNL     1      11.263   3.730  22.661  0.00  0.00    -0.386 OA
ATOM     48  H   UNL     1      10.762   3.813  21.830  0.00  0.00    +0.210 HD
ENDBRANCH  46  47
BRANCH  45  49
ATOM     49  O   UNL     1       9.011   5.436  22.831  0.00  0.00    -0.386 OA
ATOM     50  H   UNL     1       9.570   5.921  23.467  0.00  0.00    +0.210 HD
ENDBRANCH  45  49
BRANCH  44  51
ATOM     51  O   UNL     1       8.468   4.883  25.505  0.00  0.00    -0.383 OA
ATOM     52  H   UNL     1       9.208   4.459  25.993  0.00  0.00    +0.210 HD
ENDBRANCH  44  51
BRANCH  41  53
ATOM     53  C   UNL     1      10.261   1.115  22.925  0.00  0.00    +0.197 C 
BRANCH  53  54
ATOM     54  O   UNL     1      10.497  -0.271  23.161  0.00  0.00    -0.346 OA
BRANCH  54  58
ATOM     55  C   UNL     1       9.397  -3.835  25.356  0.00  0.00    +0.041 C 
ATOM     56  C   UNL     1       9.185  -3.586  23.866  0.00  0.00    +0.149 C 
ATOM     57  O   UNL     1       9.981  -2.474  23.428  0.00  0.00    -0.343 OA
ATOM     58  C   UNL     1       9.498  -1.140  23.695  0.00  0.00    +0.282 C 
ATOM     59  C   UNL     1       8.087  -1.010  23.074  0.00  0.00    +0.201 C 
ATOM     60  C   UNL     1       7.185  -2.045  23.776  0.00  0.00    +0.179 C 
ATOM     61  C   UNL     1       7.691  -3.471  23.512  0.00  0.00    +0.174 C 
BRANCH  61  62
ATOM     62  O   UNL     1       7.468  -3.837  22.142  0.00  0.00    -0.387 OA
ATOM     63  H   UNL     1       8.196  -3.436  21.618  0.00  0.00    +0.210 HD
ENDBRANCH  61  62
BRANCH  60  64
ATOM     64  O   UNL     1       5.814  -1.891  23.391  0.00  0.00    -0.386 OA
ATOM     65  H   UNL     1       5.396  -1.278  24.026  0.00  0.00    +0.210 HD
ENDBRANCH  60  64
BRANCH  59  66
ATOM     66  O   UNL     1       8.128  -1.276  21.653  0.00  0.00    -0.384 OA
ATOM     67  H   UNL     1       9.053  -1.136  21.366  0.00  0.00    +0.210 HD
ENDBRANCH  59  66
ENDBRANCH  54  58
ENDBRANCH  53  54
ENDBRANCH  41  53
ENDBRANCH  40  43
ENDBRANCH   1  40
TORSDOF 22
ENDMDL
MODEL 8
REMARK VINA RESULT:      -6.2      2.200      5.768
REMARK  Name = 
REMARK  23 active torsions:
REMARK  status: ('A' for Active; 'I' for Inactive)
REMARK    1  A    between atoms: C_1  and  C_2
REMARK    2  A    between atoms: C_3  and  O_62
REMARK    3  A    between atoms: C_5  and  O_61
REMARK    4  A    between atoms: C_7  and  O_60
REMARK    5  A    between atoms: C_8  and  O_11
REMARK    6  A    between atoms: O_11  and  C_12
REMARK    7  A    between atoms: C_12  and  C_13
REMARK    8  A    between atoms: C_14  and  O_59
REMARK    9  A    between atoms: C_16  and  O_58
REMARK   10  A    between atoms: C_17  and  O_57
REMARK   11  A    between atoms: C_18  and  O_21
REMARK   12  A    between atoms: O_21  and  C_22
REMARK   13  A    between atoms: C_23  and  C_49
REMARK   14  A    between atoms: C_27  and  O_34
REMARK   15  A    between atoms: C_29  and  O_33
REMARK   16  A    between atoms: O_34  and  C_35
REMARK   17  A    between atoms: C_37  and  O_48
REMARK   18  A    between atoms: C_38  and  O_47
REMARK   19  A    between atoms: C_40  and  O_46
REMARK   20  A    between atoms: C_42  and  C_44
REMARK   21  A    between atoms: C_44  and  O_45
REMARK   22  A    between atoms: C_51  and  O_56
REMARK   23  A    between atoms: C_52  and  O_55
REMARK                            x       y       z     vdW  Elec       q    Type
REMARK                         _______ _______ _______ _____ _____    ______ ____
ROOT
ATOM      1  C   UNL     1       5.880   1.926  25.465  0.00  0.00    +0.214 A 
ATOM      2  C   UNL     1       5.923   0.562  24.829  0.00  0.00    +0.238 A 
ATOM      3  O   UNL     1       6.404   0.412  23.710  0.00  0.00    -0.283 OA
ATOM      4  C   UNL     1       5.376  -0.561  25.665  0.00  0.00    +0.109 A 
ATOM      5  C   UNL     1       5.319  -0.365  27.032  0.00  0.00    +0.147 A 
ATOM      6  C   UNL     1       4.819  -1.330  27.933  0.00  0.00    +0.093 A 
ATOM      7  C   UNL     1       4.339  -2.520  27.476  0.00  0.00    +0.131 A 
ATOM      8  C   UNL     1       4.378  -2.752  26.088  0.00  0.00    +0.092 A 
ATOM      9  O   UNL     1       5.720   0.804  27.598  0.00  0.00    -0.451 OA
ATOM     10  C   UNL     1       4.908  -1.797  25.202  0.00  0.00    +0.135 A 
ATOM     11  C   UNL     1       5.727   1.939  26.815  0.00  0.00    +0.181 A 
ENDROOT
BRANCH  11  12
ATOM     12  C   UNL     1       5.533   3.135  27.663  0.00  0.00    +0.025 A 
ATOM     13  C   UNL     1       4.258   3.490  28.108  0.00  0.00    +0.015 A 
ATOM     14  C   UNL     1       4.054   4.631  28.880  0.00  0.00    +0.050 A 
ATOM     15  C   UNL     1       5.152   5.277  29.433  0.00  0.00    +0.158 A 
ATOM     16  C   UNL     1       6.434   4.815  29.160  0.00  0.00    +0.159 A 
ATOM     17  C   UNL     1       6.633   3.814  28.218  0.00  0.00    +0.060 A 
BRANCH  16  18
ATOM     18  O   UNL     1       7.523   5.184  29.897  0.00  0.00    -0.503 OA
ATOM     19  H   UNL     1       8.156   4.449  29.871  0.00  0.00    +0.292 HD
ENDBRANCH  16  18
BRANCH  15  20
ATOM     20  O   UNL     1       4.961   6.292  30.323  0.00  0.00    -0.503 OA
ATOM     21  H   UNL     1       4.024   6.270  30.586  0.00  0.00    +0.292 HD
ENDBRANCH  15  20
ENDBRANCH  11  12
BRANCH  10  22
ATOM     22  O   UNL     1       4.941  -2.073  23.863  0.00  0.00    -0.506 OA
ATOM     23  H   UNL     1       4.425  -2.880  23.697  0.00  0.00    +0.292 HD
ENDBRANCH  10  22
BRANCH   7  24
ATOM     24  O   UNL     1       3.719  -3.510  28.264  0.00  0.00    -0.461 OA
BRANCH  24  25
ATOM     25  C   UNL     1       4.611  -4.255  29.114  0.00  0.00    +0.339 C 
ATOM     26  O   UNL     1       5.811  -4.599  28.420  0.00  0.00    -0.331 OA
ATOM     27  C   UNL     1       5.581  -5.531  27.348  0.00  0.00    +0.179 C 
ATOM     28  C   UNL     1       5.059  -6.885  27.878  0.00  0.00    +0.177 C 
ATOM     29  C   UNL     1       3.788  -6.678  28.724  0.00  0.00    +0.180 C 
ATOM     30  C   UNL     1       3.984  -5.531  29.733  0.00  0.00    +0.214 C 
BRANCH  29  31
ATOM     31  O   UNL     1       2.626  -6.481  27.912  0.00  0.00    -0.386 OA
ATOM     32  H   UNL     1       2.253  -5.598  28.059  0.00  0.00    +0.210 HD
ENDBRANCH  29  31
BRANCH  30  33
ATOM     33  O   UNL     1       2.796  -5.263  30.485  0.00  0.00    -0.383 OA
ATOM     34  H   UNL     1       2.351  -6.114  30.644  0.00  0.00    +0.210 HD
ENDBRANCH  30  33
BRANCH  28  35
ATOM     35  O   UNL     1       6.070  -7.519  28.666  0.00  0.00    -0.386 OA
ATOM     36  H   UNL     1       6.640  -6.828  29.050  0.00  0.00    +0.210 HD
ENDBRANCH  28  35
BRANCH  27  37
ATOM     37  C   UNL     1       6.895  -5.693  26.571  0.00  0.00    +0.190 C 
BRANCH  37  38
ATOM     38  O   UNL     1       7.995  -5.976  27.441  0.00  0.00    -0.392 OA
ATOM     39  H   UNL     1       8.822  -5.839  26.952  0.00  0.00    +0.210 HD
ENDBRANCH  37  38
ENDBRANCH  27  37
ENDBRANCH  24  25
ENDBRANCH   7  24
BRANCH   1  40
ATOM     40  O   UNL     1       6.115   3.095  24.754  0.00  0.00    -0.453 OA
BRANCH  40  43
ATOM     41  C   UNL     1       9.774   3.072  23.900  0.00  0.00    +0.179 C 
ATOM     42  O   UNL     1       8.485   2.649  24.396  0.00  0.00    -0.331 OA
ATOM     43  C   UNL     1       7.336   3.425  24.045  0.00  0.00    +0.340 C 
ATOM     44  C   UNL     1       7.526   4.969  24.018  0.00  0.00    +0.214 C 
ATOM     45  C   UNL     1       8.785   5.305  23.214  0.00  0.00    +0.180 C 
ATOM     46  C   UNL     1       9.979   4.618  23.890  0.00  0.00    +0.177 C 
BRANCH  46  47
ATOM     47  O   UNL     1      11.193   4.985  23.226  0.00  0.00    -0.386 OA
ATOM     48  H   UNL     1      11.178   4.589  22.338  0.00  0.00    +0.210 HD
ENDBRANCH  46  47
BRANCH  45  49
ATOM     49  O   UNL     1       8.965   6.728  23.143  0.00  0.00    -0.386 OA
ATOM     50  H   UNL     1       9.910   6.900  23.314  0.00  0.00    +0.210 HD
ENDBRANCH  45  49
BRANCH  44  51
ATOM     51  O   UNL     1       7.657   5.581  25.317  0.00  0.00    -0.383 OA
ATOM     52  H   UNL     1       7.958   6.509  25.200  0.00  0.00    +0.210 HD
ENDBRANCH  44  51
BRANCH  41  53
ATOM     53  C   UNL     1      10.202   2.446  22.532  0.00  0.00    +0.197 C 
BRANCH  53  54
ATOM     54  O   UNL     1      10.465   1.044  22.497  0.00  0.00    -0.346 OA
BRANCH  54  58
ATOM     55  C   UNL     1       8.844  -0.685  26.118  0.00  0.00    +0.041 C 
ATOM     56  C   UNL     1       9.808  -1.357  25.145  0.00  0.00    +0.149 C 
ATOM     57  O   UNL     1      10.399  -0.379  24.274  0.00  0.00    -0.343 OA
ATOM     58  C   UNL     1       9.627   0.090  23.148  0.00  0.00    +0.282 C 
ATOM     59  C   UNL     1       9.220  -1.140  22.303  0.00  0.00    +0.201 C 
ATOM     60  C   UNL     1       8.345  -2.039  23.201  0.00  0.00    +0.179 C 
ATOM     61  C   UNL     1       9.149  -2.539  24.410  0.00  0.00    +0.174 C 
BRANCH  61  62
ATOM     62  O   UNL     1      10.140  -3.491  23.997  0.00  0.00    -0.387 OA
ATOM     63  H   UNL     1       9.910  -4.344  24.426  0.00  0.00    +0.210 HD
ENDBRANCH  61  62
BRANCH  60  64
ATOM     64  O   UNL     1       7.778  -3.124  22.459  0.00  0.00    -0.386 OA
ATOM     65  H   UNL     1       6.847  -2.897  22.269  0.00  0.00    +0.210 HD
ENDBRANCH  60  64
BRANCH  59  66
ATOM     66  O   UNL     1      10.390  -1.869  21.866  0.00  0.00    -0.384 OA
ATOM     67  H   UNL     1      10.612  -2.502  22.580  0.00  0.00    +0.210 HD
ENDBRANCH  59  66
ENDBRANCH  54  58
ENDBRANCH  53  54
ENDBRANCH  41  53
ENDBRANCH  40  43
ENDBRANCH   1  40
TORSDOF 22
ENDMDL
MODEL 9
REMARK VINA RESULT:      -6.1      2.629      8.424
REMARK  Name = 
REMARK  23 active torsions:
REMARK  status: ('A' for Active; 'I' for Inactive)
REMARK    1  A    between atoms: C_1  and  C_2
REMARK    2  A    between atoms: C_3  and  O_62
REMARK    3  A    between atoms: C_5  and  O_61
REMARK    4  A    between atoms: C_7  and  O_60
REMARK    5  A    between atoms: C_8  and  O_11
REMARK    6  A    between atoms: O_11  and  C_12
REMARK    7  A    between atoms: C_12  and  C_13
REMARK    8  A    between atoms: C_14  and  O_59
REMARK    9  A    between atoms: C_16  and  O_58
REMARK   10  A    between atoms: C_17  and  O_57
REMARK   11  A    between atoms: C_18  and  O_21
REMARK   12  A    between atoms: O_21  and  C_22
REMARK   13  A    between atoms: C_23  and  C_49
REMARK   14  A    between atoms: C_27  and  O_34
REMARK   15  A    between atoms: C_29  and  O_33
REMARK   16  A    between atoms: O_34  and  C_35
REMARK   17  A    between atoms: C_37  and  O_48
REMARK   18  A    between atoms: C_38  and  O_47
REMARK   19  A    between atoms: C_40  and  O_46
REMARK   20  A    between atoms: C_42  and  C_44
REMARK   21  A    between atoms: C_44  and  O_45
REMARK   22  A    between atoms: C_51  and  O_56
REMARK   23  A    between atoms: C_52  and  O_55
REMARK                            x       y       z     vdW  Elec       q    Type
REMARK                         _______ _______ _______ _____ _____    ______ ____
ROOT
ATOM      1  C   UNL     1       6.905  -1.549  25.830  0.00  0.00    +0.214 A 
ATOM      2  C   UNL     1       6.022  -1.822  27.019  0.00  0.00    +0.238 A 
ATOM      3  O   UNL     1       5.925  -2.958  27.474  0.00  0.00    -0.283 OA
ATOM      4  C   UNL     1       5.323  -0.623  27.596  0.00  0.00    +0.109 A 
ATOM      5  C   UNL     1       5.865   0.619  27.325  0.00  0.00    +0.147 A 
ATOM      6  C   UNL     1       5.306   1.828  27.794  0.00  0.00    +0.093 A 
ATOM      7  C   UNL     1       4.164   1.819  28.536  0.00  0.00    +0.131 A 
ATOM      8  C   UNL     1       3.582   0.571  28.828  0.00  0.00    +0.092 A 
ATOM      9  O   UNL     1       6.972   0.755  26.549  0.00  0.00    -0.451 OA
ATOM     10  C   UNL     1       4.165  -0.630  28.384  0.00  0.00    +0.135 A 
ATOM     11  C   UNL     1       7.272  -0.253  25.658  0.00  0.00    +0.181 A 
ENDROOT
BRANCH  11  12
ATOM     12  C   UNL     1       8.027   0.298  24.512  0.00  0.00    +0.025 A 
ATOM     13  C   UNL     1       7.369   0.646  23.330  0.00  0.00    +0.015 A 
ATOM     14  C   UNL     1       8.069   1.135  22.230  0.00  0.00    +0.050 A 
ATOM     15  C   UNL     1       9.390   1.531  22.392  0.00  0.00    +0.158 A 
ATOM     16  C   UNL     1      10.010   1.375  23.627  0.00  0.00    +0.159 A 
ATOM     17  C   UNL     1       9.372   0.689  24.651  0.00  0.00    +0.060 A 
BRANCH  16  18
ATOM     18  O   UNL     1      11.173   2.014  23.953  0.00  0.00    -0.503 OA
ATOM     19  H   UNL     1      11.833   1.779  23.283  0.00  0.00    +0.292 HD
ENDBRANCH  16  18
BRANCH  15  20
ATOM     20  O   UNL     1      10.036   2.164  21.373  0.00  0.00    -0.503 OA
ATOM     21  H   UNL     1      10.354   1.475  20.762  0.00  0.00    +0.292 HD
ENDBRANCH  15  20
ENDBRANCH  11  12
BRANCH  10  22
ATOM     22  O   UNL     1       3.574  -1.820  28.706  0.00  0.00    -0.506 OA
ATOM     23  H   UNL     1       3.820  -2.482  28.039  0.00  0.00    +0.292 HD
ENDBRANCH  10  22
BRANCH   7  24
ATOM     24  O   UNL     1       3.456   2.960  28.965  0.00  0.00    -0.461 OA
BRANCH  24  25
ATOM     25  C   UNL     1       2.179   3.156  28.328  0.00  0.00    +0.339 C 
ATOM     26  O   UNL     1       2.339   3.444  26.939  0.00  0.00    -0.331 OA
ATOM     27  C   UNL     1       2.980   4.710  26.707  0.00  0.00    +0.179 C 
ATOM     28  C   UNL     1       2.120   5.883  27.231  0.00  0.00    +0.177 C 
ATOM     29  C   UNL     1       1.792   5.684  28.724  0.00  0.00    +0.180 C 
ATOM     30  C   UNL     1       1.300   4.250  28.988  0.00  0.00    +0.214 C 
BRANCH  29  31
ATOM     31  O   UNL     1       2.892   6.036  29.569  0.00  0.00    -0.386 OA
ATOM     32  H   UNL     1       3.631   6.378  29.042  0.00  0.00    +0.210 HD
ENDBRANCH  29  31
BRANCH  30  33
ATOM     33  O   UNL     1       1.056   4.009  30.378  0.00  0.00    -0.383 OA
ATOM     34  H   UNL     1       0.165   4.344  30.582  0.00  0.00    +0.210 HD
ENDBRANCH  30  33
BRANCH  28  35
ATOM     35  O   UNL     1       0.910   5.973  26.474  0.00  0.00    -0.386 OA
ATOM     36  H   UNL     1       0.342   6.651  26.882  0.00  0.00    +0.210 HD
ENDBRANCH  28  35
BRANCH  27  37
ATOM     37  C   UNL     1       3.254   4.835  25.202  0.00  0.00    +0.190 C 
BRANCH  37  38
ATOM     38  O   UNL     1       3.325   6.202  24.786  0.00  0.00    -0.392 OA
ATOM     39  H   UNL     1       4.153   6.337  24.300  0.00  0.00    +0.210 HD
ENDBRANCH  37  38
ENDBRANCH  27  37
ENDBRANCH  24  25
ENDBRANCH   7  24
BRANCH   1  40
ATOM     40  O   UNL     1       7.427  -2.560  25.034  0.00  0.00    -0.453 OA
BRANCH  40  43
ATOM     41  C   UNL     1       6.432  -5.775  23.363  0.00  0.00    +0.179 C 
ATOM     42  O   UNL     1       6.993  -4.850  24.320  0.00  0.00    -0.331 OA
ATOM     43  C   UNL     1       6.659  -3.465  24.201  0.00  0.00    +0.340 C 
ATOM     44  C   UNL     1       6.565  -2.897  22.756  0.00  0.00    +0.214 C 
ATOM     45  C   UNL     1       5.700  -3.831  21.906  0.00  0.00    +0.180 C 
ATOM     46  C   UNL     1       6.355  -5.219  21.908  0.00  0.00    +0.177 C 
BRANCH  46  47
ATOM     47  O   UNL     1       5.631  -6.101  21.045  0.00  0.00    -0.386 OA
ATOM     48  H   UNL     1       4.756  -6.256  21.442  0.00  0.00    +0.210 HD
ENDBRANCH  46  47
BRANCH  45  49
ATOM     49  O   UNL     1       5.569  -3.311  20.574  0.00  0.00    -0.386 OA
ATOM     50  H   UNL     1       4.699  -3.604  20.243  0.00  0.00    +0.210 HD
ENDBRANCH  45  49
BRANCH  44  51
ATOM     51  O   UNL     1       7.834  -2.742  22.089  0.00  0.00    -0.383 OA
ATOM     52  H   UNL     1       7.967  -1.792  21.880  0.00  0.00    +0.210 HD
ENDBRANCH  44  51
BRANCH  41  53
ATOM     53  C   UNL     1       5.072  -6.427  23.782  0.00  0.00    +0.197 C 
BRANCH  53  54
ATOM     54  O   UNL     1       4.150  -5.622  24.513  0.00  0.00    -0.346 OA
BRANCH  54  58
ATOM     55  C   UNL     1       1.205  -5.310  27.670  0.00  0.00    +0.041 C 
ATOM     56  C   UNL     1       2.636  -4.783  27.709  0.00  0.00    +0.149 C 
ATOM     57  O   UNL     1       3.191  -4.746  26.384  0.00  0.00    -0.343 OA
ATOM     58  C   UNL     1       3.685  -5.978  25.814  0.00  0.00    +0.282 C 
ATOM     59  C   UNL     1       4.748  -6.555  26.778  0.00  0.00    +0.201 C 
ATOM     60  C   UNL     1       4.040  -6.845  28.117  0.00  0.00    +0.179 C 
ATOM     61  C   UNL     1       3.498  -5.546  28.732  0.00  0.00    +0.174 C 
BRANCH  61  62
ATOM     62  O   UNL     1       4.577  -4.722  29.196  0.00  0.00    -0.387 OA
ATOM     63  H   UNL     1       4.793  -4.099  28.468  0.00  0.00    +0.210 HD
ENDBRANCH  61  62
BRANCH  60  64
ATOM     64  O   UNL     1       4.901  -7.540  29.025  0.00  0.00    -0.386 OA
ATOM     65  H   UNL     1       4.477  -7.526  29.904  0.00  0.00    +0.210 HD
ENDBRANCH  60  64
BRANCH  59  66
ATOM     66  O   UNL     1       5.822  -5.608  26.983  0.00  0.00    -0.384 OA
ATOM     67  H   UNL     1       5.746  -5.291  27.906  0.00  0.00    +0.210 HD
ENDBRANCH  59  66
ENDBRANCH  54  58
ENDBRANCH  53  54
ENDBRANCH  41  53
ENDBRANCH  40  43
ENDBRANCH   1  40
TORSDOF 22
ENDMDL
