MODEL 1
REMARK VINA RESULT:      -7.4      0.000      0.000
REMARK  Name = 
REMARK  22 active torsions:
REMARK  status: ('A' for Active; 'I' for Inactive)
REMARK    1  A    between atoms: C_1  and  C_2
REMARK    2  A    between atoms: C_3  and  O_62
REMARK    3  A    between atoms: C_5  and  O_61
REMARK    4  A    between atoms: C_6  and  O_60
REMARK    5  A    between atoms: C_8  and  O_11
REMARK    6  A    between atoms: O_11  and  C_12
REMARK    7  A    between atoms: C_14  and  O_59
REMARK    8  A    between atoms: C_19  and  C_50
REMARK    9  A    between atoms: C_20  and  O_23
REMARK   10  A    between atoms: O_23  and  C_24
REMARK   11  A    between atoms: C_26  and  O_37
REMARK   12  A    between atoms: C_27  and  O_36
REMARK   13  A    between atoms: C_29  and  O_35
REMARK   14  A    between atoms: C_31  and  C_33
REMARK   15  A    between atoms: C_33  and  O_34
REMARK   16  A    between atoms: O_37  and  C_38
REMARK   17  A    between atoms: C_40  and  O_49
REMARK   18  A    between atoms: C_41  and  O_48
REMARK   19  A    between atoms: C_43  and  O_47
REMARK   20  A    between atoms: C_52  and  O_57
REMARK   21  A    between atoms: C_53  and  O_56
REMARK   22  A    between atoms: O_57  and  C_58
REMARK                            x       y       z     vdW  Elec       q    Type
REMARK                         _______ _______ _______ _____ _____    ______ ____
ROOT
ATOM      1  C   UNL     1       5.044   2.594  25.585  0.00  0.00    +0.131 A 
ATOM      2  C   UNL     1       6.037   1.613  25.667  0.00  0.00    +0.093 A 
ATOM      3  C   UNL     1       5.810   0.428  26.381  0.00  0.00    +0.147 A 
ATOM      4  O   UNL     1       6.831  -0.486  26.458  0.00  0.00    -0.451 OA
ATOM      5  C   UNL     1       6.510  -1.831  26.712  0.00  0.00    +0.181 A 
ATOM      6  C   UNL     1       5.341  -2.197  27.320  0.00  0.00    +0.214 A 
ATOM      7  C   UNL     1       4.451  -1.053  27.745  0.00  0.00    +0.238 A 
ATOM      8  O   UNL     1       3.645  -1.133  28.663  0.00  0.00    -0.283 OA
ATOM      9  C   UNL     1       4.596   0.203  27.002  0.00  0.00    +0.109 A 
ATOM     10  C   UNL     1       3.587   1.167  26.905  0.00  0.00    +0.135 A 
ATOM     11  C   UNL     1       3.813   2.358  26.205  0.00  0.00    +0.092 A 
ENDROOT
BRANCH   5  12
ATOM     12  C   UNL     1       7.600  -2.745  26.211  0.00  0.00    +0.025 A 
ATOM     13  C   UNL     1       7.823  -3.991  26.846  0.00  0.00    +0.015 A 
ATOM     14  C   UNL     1       8.868  -4.844  26.469  0.00  0.00    +0.050 A 
ATOM     15  C   UNL     1       9.705  -4.470  25.433  0.00  0.00    +0.158 A 
ATOM     16  C   UNL     1       9.484  -3.278  24.734  0.00  0.00    +0.162 A 
ATOM     17  C   UNL     1       8.424  -2.439  25.113  0.00  0.00    +0.061 A 
BRANCH  16  18
ATOM     18  O   UNL     1      10.372  -3.061  23.709  0.00  0.00    -0.491 OA
ATOM     19  C   UNL     1      10.164  -1.885  22.944  0.00  0.00    +0.277 C 
ENDBRANCH  16  18
BRANCH  15  20
ATOM     20  O   UNL     1      10.759  -5.270  25.110  0.00  0.00    -0.503 OA
ATOM     21  H   UNL     1      11.490  -4.654  24.901  0.00  0.00    +0.292 HD
ENDBRANCH  15  20
ENDBRANCH   5  12
BRANCH  10  22
ATOM     22  O   UNL     1       2.356   0.939  27.451  0.00  0.00    -0.506 OA
ATOM     23  H   UNL     1       2.449   0.742  28.395  0.00  0.00    +0.292 HD
ENDBRANCH  10  22
BRANCH   6  24
ATOM     24  O   UNL     1       4.910  -3.525  27.441  0.00  0.00    -0.453 OA
BRANCH  24  25
ATOM     25  C   UNL     1       3.802  -3.977  26.637  0.00  0.00    +0.340 C 
ATOM     26  O   UNL     1       2.829  -4.688  27.449  0.00  0.00    -0.331 OA
ATOM     27  C   UNL     1       3.100  -6.070  27.712  0.00  0.00    +0.179 C 
ATOM     28  C   UNL     1       3.295  -6.866  26.421  0.00  0.00    +0.177 C 
ATOM     29  C   UNL     1       4.486  -6.273  25.682  0.00  0.00    +0.180 C 
ATOM     30  C   UNL     1       4.207  -4.794  25.347  0.00  0.00    +0.221 C 
BRANCH  28  31
ATOM     31  O   UNL     1       2.108  -6.810  25.612  0.00  0.00    -0.386 OA
ATOM     32  H   UNL     1       2.037  -5.900  25.256  0.00  0.00    +0.210 HD
ENDBRANCH  28  31
BRANCH  29  33
ATOM     33  O   UNL     1       5.690  -6.426  26.435  0.00  0.00    -0.386 OA
ATOM     34  H   UNL     1       5.555  -5.965  27.287  0.00  0.00    +0.210 HD
ENDBRANCH  29  33
BRANCH  30  35
ATOM     35  O   UNL     1       5.239  -4.226  24.482  0.00  0.00    -0.337 OA
BRANCH  35  36
ATOM     36  C   UNL     1       4.812  -4.006  23.102  0.00  0.00    +0.282 C 
ATOM     37  O   UNL     1       4.092  -5.130  22.569  0.00  0.00    -0.346 OA
ATOM     38  C   UNL     1       4.840  -6.234  22.043  0.00  0.00    +0.197 C 
ATOM     39  C   UNL     1       6.155  -5.919  21.304  0.00  0.00    +0.171 C 
ATOM     40  C   UNL     1       6.908  -4.788  21.995  0.00  0.00    +0.178 C 
ATOM     41  C   UNL     1       5.932  -3.607  22.108  0.00  0.00    +0.201 C 
BRANCH  41  42
ATOM     42  O   UNL     1       6.592  -2.372  22.402  0.00  0.00    -0.384 OA
ATOM     43  H   UNL     1       7.260  -2.549  23.084  0.00  0.00    +0.210 HD
ENDBRANCH  41  42
BRANCH  40  44
ATOM     44  O   UNL     1       7.452  -5.199  23.243  0.00  0.00    -0.386 OA
ATOM     45  H   UNL     1       6.822  -5.033  23.980  0.00  0.00    +0.210 HD
ENDBRANCH  40  44
BRANCH  39  46
ATOM     46  O   UNL     1       5.884  -5.532  19.945  0.00  0.00    -0.387 OA
ATOM     47  H   UNL     1       6.608  -5.873  19.386  0.00  0.00    +0.210 HD
ENDBRANCH  39  46
ENDBRANCH  35  36
ENDBRANCH  30  35
BRANCH  27  48
ATOM     48  C   UNL     1       1.946  -6.670  28.540  0.00  0.00    +0.190 C 
BRANCH  48  49
ATOM     49  O   UNL     1       1.743  -8.061  28.322  0.00  0.00    -0.392 OA
ATOM     50  H   UNL     1       1.179  -8.142  27.525  0.00  0.00    +0.210 HD
ENDBRANCH  48  49
ENDBRANCH  27  48
ENDBRANCH  24  25
ENDBRANCH   6  24
BRANCH   1  51
ATOM     51  O   UNL     1       5.125   3.802  24.933  0.00  0.00    -0.461 OA
BRANCH  51  55
ATOM     52  C   UNL     1       9.295   3.499  24.066  0.00  0.00    +0.041 C 
ATOM     53  C   UNL     1       8.622   4.819  24.438  0.00  0.00    +0.150 C 
ATOM     54  O   UNL     1       7.355   4.595  25.066  0.00  0.00    -0.334 OA
ATOM     55  C   UNL     1       6.327   4.088  24.203  0.00  0.00    +0.339 C 
ATOM     56  C   UNL     1       6.045   5.104  23.068  0.00  0.00    +0.214 C 
ATOM     57  C   UNL     1       7.352   5.359  22.300  0.00  0.00    +0.180 C 
ATOM     58  C   UNL     1       8.487   5.779  23.249  0.00  0.00    +0.174 C 
BRANCH  58  59
ATOM     59  O   UNL     1       8.201   7.108  23.724  0.00  0.00    -0.387 OA
ATOM     60  H   UNL     1       7.259   7.104  24.007  0.00  0.00    +0.210 HD
ENDBRANCH  58  59
BRANCH  57  61
ATOM     61  O   UNL     1       7.136   6.395  21.327  0.00  0.00    -0.386 OA
ATOM     62  H   UNL     1       7.272   5.974  20.451  0.00  0.00    +0.210 HD
ENDBRANCH  57  61
BRANCH  56  63
ATOM     63  O   UNL     1       5.566   6.367  23.574  0.00  0.00    -0.383 OA
ATOM     64  H   UNL     1       4.695   6.170  23.978  0.00  0.00    +0.210 HD
ENDBRANCH  56  63
ENDBRANCH  51  55
ENDBRANCH   1  51
TORSDOF 20
ENDMDL
MODEL 2
REMARK VINA RESULT:      -7.2      2.315     10.145
REMARK  Name = 
REMARK  22 active torsions:
REMARK  status: ('A' for Active; 'I' for Inactive)
REMARK    1  A    between atoms: C_1  and  C_2
REMARK    2  A    between atoms: C_3  and  O_62
REMARK    3  A    between atoms: C_5  and  O_61
REMARK    4  A    between atoms: C_6  and  O_60
REMARK    5  A    between atoms: C_8  and  O_11
REMARK    6  A    between atoms: O_11  and  C_12
REMARK    7  A    between atoms: C_14  and  O_59
REMARK    8  A    between atoms: C_19  and  C_50
REMARK    9  A    between atoms: C_20  and  O_23
REMARK   10  A    between atoms: O_23  and  C_24
REMARK   11  A    between atoms: C_26  and  O_37
REMARK   12  A    between atoms: C_27  and  O_36
REMARK   13  A    between atoms: C_29  and  O_35
REMARK   14  A    between atoms: C_31  and  C_33
REMARK   15  A    between atoms: C_33  and  O_34
REMARK   16  A    between atoms: O_37  and  C_38
REMARK   17  A    between atoms: C_40  and  O_49
REMARK   18  A    between atoms: C_41  and  O_48
REMARK   19  A    between atoms: C_43  and  O_47
REMARK   20  A    between atoms: C_52  and  O_57
REMARK   21  A    between atoms: C_53  and  O_56
REMARK   22  A    between atoms: O_57  and  C_58
REMARK                            x       y       z     vdW  Elec       q    Type
REMARK                         _______ _______ _______ _____ _____    ______ ____
ROOT
ATOM      1  C   UNL     1       7.298  -3.388  23.658  0.00  0.00    +0.131 A 
ATOM      2  C   UNL     1       6.909  -2.552  24.709  0.00  0.00    +0.093 A 
ATOM      3  C   UNL     1       7.645  -1.397  25.010  0.00  0.00    +0.147 A 
ATOM      4  O   UNL     1       7.240  -0.631  26.074  0.00  0.00    -0.451 OA
ATOM      5  C   UNL     1       7.610   0.724  26.104  0.00  0.00    +0.181 A 
ATOM      6  C   UNL     1       8.689   1.199  25.411  0.00  0.00    +0.214 A 
ATOM      7  C   UNL     1       9.479   0.155  24.657  0.00  0.00    +0.238 A 
ATOM      8  O   UNL     1      10.665   0.279  24.382  0.00  0.00    -0.283 OA
ATOM      9  C   UNL     1       8.756  -1.057  24.261  0.00  0.00    +0.109 A 
ATOM     10  C   UNL     1       9.138  -1.874  23.192  0.00  0.00    +0.135 A 
ATOM     11  C   UNL     1       8.415  -3.035  22.895  0.00  0.00    +0.092 A 
ENDROOT
BRANCH   5  12
ATOM     12  C   UNL     1       6.660   1.519  26.965  0.00  0.00    +0.025 A 
ATOM     13  C   UNL     1       5.311   1.109  27.090  0.00  0.00    +0.015 A 
ATOM     14  C   UNL     1       4.369   1.851  27.816  0.00  0.00    +0.050 A 
ATOM     15  C   UNL     1       4.769   3.016  28.447  0.00  0.00    +0.158 A 
ATOM     16  C   UNL     1       6.106   3.427  28.405  0.00  0.00    +0.162 A 
ATOM     17  C   UNL     1       7.042   2.666  27.685  0.00  0.00    +0.061 A 
BRANCH  16  18
ATOM     18  O   UNL     1       6.357   4.578  29.108  0.00  0.00    -0.491 OA
ATOM     19  C   UNL     1       6.985   4.414  30.369  0.00  0.00    +0.277 C 
ENDBRANCH  16  18
BRANCH  15  20
ATOM     20  O   UNL     1       3.839   3.769  29.098  0.00  0.00    -0.503 OA
ATOM     21  H   UNL     1       3.081   3.167  29.240  0.00  0.00    +0.292 HD
ENDBRANCH  15  20
ENDBRANCH   5  12
BRANCH  10  22
ATOM     22  O   UNL     1      10.191  -1.523  22.394  0.00  0.00    -0.506 OA
ATOM     23  H   UNL     1      10.954  -1.292  22.945  0.00  0.00    +0.292 HD
ENDBRANCH  10  22
BRANCH   6  24
ATOM     24  O   UNL     1       8.992   2.561  25.281  0.00  0.00    -0.453 OA
BRANCH  24  25
ATOM     25  C   UNL     1       8.796   3.204  24.006  0.00  0.00    +0.340 C 
ATOM     26  O   UNL     1      10.037   3.790  23.526  0.00  0.00    -0.331 OA
ATOM     27  C   UNL     1      10.374   5.085  24.038  0.00  0.00    +0.179 C 
ATOM     28  C   UNL     1       9.258   6.101  23.795  0.00  0.00    +0.177 C 
ATOM     29  C   UNL     1       8.012   5.607  24.516  0.00  0.00    +0.180 C 
ATOM     30  C   UNL     1       7.598   4.230  23.957  0.00  0.00    +0.221 C 
BRANCH  28  31
ATOM     31  O   UNL     1       9.011   6.249  22.386  0.00  0.00    -0.386 OA
ATOM     32  H   UNL     1       8.170   5.789  22.184  0.00  0.00    +0.210 HD
ENDBRANCH  28  31
BRANCH  29  33
ATOM     33  O   UNL     1       8.216   5.563  25.929  0.00  0.00    -0.386 OA
ATOM     34  H   UNL     1       8.693   4.733  26.124  0.00  0.00    +0.210 HD
ENDBRANCH  29  33
BRANCH  30  35
ATOM     35  O   UNL     1       6.308   3.792  24.487  0.00  0.00    -0.337 OA
BRANCH  35  36
ATOM     36  C   UNL     1       5.240   4.782  24.364  0.00  0.00    +0.282 C 
ATOM     37  O   UNL     1       4.152   4.523  25.267  0.00  0.00    -0.346 OA
ATOM     38  C   UNL     1       3.156   3.565  24.880  0.00  0.00    +0.197 C 
ATOM     39  C   UNL     1       2.770   3.499  23.390  0.00  0.00    +0.171 C 
ATOM     40  C   UNL     1       3.998   3.677  22.503  0.00  0.00    +0.178 C 
ATOM     41  C   UNL     1       4.673   4.986  22.936  0.00  0.00    +0.201 C 
BRANCH  41  42
ATOM     42  O   UNL     1       5.617   5.466  21.972  0.00  0.00    -0.384 OA
ATOM     43  H   UNL     1       5.142   6.052  21.361  0.00  0.00    +0.210 HD
ENDBRANCH  41  42
BRANCH  40  44
ATOM     44  O   UNL     1       4.858   2.546  22.557  0.00  0.00    -0.386 OA
ATOM     45  H   UNL     1       4.361   1.710  22.414  0.00  0.00    +0.210 HD
ENDBRANCH  40  44
BRANCH  39  46
ATOM     46  O   UNL     1       1.818   4.529  23.073  0.00  0.00    -0.387 OA
ATOM     47  H   UNL     1       2.217   5.109  22.396  0.00  0.00    +0.210 HD
ENDBRANCH  39  46
ENDBRANCH  35  36
ENDBRANCH  30  35
BRANCH  27  48
ATOM     48  C   UNL     1      11.686   5.567  23.386  0.00  0.00    +0.190 C 
BRANCH  48  49
ATOM     49  O   UNL     1      12.693   5.934  24.320  0.00  0.00    -0.392 OA
ATOM     50  H   UNL     1      12.294   6.598  24.920  0.00  0.00    +0.210 HD
ENDBRANCH  48  49
ENDBRANCH  27  48
ENDBRANCH  24  25
ENDBRANCH   6  24
BRANCH   1  51
ATOM     51  O   UNL     1       6.684  -4.551  23.255  0.00  0.00    -0.461 OA
BRANCH  51  55
ATOM     52  C   UNL     1       4.210  -5.461  26.613  0.00  0.00    +0.041 C 
ATOM     53  C   UNL     1       4.497  -6.469  25.500  0.00  0.00    +0.150 C 
ATOM     54  O   UNL     1       5.643  -6.081  24.735  0.00  0.00    -0.334 OA
ATOM     55  C   UNL     1       5.462  -4.923  23.909  0.00  0.00    +0.339 C 
ATOM     56  C   UNL     1       4.347  -5.191  22.866  0.00  0.00    +0.214 C 
ATOM     57  C   UNL     1       3.055  -5.560  23.611  0.00  0.00    +0.180 C 
ATOM     58  C   UNL     1       3.286  -6.721  24.593  0.00  0.00    +0.174 C 
BRANCH  58  59
ATOM     59  O   UNL     1       3.494  -7.920  23.823  0.00  0.00    -0.387 OA
ATOM     60  H   UNL     1       4.466  -8.003  23.697  0.00  0.00    +0.210 HD
ENDBRANCH  58  59
BRANCH  57  61
ATOM     61  O   UNL     1       2.047  -5.937  22.657  0.00  0.00    -0.386 OA
ATOM     62  H   UNL     1       1.773  -6.846  22.900  0.00  0.00    +0.210 HD
ENDBRANCH  57  61
BRANCH  56  63
ATOM     63  O   UNL     1       4.682  -6.278  21.978  0.00  0.00    -0.383 OA
ATOM     64  H   UNL     1       5.615  -6.500  22.182  0.00  0.00    +0.210 HD
ENDBRANCH  56  63
ENDBRANCH  51  55
ENDBRANCH   1  51
TORSDOF 20
ENDMDL
MODEL 3
REMARK VINA RESULT:      -6.9      1.469      2.297
REMARK  Name = 
REMARK  22 active torsions:
REMARK  status: ('A' for Active; 'I' for Inactive)
REMARK    1  A    between atoms: C_1  and  C_2
REMARK    2  A    between atoms: C_3  and  O_62
REMARK    3  A    between atoms: C_5  and  O_61
REMARK    4  A    between atoms: C_6  and  O_60
REMARK    5  A    between atoms: C_8  and  O_11
REMARK    6  A    between atoms: O_11  and  C_12
REMARK    7  A    between atoms: C_14  and  O_59
REMARK    8  A    between atoms: C_19  and  C_50
REMARK    9  A    between atoms: C_20  and  O_23
REMARK   10  A    between atoms: O_23  and  C_24
REMARK   11  A    between atoms: C_26  and  O_37
REMARK   12  A    between atoms: C_27  and  O_36
REMARK   13  A    between atoms: C_29  and  O_35
REMARK   14  A    between atoms: C_31  and  C_33
REMARK   15  A    between atoms: C_33  and  O_34
REMARK   16  A    between atoms: O_37  and  C_38
REMARK   17  A    between atoms: C_40  and  O_49
REMARK   18  A    between atoms: C_41  and  O_48
REMARK   19  A    between atoms: C_43  and  O_47
REMARK   20  A    between atoms: C_52  and  O_57
REMARK   21  A    between atoms: C_53  and  O_56
REMARK   22  A    between atoms: O_57  and  C_58
REMARK                            x       y       z     vdW  Elec       q    Type
REMARK                         _______ _______ _______ _____ _____    ______ ____
ROOT
ATOM      1  C   UNL     1       4.861   2.494  25.653  0.00  0.00    +0.131 A 
ATOM      2  C   UNL     1       5.875   1.535  25.725  0.00  0.00    +0.093 A 
ATOM      3  C   UNL     1       5.678   0.342  26.436  0.00  0.00    +0.147 A 
ATOM      4  O   UNL     1       6.718  -0.550  26.503  0.00  0.00    -0.451 OA
ATOM      5  C   UNL     1       6.427  -1.902  26.754  0.00  0.00    +0.181 A 
ATOM      6  C   UNL     1       5.271  -2.296  27.367  0.00  0.00    +0.214 A 
ATOM      7  C   UNL     1       4.359  -1.172  27.802  0.00  0.00    +0.238 A 
ATOM      8  O   UNL     1       3.560  -1.273  28.724  0.00  0.00    -0.283 OA
ATOM      9  C   UNL     1       4.472   0.089  27.063  0.00  0.00    +0.109 A 
ATOM     10  C   UNL     1       3.443   1.032  26.976  0.00  0.00    +0.135 A 
ATOM     11  C   UNL     1       3.639   2.229  26.279  0.00  0.00    +0.092 A 
ENDROOT
BRANCH   5  12
ATOM     12  C   UNL     1       7.534  -2.791  26.243  0.00  0.00    +0.025 A 
ATOM     13  C   UNL     1       7.771  -4.046  26.856  0.00  0.00    +0.015 A 
ATOM     14  C   UNL     1       8.831  -4.876  26.470  0.00  0.00    +0.050 A 
ATOM     15  C   UNL     1       9.669  -4.470  25.446  0.00  0.00    +0.158 A 
ATOM     16  C   UNL     1       9.435  -3.269  24.767  0.00  0.00    +0.162 A 
ATOM     17  C   UNL     1       8.360  -2.452  25.156  0.00  0.00    +0.061 A 
BRANCH  16  18
ATOM     18  O   UNL     1      10.325  -3.020  23.753  0.00  0.00    -0.491 OA
ATOM     19  C   UNL     1      10.072  -1.863  22.973  0.00  0.00    +0.277 C 
ENDBRANCH  16  18
BRANCH  15  20
ATOM     20  O   UNL     1      10.736  -5.249  25.115  0.00  0.00    -0.503 OA
ATOM     21  H   UNL     1      11.479  -4.899  25.647  0.00  0.00    +0.292 HD
ENDBRANCH  15  20
ENDBRANCH   5  12
BRANCH  10  22
ATOM     22  O   UNL     1       2.220   0.775  27.528  0.00  0.00    -0.506 OA
ATOM     23  H   UNL     1       1.866   1.584  27.928  0.00  0.00    +0.292 HD
ENDBRANCH  10  22
BRANCH   6  24
ATOM     24  O   UNL     1       4.869  -3.633  27.485  0.00  0.00    -0.453 OA
BRANCH  24  25
ATOM     25  C   UNL     1       3.757  -4.102  26.696  0.00  0.00    +0.340 C 
ATOM     26  O   UNL     1       2.804  -4.823  27.523  0.00  0.00    -0.331 OA
ATOM     27  C   UNL     1       3.096  -6.200  27.786  0.00  0.00    +0.179 C 
ATOM     28  C   UNL     1       3.286  -6.998  26.495  0.00  0.00    +0.177 C 
ATOM     29  C   UNL     1       4.459  -6.391  25.739  0.00  0.00    +0.180 C 
ATOM     30  C   UNL     1       4.157  -4.917  25.404  0.00  0.00    +0.221 C 
BRANCH  28  31
ATOM     31  O   UNL     1       2.088  -6.960  25.700  0.00  0.00    -0.386 OA
ATOM     32  H   UNL     1       2.346  -7.126  24.770  0.00  0.00    +0.210 HD
ENDBRANCH  28  31
BRANCH  29  33
ATOM     33  O   UNL     1       5.675  -6.527  26.479  0.00  0.00    -0.386 OA
ATOM     34  H   UNL     1       6.003  -7.434  26.325  0.00  0.00    +0.210 HD
ENDBRANCH  29  33
BRANCH  30  35
ATOM     35  O   UNL     1       5.171  -4.339  24.525  0.00  0.00    -0.337 OA
BRANCH  35  36
ATOM     36  C   UNL     1       4.722  -4.121  23.152  0.00  0.00    +0.282 C 
ATOM     37  O   UNL     1       4.077  -5.281  22.599  0.00  0.00    -0.346 OA
ATOM     38  C   UNL     1       4.897  -6.321  22.047  0.00  0.00    +0.197 C 
ATOM     39  C   UNL     1       6.182  -5.901  21.308  0.00  0.00    +0.171 C 
ATOM     40  C   UNL     1       6.860  -4.734  22.019  0.00  0.00    +0.178 C 
ATOM     41  C   UNL     1       5.805  -3.626  22.160  0.00  0.00    +0.201 C 
BRANCH  41  42
ATOM     42  O   UNL     1       6.381  -2.354  22.476  0.00  0.00    -0.384 OA
ATOM     43  H   UNL     1       5.862  -1.967  23.200  0.00  0.00    +0.210 HD
ENDBRANCH  41  42
BRANCH  40  44
ATOM     44  O   UNL     1       7.438  -5.132  23.256  0.00  0.00    -0.386 OA
ATOM     45  H   UNL     1       7.951  -5.966  23.160  0.00  0.00    +0.210 HD
ENDBRANCH  40  44
BRANCH  39  46
ATOM     46  O   UNL     1       5.877  -5.506  19.959  0.00  0.00    -0.387 OA
ATOM     47  H   UNL     1       6.607  -5.810  19.385  0.00  0.00    +0.210 HD
ENDBRANCH  39  46
ENDBRANCH  35  36
ENDBRANCH  30  35
BRANCH  27  48
ATOM     48  C   UNL     1       1.960  -6.813  28.629  0.00  0.00    +0.190 C 
BRANCH  48  49
ATOM     49  O   UNL     1       1.768  -8.206  28.413  0.00  0.00    -0.392 OA
ATOM     50  H   UNL     1       2.490  -8.667  28.890  0.00  0.00    +0.210 HD
ENDBRANCH  48  49
ENDBRANCH  27  48
ENDBRANCH  24  25
ENDBRANCH   6  24
BRANCH   1  51
ATOM     51  O   UNL     1       4.912   3.706  25.005  0.00  0.00    -0.461 OA
BRANCH  51  55
ATOM     52  C   UNL     1       0.863   3.494  23.669  0.00  0.00    +0.041 C 
ATOM     53  C   UNL     1       2.052   3.208  22.753  0.00  0.00    +0.150 C 
ATOM     54  O   UNL     1       3.238   2.946  23.511  0.00  0.00    -0.334 OA
ATOM     55  C   UNL     1       3.787   4.079  24.196  0.00  0.00    +0.339 C 
ATOM     56  C   UNL     1       4.192   5.168  23.171  0.00  0.00    +0.214 C 
ATOM     57  C   UNL     1       2.953   5.553  22.346  0.00  0.00    +0.180 C 
ATOM     58  C   UNL     1       2.291   4.315  21.718  0.00  0.00    +0.174 C 
BRANCH  58  59
ATOM     59  O   UNL     1       3.157   3.829  20.675  0.00  0.00    -0.387 OA
ATOM     60  H   UNL     1       2.704   4.028  19.824  0.00  0.00    +0.210 HD
ENDBRANCH  58  59
BRANCH  57  61
ATOM     61  O   UNL     1       3.339   6.467  21.306  0.00  0.00    -0.386 OA
ATOM     62  H   UNL     1       4.309   6.586  21.400  0.00  0.00    +0.210 HD
ENDBRANCH  57  61
BRANCH  56  63
ATOM     63  O   UNL     1       5.213   4.707  22.261  0.00  0.00    -0.383 OA
ATOM     64  H   UNL     1       5.853   4.216  22.818  0.00  0.00    +0.210 HD
ENDBRANCH  56  63
ENDBRANCH  51  55
ENDBRANCH   1  51
TORSDOF 20
ENDMDL
MODEL 4
REMARK VINA RESULT:      -6.7      2.005      4.526
REMARK  Name = 
REMARK  22 active torsions:
REMARK  status: ('A' for Active; 'I' for Inactive)
REMARK    1  A    between atoms: C_1  and  C_2
REMARK    2  A    between atoms: C_3  and  O_62
REMARK    3  A    between atoms: C_5  and  O_61
REMARK    4  A    between atoms: C_6  and  O_60
REMARK    5  A    between atoms: C_8  and  O_11
REMARK    6  A    between atoms: O_11  and  C_12
REMARK    7  A    between atoms: C_14  and  O_59
REMARK    8  A    between atoms: C_19  and  C_50
REMARK    9  A    between atoms: C_20  and  O_23
REMARK   10  A    between atoms: O_23  and  C_24
REMARK   11  A    between atoms: C_26  and  O_37
REMARK   12  A    between atoms: C_27  and  O_36
REMARK   13  A    between atoms: C_29  and  O_35
REMARK   14  A    between atoms: C_31  and  C_33
REMARK   15  A    between atoms: C_33  and  O_34
REMARK   16  A    between atoms: O_37  and  C_38
REMARK   17  A    between atoms: C_40  and  O_49
REMARK   18  A    between atoms: C_41  and  O_48
REMARK   19  A    between atoms: C_43  and  O_47
REMARK   20  A    between atoms: C_52  and  O_57
REMARK   21  A    between atoms: C_53  and  O_56
REMARK   22  A    between atoms: O_57  and  C_58
REMARK                            x       y       z     vdW  Elec       q    Type
REMARK                         _______ _______ _______ _____ _____    ______ ____
ROOT
ATOM      1  C   UNL     1       8.618   2.818  24.803  0.00  0.00    +0.131 A 
ATOM      2  C   UNL     1       7.390   2.436  25.351  0.00  0.00    +0.093 A 
ATOM      3  C   UNL     1       7.083   1.080  25.534  0.00  0.00    +0.147 A 
ATOM      4  O   UNL     1       5.850   0.758  26.042  0.00  0.00    -0.451 OA
ATOM      5  C   UNL     1       5.692  -0.481  26.685  0.00  0.00    +0.181 A 
ATOM      6  C   UNL     1       6.524  -1.539  26.442  0.00  0.00    +0.214 A 
ATOM      7  C   UNL     1       7.587  -1.293  25.397  0.00  0.00    +0.238 A 
ATOM      8  O   UNL     1       8.096  -2.186  24.732  0.00  0.00    -0.283 OA
ATOM      9  C   UNL     1       7.997   0.100  25.192  0.00  0.00    +0.109 A 
ATOM     10  C   UNL     1       9.238   0.474  24.667  0.00  0.00    +0.135 A 
ATOM     11  C   UNL     1       9.545   1.825  24.470  0.00  0.00    +0.092 A 
ENDROOT
BRANCH   5  12
ATOM     12  C   UNL     1       4.529  -0.441  27.645  0.00  0.00    +0.025 A 
ATOM     13  C   UNL     1       4.750  -0.127  29.009  0.00  0.00    +0.015 A 
ATOM     14  C   UNL     1       3.718  -0.148  29.956  0.00  0.00    +0.050 A 
ATOM     15  C   UNL     1       2.435  -0.471  29.550  0.00  0.00    +0.158 A 
ATOM     16  C   UNL     1       2.157  -0.725  28.203  0.00  0.00    +0.162 A 
ATOM     17  C   UNL     1       3.198  -0.687  27.261  0.00  0.00    +0.061 A 
BRANCH  16  18
ATOM     18  O   UNL     1       0.835  -0.993  27.949  0.00  0.00    -0.491 OA
ATOM     19  C   UNL     1       0.559  -2.241  27.334  0.00  0.00    +0.277 C 
ENDBRANCH  16  18
BRANCH  15  20
ATOM     20  O   UNL     1       1.446  -0.553  30.484  0.00  0.00    -0.503 OA
ATOM     21  H   UNL     1       0.858   0.206  30.295  0.00  0.00    +0.292 HD
ENDBRANCH  15  20
ENDBRANCH   5  12
BRANCH  10  22
ATOM     22  O   UNL     1      10.184  -0.471  24.386  0.00  0.00    -0.506 OA
ATOM     23  H   UNL     1      10.187  -0.657  23.435  0.00  0.00    +0.292 HD
ENDBRANCH  10  22
BRANCH   6  24
ATOM     24  O   UNL     1       6.503  -2.730  27.178  0.00  0.00    -0.453 OA
BRANCH  24  25
ATOM     25  C   UNL     1       5.391  -3.633  27.018  0.00  0.00    +0.340 C 
ATOM     26  O   UNL     1       4.856  -4.029  28.311  0.00  0.00    -0.331 OA
ATOM     27  C   UNL     1       5.528  -5.101  28.982  0.00  0.00    +0.179 C 
ATOM     28  C   UNL     1       5.609  -6.356  28.111  0.00  0.00    +0.177 C 
ATOM     29  C   UNL     1       6.396  -6.003  26.856  0.00  0.00    +0.180 C 
ATOM     30  C   UNL     1       5.674  -4.878  26.088  0.00  0.00    +0.221 C 
BRANCH  28  31
ATOM     31  O   UNL     1       4.290  -6.821  27.776  0.00  0.00    -0.386 OA
ATOM     32  H   UNL     1       3.994  -6.324  26.987  0.00  0.00    +0.210 HD
ENDBRANCH  28  31
BRANCH  29  33
ATOM     33  O   UNL     1       7.742  -5.646  27.175  0.00  0.00    -0.386 OA
ATOM     34  H   UNL     1       7.702  -4.841  27.728  0.00  0.00    +0.210 HD
ENDBRANCH  29  33
BRANCH  30  35
ATOM     35  O   UNL     1       6.289  -4.625  24.787  0.00  0.00    -0.337 OA
BRANCH  35  36
ATOM     36  C   UNL     1       5.356  -4.668  23.663  0.00  0.00    +0.282 C 
ATOM     37  O   UNL     1       5.193  -5.998  23.142  0.00  0.00    -0.346 OA
ATOM     38  C   UNL     1       6.165  -6.490  22.209  0.00  0.00    +0.197 C 
ATOM     39  C   UNL     1       6.763  -5.487  21.204  0.00  0.00    +0.171 C 
ATOM     40  C   UNL     1       7.003  -4.134  21.865  0.00  0.00    +0.178 C 
ATOM     41  C   UNL     1       5.668  -3.703  22.492  0.00  0.00    +0.201 C 
BRANCH  41  42
ATOM     42  O   UNL     1       5.642  -2.311  22.830  0.00  0.00    -0.384 OA
ATOM     43  H   UNL     1       6.114  -2.203  23.672  0.00  0.00    +0.210 HD
ENDBRANCH  41  42
BRANCH  40  44
ATOM     44  O   UNL     1       8.079  -4.182  22.793  0.00  0.00    -0.386 OA
ATOM     45  H   UNL     1       8.119  -3.365  23.338  0.00  0.00    +0.210 HD
ENDBRANCH  40  44
BRANCH  39  46
ATOM     46  O   UNL     1       5.872  -5.305  20.089  0.00  0.00    -0.387 OA
ATOM     47  H   UNL     1       4.983  -5.601  20.364  0.00  0.00    +0.210 HD
ENDBRANCH  39  46
ENDBRANCH  35  36
ENDBRANCH  30  35
BRANCH  27  48
ATOM     48  C   UNL     1       4.798  -5.416  30.303  0.00  0.00    +0.190 C 
BRANCH  48  49
ATOM     49  O   UNL     1       4.505  -6.796  30.485  0.00  0.00    -0.392 OA
ATOM     50  H   UNL     1       3.571  -6.923  30.215  0.00  0.00    +0.210 HD
ENDBRANCH  48  49
ENDBRANCH  27  48
ENDBRANCH  24  25
ENDBRANCH   6  24
BRANCH   1  51
ATOM     51  O   UNL     1       9.052   4.100  24.557  0.00  0.00    -0.461 OA
BRANCH  51  55
ATOM     52  C   UNL     1       5.877   6.783  25.533  0.00  0.00    +0.041 C 
ATOM     53  C   UNL     1       5.715   5.640  24.532  0.00  0.00    +0.150 C 
ATOM     54  O   UNL     1       6.754   4.667  24.686  0.00  0.00    -0.334 OA
ATOM     55  C   UNL     1       8.060   5.099  24.279  0.00  0.00    +0.339 C 
ATOM     56  C   UNL     1       8.051   5.450  22.770  0.00  0.00    +0.214 C 
ATOM     57  C   UNL     1       6.994   6.539  22.524  0.00  0.00    +0.180 C 
ATOM     58  C   UNL     1       5.621   6.123  23.079  0.00  0.00    +0.174 C 
BRANCH  58  59
ATOM     59  O   UNL     1       5.106   5.068  22.245  0.00  0.00    -0.387 OA
ATOM     60  H   UNL     1       4.580   4.482  22.834  0.00  0.00    +0.210 HD
ENDBRANCH  58  59
BRANCH  57  61
ATOM     61  O   UNL     1       6.883   6.784  21.112  0.00  0.00    -0.386 OA
ATOM     62  H   UNL     1       6.524   5.958  20.723  0.00  0.00    +0.210 HD
ENDBRANCH  57  61
BRANCH  56  63
ATOM     63  O   UNL     1       7.723   4.311  21.947  0.00  0.00    -0.383 OA
ATOM     64  H   UNL     1       8.058   3.532  22.440  0.00  0.00    +0.210 HD
ENDBRANCH  56  63
ENDBRANCH  51  55
ENDBRANCH   1  51
TORSDOF 20
ENDMDL
MODEL 5
REMARK VINA RESULT:      -6.2      2.656      9.457
REMARK  Name = 
REMARK  22 active torsions:
REMARK  status: ('A' for Active; 'I' for Inactive)
REMARK    1  A    between atoms: C_1  and  C_2
REMARK    2  A    between atoms: C_3  and  O_62
REMARK    3  A    between atoms: C_5  and  O_61
REMARK    4  A    between atoms: C_6  and  O_60
REMARK    5  A    between atoms: C_8  and  O_11
REMARK    6  A    between atoms: O_11  and  C_12
REMARK    7  A    between atoms: C_14  and  O_59
REMARK    8  A    between atoms: C_19  and  C_50
REMARK    9  A    between atoms: C_20  and  O_23
REMARK   10  A    between atoms: O_23  and  C_24
REMARK   11  A    between atoms: C_26  and  O_37
REMARK   12  A    between atoms: C_27  and  O_36
REMARK   13  A    between atoms: C_29  and  O_35
REMARK   14  A    between atoms: C_31  and  C_33
REMARK   15  A    between atoms: C_33  and  O_34
REMARK   16  A    between atoms: O_37  and  C_38
REMARK   17  A    between atoms: C_40  and  O_49
REMARK   18  A    between atoms: C_41  and  O_48
REMARK   19  A    between atoms: C_43  and  O_47
REMARK   20  A    between atoms: C_52  and  O_57
REMARK   21  A    between atoms: C_53  and  O_56
REMARK   22  A    between atoms: O_57  and  C_58
REMARK                            x       y       z     vdW  Elec       q    Type
REMARK                         _______ _______ _______ _____ _____    ______ ____
ROOT
ATOM      1  C   UNL     1       4.300  -3.760  26.620  0.00  0.00    +0.131 A 
ATOM      2  C   UNL     1       4.932  -2.987  25.643  0.00  0.00    +0.093 A 
ATOM      3  C   UNL     1       4.817  -1.589  25.656  0.00  0.00    +0.147 A 
ATOM      4  O   UNL     1       5.428  -0.880  24.653  0.00  0.00    -0.451 OA
ATOM      5  C   UNL     1       5.754   0.467  24.887  0.00  0.00    +0.181 A 
ATOM      6  C   UNL     1       5.116   1.217  25.835  0.00  0.00    +0.214 A 
ATOM      7  C   UNL     1       4.003   0.508  26.572  0.00  0.00    +0.238 A 
ATOM      8  O   UNL     1       3.059   1.093  27.087  0.00  0.00    -0.283 OA
ATOM      9  C   UNL     1       4.090  -0.953  26.646  0.00  0.00    +0.109 A 
ATOM     10  C   UNL     1       3.475  -1.718  27.643  0.00  0.00    +0.135 A 
ATOM     11  C   UNL     1       3.576  -3.113  27.627  0.00  0.00    +0.092 A 
ENDROOT
BRANCH   5  12
ATOM     12  C   UNL     1       6.875   0.911  23.980  0.00  0.00    +0.025 A 
ATOM     13  C   UNL     1       6.580   1.422  22.692  0.00  0.00    +0.015 A 
ATOM     14  C   UNL     1       7.584   1.779  21.783  0.00  0.00    +0.050 A 
ATOM     15  C   UNL     1       8.911   1.644  22.154  0.00  0.00    +0.158 A 
ATOM     16  C   UNL     1       9.250   1.204  23.438  0.00  0.00    +0.162 A 
ATOM     17  C   UNL     1       8.232   0.863  24.345  0.00  0.00    +0.061 A 
BRANCH  16  18
ATOM     18  O   UNL     1      10.601   1.158  23.672  0.00  0.00    -0.491 OA
ATOM     19  C   UNL     1      11.005   0.511  24.868  0.00  0.00    +0.277 C 
ENDBRANCH  16  18
BRANCH  15  20
ATOM     20  O   UNL     1       9.885   1.931  21.246  0.00  0.00    -0.503 OA
ATOM     21  H   UNL     1       9.978   1.117  20.710  0.00  0.00    +0.292 HD
ENDBRANCH  15  20
ENDBRANCH   5  12
BRANCH  10  22
ATOM     22  O   UNL     1       2.810  -1.110  28.670  0.00  0.00    -0.506 OA
ATOM     23  H   UNL     1       3.268  -1.287  29.505  0.00  0.00    +0.292 HD
ENDBRANCH  10  22
BRANCH   6  24
ATOM     24  O   UNL     1       5.520   2.504  26.212  0.00  0.00    -0.453 OA
BRANCH  24  25
ATOM     25  C   UNL     1       6.696   2.656  27.034  0.00  0.00    +0.340 C 
ATOM     26  O   UNL     1       6.619   1.802  28.208  0.00  0.00    -0.331 OA
ATOM     27  C   UNL     1       5.872   2.306  29.321  0.00  0.00    +0.179 C 
ATOM     28  C   UNL     1       6.382   3.674  29.776  0.00  0.00    +0.177 C 
ATOM     29  C   UNL     1       6.227   4.642  28.611  0.00  0.00    +0.180 C 
ATOM     30  C   UNL     1       7.055   4.147  27.408  0.00  0.00    +0.221 C 
BRANCH  28  31
ATOM     31  O   UNL     1       7.757   3.585  30.189  0.00  0.00    -0.386 OA
ATOM     32  H   UNL     1       7.784   3.737  31.156  0.00  0.00    +0.210 HD
ENDBRANCH  28  31
BRANCH  29  33
ATOM     33  O   UNL     1       4.851   4.819  28.268  0.00  0.00    -0.386 OA
ATOM     34  H   UNL     1       4.792   4.782  27.293  0.00  0.00    +0.210 HD
ENDBRANCH  29  33
BRANCH  30  35
ATOM     35  O   UNL     1       7.085   5.129  26.327  0.00  0.00    -0.337 OA
BRANCH  35  36
ATOM     36  C   UNL     1       7.537   4.596  25.044  0.00  0.00    +0.282 C 
ATOM     37  O   UNL     1       8.859   5.047  24.702  0.00  0.00    -0.346 OA
ATOM     38  C   UNL     1       9.004   6.336  24.090  0.00  0.00    +0.197 C 
ATOM     39  C   UNL     1       7.909   6.787  23.105  0.00  0.00    +0.171 C 
ATOM     40  C   UNL     1       6.529   6.362  23.596  0.00  0.00    +0.178 C 
ATOM     41  C   UNL     1       6.593   4.847  23.841  0.00  0.00    +0.201 C 
BRANCH  41  42
ATOM     42  O   UNL     1       5.295   4.252  23.955  0.00  0.00    -0.384 OA
ATOM     43  H   UNL     1       4.678   4.786  23.427  0.00  0.00    +0.210 HD
ENDBRANCH  41  42
BRANCH  40  44
ATOM     44  O   UNL     1       6.120   7.107  24.735  0.00  0.00    -0.386 OA
ATOM     45  H   UNL     1       5.141   7.108  24.830  0.00  0.00    +0.210 HD
ENDBRANCH  40  44
BRANCH  39  46
ATOM     46  O   UNL     1       8.136   6.212  21.807  0.00  0.00    -0.387 OA
ATOM     47  H   UNL     1       7.302   5.797  21.512  0.00  0.00    +0.210 HD
ENDBRANCH  39  46
ENDBRANCH  35  36
ENDBRANCH  30  35
BRANCH  27  48
ATOM     48  C   UNL     1       5.942   1.297  30.484  0.00  0.00    +0.190 C 
BRANCH  48  49
ATOM     49  O   UNL     1       5.020   0.220  30.369  0.00  0.00    -0.392 OA
ATOM     50  H   UNL     1       4.439   0.261  31.158  0.00  0.00    +0.210 HD
ENDBRANCH  48  49
ENDBRANCH  27  48
ENDBRANCH  24  25
ENDBRANCH   6  24
BRANCH   1  51
ATOM     51  O   UNL     1       4.316  -5.132  26.729  0.00  0.00    -0.461 OA
BRANCH  51  55
ATOM     52  C   UNL     1       0.583  -7.123  27.303  0.00  0.00    +0.041 C 
ATOM     53  C   UNL     1       1.816  -7.825  26.735  0.00  0.00    +0.150 C 
ATOM     54  O   UNL     1       3.009  -7.087  27.021  0.00  0.00    -0.334 OA
ATOM     55  C   UNL     1       3.145  -5.848  26.312  0.00  0.00    +0.339 C 
ATOM     56  C   UNL     1       3.189  -6.118  24.786  0.00  0.00    +0.214 C 
ATOM     57  C   UNL     1       1.906  -6.863  24.381  0.00  0.00    +0.180 C 
ATOM     58  C   UNL     1       1.697  -8.124  25.235  0.00  0.00    +0.174 C 
BRANCH  58  59
ATOM     59  O   UNL     1       2.692  -9.092  24.850  0.00  0.00    -0.387 OA
ATOM     60  H   UNL     1       2.766  -9.038  23.871  0.00  0.00    +0.210 HD
ENDBRANCH  58  59
BRANCH  57  61
ATOM     61  O   UNL     1       1.991  -7.234  22.994  0.00  0.00    -0.386 OA
ATOM     62  H   UNL     1       1.233  -7.835  22.830  0.00  0.00    +0.210 HD
ENDBRANCH  57  61
BRANCH  56  63
ATOM     63  O   UNL     1       4.320  -6.931  24.409  0.00  0.00    -0.383 OA
ATOM     64  H   UNL     1       4.137  -7.217  23.490  0.00  0.00    +0.210 HD
ENDBRANCH  56  63
ENDBRANCH  51  55
ENDBRANCH   1  51
TORSDOF 20
ENDMDL
MODEL 6
REMARK VINA RESULT:      -6.1      2.349      5.550
REMARK  Name = 
REMARK  22 active torsions:
REMARK  status: ('A' for Active; 'I' for Inactive)
REMARK    1  A    between atoms: C_1  and  C_2
REMARK    2  A    between atoms: C_3  and  O_62
REMARK    3  A    between atoms: C_5  and  O_61
REMARK    4  A    between atoms: C_6  and  O_60
REMARK    5  A    between atoms: C_8  and  O_11
REMARK    6  A    between atoms: O_11  and  C_12
REMARK    7  A    between atoms: C_14  and  O_59
REMARK    8  A    between atoms: C_19  and  C_50
REMARK    9  A    between atoms: C_20  and  O_23
REMARK   10  A    between atoms: O_23  and  C_24
REMARK   11  A    between atoms: C_26  and  O_37
REMARK   12  A    between atoms: C_27  and  O_36
REMARK   13  A    between atoms: C_29  and  O_35
REMARK   14  A    between atoms: C_31  and  C_33
REMARK   15  A    between atoms: C_33  and  O_34
REMARK   16  A    between atoms: O_37  and  C_38
REMARK   17  A    between atoms: C_40  and  O_49
REMARK   18  A    between atoms: C_41  and  O_48
REMARK   19  A    between atoms: C_43  and  O_47
REMARK   20  A    between atoms: C_52  and  O_57
REMARK   21  A    between atoms: C_53  and  O_56
REMARK   22  A    between atoms: O_57  and  C_58
REMARK                            x       y       z     vdW  Elec       q    Type
REMARK                         _______ _______ _______ _____ _____    ______ ____
ROOT
ATOM      1  C   UNL     1       9.310   0.922  23.555  0.00  0.00    +0.131 A 
ATOM      2  C   UNL     1       8.216   1.066  24.413  0.00  0.00    +0.093 A 
ATOM      3  C   UNL     1       7.174   0.127  24.401  0.00  0.00    +0.147 A 
ATOM      4  O   UNL     1       6.107   0.334  25.238  0.00  0.00    -0.451 OA
ATOM      5  C   UNL     1       5.325  -0.771  25.615  0.00  0.00    +0.181 A 
ATOM      6  C   UNL     1       5.277  -1.916  24.870  0.00  0.00    +0.214 A 
ATOM      7  C   UNL     1       6.081  -1.885  23.591  0.00  0.00    +0.238 A 
ATOM      8  O   UNL     1       5.817  -2.574  22.614  0.00  0.00    -0.283 OA
ATOM      9  C   UNL     1       7.221  -0.965  23.554  0.00  0.00    +0.109 A 
ATOM     10  C   UNL     1       8.324  -1.130  22.710  0.00  0.00    +0.135 A 
ATOM     11  C   UNL     1       9.361  -0.190  22.708  0.00  0.00    +0.092 A 
ENDROOT
BRANCH   5  12
ATOM     12  C   UNL     1       4.607  -0.500  26.914  0.00  0.00    +0.025 A 
ATOM     13  C   UNL     1       3.202  -0.661  26.990  0.00  0.00    +0.015 A 
ATOM     14  C   UNL     1       2.477  -0.352  28.148  0.00  0.00    +0.050 A 
ATOM     15  C   UNL     1       3.153   0.111  29.264  0.00  0.00    +0.158 A 
ATOM     16  C   UNL     1       4.547   0.224  29.257  0.00  0.00    +0.162 A 
ATOM     17  C   UNL     1       5.263  -0.102  28.093  0.00  0.00    +0.061 A 
BRANCH  16  18
ATOM     18  O   UNL     1       5.077   0.660  30.446  0.00  0.00    -0.491 OA
ATOM     19  C   UNL     1       6.375   1.227  30.379  0.00  0.00    +0.277 C 
ENDBRANCH  16  18
BRANCH  15  20
ATOM     20  O   UNL     1       2.440   0.471  30.368  0.00  0.00    -0.503 OA
ATOM     21  H   UNL     1       3.113   0.663  31.052  0.00  0.00    +0.292 HD
ENDBRANCH  15  20
ENDBRANCH   5  12
BRANCH  10  22
ATOM     22  O   UNL     1       8.427  -2.236  21.913  0.00  0.00    -0.506 OA
ATOM     23  H   UNL     1       7.821  -2.923  22.229  0.00  0.00    +0.292 HD
ENDBRANCH  10  22
BRANCH   6  24
ATOM     24  O   UNL     1       4.647  -3.094  25.293  0.00  0.00    -0.453 OA
BRANCH  24  25
ATOM     25  C   UNL     1       5.146  -3.775  26.462  0.00  0.00    +0.340 C 
ATOM     26  O   UNL     1       6.524  -3.398  26.730  0.00  0.00    -0.331 OA
ATOM     27  C   UNL     1       7.535  -4.094  25.990  0.00  0.00    +0.179 C 
ATOM     28  C   UNL     1       7.426  -5.609  26.165  0.00  0.00    +0.177 C 
ATOM     29  C   UNL     1       6.063  -6.043  25.645  0.00  0.00    +0.180 C 
ATOM     30  C   UNL     1       4.951  -5.342  26.451  0.00  0.00    +0.221 C 
BRANCH  28  31
ATOM     31  O   UNL     1       7.586  -5.968  27.548  0.00  0.00    -0.386 OA
ATOM     32  H   UNL     1       8.108  -5.260  27.978  0.00  0.00    +0.210 HD
ENDBRANCH  28  31
BRANCH  29  33
ATOM     33  O   UNL     1       5.940  -5.789  24.244  0.00  0.00    -0.386 OA
ATOM     34  H   UNL     1       5.383  -6.501  23.873  0.00  0.00    +0.210 HD
ENDBRANCH  29  33
BRANCH  30  35
ATOM     35  O   UNL     1       3.626  -5.857  26.115  0.00  0.00    -0.337 OA
BRANCH  35  36
ATOM     36  C   UNL     1       3.535  -6.461  24.787  0.00  0.00    +0.282 C 
ATOM     37  O   UNL     1       3.234  -5.494  23.768  0.00  0.00    -0.346 OA
ATOM     38  C   UNL     1       1.865  -5.117  23.567  0.00  0.00    +0.197 C 
ATOM     39  C   UNL     1       0.790  -6.207  23.738  0.00  0.00    +0.171 C 
ATOM     40  C   UNL     1       1.132  -7.126  24.907  0.00  0.00    +0.178 C 
ATOM     41  C   UNL     1       2.553  -7.653  24.657  0.00  0.00    +0.201 C 
BRANCH  41  42
ATOM     42  O   UNL     1       2.869  -8.791  25.466  0.00  0.00    -0.384 OA
ATOM     43  H   UNL     1       2.157  -9.441  25.353  0.00  0.00    +0.210 HD
ENDBRANCH  41  42
BRANCH  40  44
ATOM     44  O   UNL     1       0.980  -6.469  26.159  0.00  0.00    -0.386 OA
ATOM     45  H   UNL     1       0.616  -5.562  26.046  0.00  0.00    +0.210 HD
ENDBRANCH  40  44
BRANCH  39  46
ATOM     46  O   UNL     1       0.686  -6.999  22.543  0.00  0.00    -0.387 OA
ATOM     47  H   UNL     1       0.392  -7.895  22.800  0.00  0.00    +0.210 HD
ENDBRANCH  39  46
ENDBRANCH  35  36
ENDBRANCH  30  35
BRANCH  27  48
ATOM     48  C   UNL     1       8.926  -3.603  26.438  0.00  0.00    +0.190 C 
BRANCH  48  49
ATOM     49  O   UNL     1       9.820  -4.652  26.792  0.00  0.00    -0.392 OA
ATOM     50  H   UNL     1       9.279  -5.355  27.209  0.00  0.00    +0.210 HD
ENDBRANCH  48  49
ENDBRANCH  27  48
ENDBRANCH  24  25
ENDBRANCH   6  24
BRANCH   1  51
ATOM     51  O   UNL     1      10.395   1.762  23.448  0.00  0.00    -0.461 OA
BRANCH  51  55
ATOM     52  C   UNL     1       8.481   4.868  25.665  0.00  0.00    +0.041 C 
ATOM     53  C   UNL     1       8.865   5.019  24.194  0.00  0.00    +0.150 C 
ATOM     54  O   UNL     1       9.102   3.743  23.588  0.00  0.00    -0.334 OA
ATOM     55  C   UNL     1      10.287   3.068  24.032  0.00  0.00    +0.339 C 
ATOM     56  C   UNL     1      11.536   3.920  23.690  0.00  0.00    +0.214 C 
ATOM     57  C   UNL     1      11.389   5.298  24.355  0.00  0.00    +0.180 C 
ATOM     58  C   UNL     1      10.054   5.963  23.978  0.00  0.00    +0.174 C 
BRANCH  58  59
ATOM     59  O   UNL     1      10.126   6.349  22.592  0.00  0.00    -0.387 OA
ATOM     60  H   UNL     1      11.059   6.613  22.426  0.00  0.00    +0.210 HD
ENDBRANCH  58  59
BRANCH  57  61
ATOM     61  O   UNL     1      12.476   6.144  23.942  0.00  0.00    -0.386 OA
ATOM     62  H   UNL     1      12.209   6.522  23.077  0.00  0.00    +0.210 HD
ENDBRANCH  57  61
BRANCH  56  63
ATOM     63  O   UNL     1      11.687   4.120  22.269  0.00  0.00    -0.383 OA
ATOM     64  H   UNL     1      11.011   3.543  21.854  0.00  0.00    +0.210 HD
ENDBRANCH  56  63
ENDBRANCH  51  55
ENDBRANCH   1  51
TORSDOF 20
ENDMDL
MODEL 7
REMARK VINA RESULT:      -6.0      2.076      3.811
REMARK  Name = 
REMARK  22 active torsions:
REMARK  status: ('A' for Active; 'I' for Inactive)
REMARK    1  A    between atoms: C_1  and  C_2
REMARK    2  A    between atoms: C_3  and  O_62
REMARK    3  A    between atoms: C_5  and  O_61
REMARK    4  A    between atoms: C_6  and  O_60
REMARK    5  A    between atoms: C_8  and  O_11
REMARK    6  A    between atoms: O_11  and  C_12
REMARK    7  A    between atoms: C_14  and  O_59
REMARK    8  A    between atoms: C_19  and  C_50
REMARK    9  A    between atoms: C_20  and  O_23
REMARK   10  A    between atoms: O_23  and  C_24
REMARK   11  A    between atoms: C_26  and  O_37
REMARK   12  A    between atoms: C_27  and  O_36
REMARK   13  A    between atoms: C_29  and  O_35
REMARK   14  A    between atoms: C_31  and  C_33
REMARK   15  A    between atoms: C_33  and  O_34
REMARK   16  A    between atoms: O_37  and  C_38
REMARK   17  A    between atoms: C_40  and  O_49
REMARK   18  A    between atoms: C_41  and  O_48
REMARK   19  A    between atoms: C_43  and  O_47
REMARK   20  A    between atoms: C_52  and  O_57
REMARK   21  A    between atoms: C_53  and  O_56
REMARK   22  A    between atoms: O_57  and  C_58
REMARK                            x       y       z     vdW  Elec       q    Type
REMARK                         _______ _______ _______ _____ _____    ______ ____
ROOT
ATOM      1  C   UNL     1       6.903   1.566  26.429  0.00  0.00    +0.131 A 
ATOM      2  C   UNL     1       6.909   0.365  27.144  0.00  0.00    +0.093 A 
ATOM      3  C   UNL     1       5.753  -0.427  27.215  0.00  0.00    +0.147 A 
ATOM      4  O   UNL     1       5.803  -1.578  27.959  0.00  0.00    -0.451 OA
ATOM      5  C   UNL     1       4.891  -2.607  27.667  0.00  0.00    +0.181 A 
ATOM      6  C   UNL     1       3.706  -2.368  27.028  0.00  0.00    +0.214 A 
ATOM      7  C   UNL     1       3.429  -0.917  26.709  0.00  0.00    +0.238 A 
ATOM      8  O   UNL     1       2.300  -0.461  26.579  0.00  0.00    -0.283 OA
ATOM      9  C   UNL     1       4.596  -0.042  26.565  0.00  0.00    +0.109 A 
ATOM     10  C   UNL     1       4.588   1.146  25.826  0.00  0.00    +0.135 A 
ATOM     11  C   UNL     1       5.734   1.947  25.762  0.00  0.00    +0.092 A 
ENDROOT
BRANCH   5  12
ATOM     12  C   UNL     1       5.420  -3.940  28.134  0.00  0.00    +0.025 A 
ATOM     13  C   UNL     1       6.575  -4.492  27.529  0.00  0.00    +0.015 A 
ATOM     14  C   UNL     1       7.065  -5.759  27.872  0.00  0.00    +0.050 A 
ATOM     15  C   UNL     1       6.412  -6.494  28.847  0.00  0.00    +0.158 A 
ATOM     16  C   UNL     1       5.306  -5.962  29.518  0.00  0.00    +0.162 A 
ATOM     17  C   UNL     1       4.833  -4.685  29.173  0.00  0.00    +0.061 A 
BRANCH  16  18
ATOM     18  O   UNL     1       4.789  -6.791  30.482  0.00  0.00    -0.491 OA
ATOM     19  C   UNL     1       3.399  -7.056  30.396  0.00  0.00    +0.277 C 
ENDBRANCH  16  18
BRANCH  15  20
ATOM     20  O   UNL     1       6.852  -7.751  29.134  0.00  0.00    -0.503 OA
ATOM     21  H   UNL     1       7.494  -7.961  28.426  0.00  0.00    +0.292 HD
ENDBRANCH  15  20
ENDBRANCH   5  12
BRANCH  10  22
ATOM     22  O   UNL     1       3.478   1.514  25.118  0.00  0.00    -0.506 OA
ATOM     23  H   UNL     1       3.022   0.723  24.793  0.00  0.00    +0.292 HD
ENDBRANCH  10  22
BRANCH   6  24
ATOM     24  O   UNL     1       2.850  -3.379  26.573  0.00  0.00    -0.453 OA
BRANCH  24  25
ATOM     25  C   UNL     1       2.627  -3.522  25.155  0.00  0.00    +0.340 C 
ATOM     26  O   UNL     1       1.490  -4.390  24.896  0.00  0.00    -0.331 OA
ATOM     27  C   UNL     1       1.742  -5.800  24.918  0.00  0.00    +0.179 C 
ATOM     28  C   UNL     1       2.856  -6.194  23.949  0.00  0.00    +0.177 C 
ATOM     29  C   UNL     1       4.125  -5.471  24.376  0.00  0.00    +0.180 C 
ATOM     30  C   UNL     1       3.899  -3.946  24.322  0.00  0.00    +0.221 C 
BRANCH  28  31
ATOM     31  O   UNL     1       2.496  -5.846  22.600  0.00  0.00    -0.386 OA
ATOM     32  H   UNL     1       2.732  -4.905  22.466  0.00  0.00    +0.210 HD
ENDBRANCH  28  31
BRANCH  29  33
ATOM     33  O   UNL     1       4.550  -5.896  25.673  0.00  0.00    -0.386 OA
ATOM     34  H   UNL     1       5.501  -5.682  25.747  0.00  0.00    +0.210 HD
ENDBRANCH  29  33
BRANCH  30  35
ATOM     35  O   UNL     1       5.137  -3.203  24.550  0.00  0.00    -0.337 OA
BRANCH  35  36
ATOM     36  C   UNL     1       6.299  -3.741  23.846  0.00  0.00    +0.282 C 
ATOM     37  O   UNL     1       7.482  -3.732  24.662  0.00  0.00    -0.346 OA
ATOM     38  C   UNL     1       8.240  -2.517  24.753  0.00  0.00    +0.197 C 
ATOM     39  C   UNL     1       8.337  -1.639  23.492  0.00  0.00    +0.171 C 
ATOM     40  C   UNL     1       7.009  -1.618  22.742  0.00  0.00    +0.178 C 
ATOM     41  C   UNL     1       6.623  -3.082  22.481  0.00  0.00    +0.201 C 
BRANCH  41  42
ATOM     42  O   UNL     1       5.602  -3.214  21.486  0.00  0.00    -0.384 OA
ATOM     43  H   UNL     1       5.778  -2.556  20.793  0.00  0.00    +0.210 HD
ENDBRANCH  41  42
BRANCH  40  44
ATOM     44  O   UNL     1       6.016  -0.883  23.445  0.00  0.00    -0.386 OA
ATOM     45  H   UNL     1       5.207  -0.760  22.899  0.00  0.00    +0.210 HD
ENDBRANCH  40  44
BRANCH  39  46
ATOM     46  O   UNL     1       9.357  -2.140  22.611  0.00  0.00    -0.387 OA
ATOM     47  H   UNL     1       9.134  -3.064  22.386  0.00  0.00    +0.210 HD
ENDBRANCH  39  46
ENDBRANCH  35  36
ENDBRANCH  30  35
BRANCH  27  48
ATOM     48  C   UNL     1       0.443  -6.557  24.574  0.00  0.00    +0.190 C 
BRANCH  48  49
ATOM     49  O   UNL     1       0.579  -7.472  23.494  0.00  0.00    -0.392 OA
ATOM     50  H   UNL     1       1.302  -7.133  22.926  0.00  0.00    +0.210 HD
ENDBRANCH  48  49
ENDBRANCH  27  48
ENDBRANCH  24  25
ENDBRANCH   6  24
BRANCH   1  51
ATOM     51  O   UNL     1       7.949   2.446  26.279  0.00  0.00    -0.461 OA
BRANCH  51  55
ATOM     52  C   UNL     1       9.576   1.486  22.449  0.00  0.00    +0.041 C 
ATOM     53  C   UNL     1      10.248   2.465  23.411  0.00  0.00    +0.150 C 
ATOM     54  O   UNL     1       9.750   2.305  24.744  0.00  0.00    -0.334 OA
ATOM     55  C   UNL     1       8.396   2.731  24.945  0.00  0.00    +0.339 C 
ATOM     56  C   UNL     1       8.272   4.247  24.644  0.00  0.00    +0.214 C 
ATOM     57  C   UNL     1       8.735   4.501  23.200  0.00  0.00    +0.180 C 
ATOM     58  C   UNL     1      10.140   3.925  22.953  0.00  0.00    +0.174 C 
BRANCH  58  59
ATOM     59  O   UNL     1      11.086   4.735  23.676  0.00  0.00    -0.387 OA
ATOM     60  H   UNL     1      11.968   4.548  23.284  0.00  0.00    +0.210 HD
ENDBRANCH  58  59
BRANCH  57  61
ATOM     61  O   UNL     1       8.748   5.916  22.948  0.00  0.00    -0.386 OA
ATOM     62  H   UNL     1       8.529   6.344  23.803  0.00  0.00    +0.210 HD
ENDBRANCH  57  61
BRANCH  56  63
ATOM     63  O   UNL     1       9.087   5.046  25.526  0.00  0.00    -0.383 OA
ATOM     64  H   UNL     1       9.948   4.580  25.574  0.00  0.00    +0.210 HD
ENDBRANCH  56  63
ENDBRANCH  51  55
ENDBRANCH   1  51
TORSDOF 20
ENDMDL
MODEL 8
REMARK VINA RESULT:      -6.0      1.528      2.055
REMARK  Name = 
REMARK  22 active torsions:
REMARK  status: ('A' for Active; 'I' for Inactive)
REMARK    1  A    between atoms: C_1  and  C_2
REMARK    2  A    between atoms: C_3  and  O_62
REMARK    3  A    between atoms: C_5  and  O_61
REMARK    4  A    between atoms: C_6  and  O_60
REMARK    5  A    between atoms: C_8  and  O_11
REMARK    6  A    between atoms: O_11  and  C_12
REMARK    7  A    between atoms: C_14  and  O_59
REMARK    8  A    between atoms: C_19  and  C_50
REMARK    9  A    between atoms: C_20  and  O_23
REMARK   10  A    between atoms: O_23  and  C_24
REMARK   11  A    between atoms: C_26  and  O_37
REMARK   12  A    between atoms: C_27  and  O_36
REMARK   13  A    between atoms: C_29  and  O_35
REMARK   14  A    between atoms: C_31  and  C_33
REMARK   15  A    between atoms: C_33  and  O_34
REMARK   16  A    between atoms: O_37  and  C_38
REMARK   17  A    between atoms: C_40  and  O_49
REMARK   18  A    between atoms: C_41  and  O_48
REMARK   19  A    between atoms: C_43  and  O_47
REMARK   20  A    between atoms: C_52  and  O_57
REMARK   21  A    between atoms: C_53  and  O_56
REMARK   22  A    between atoms: O_57  and  C_58
REMARK                            x       y       z     vdW  Elec       q    Type
REMARK                         _______ _______ _______ _____ _____    ______ ____
ROOT
ATOM      1  C   UNL     1       6.402   3.532  26.665  0.00  0.00    +0.131 A 
ATOM      2  C   UNL     1       7.171   2.368  26.573  0.00  0.00    +0.093 A 
ATOM      3  C   UNL     1       6.692   1.156  27.090  0.00  0.00    +0.147 A 
ATOM      4  O   UNL     1       7.502   0.051  27.004  0.00  0.00    -0.451 OA
ATOM      5  C   UNL     1       6.907  -1.222  27.042  0.00  0.00    +0.181 A 
ATOM      6  C   UNL     1       5.677  -1.434  27.600  0.00  0.00    +0.214 A 
ATOM      7  C   UNL     1       5.032  -0.214  28.216  0.00  0.00    +0.238 A 
ATOM      8  O   UNL     1       4.208  -0.273  29.120  0.00  0.00    -0.283 OA
ATOM      9  C   UNL     1       5.445   1.088  27.683  0.00  0.00    +0.109 A 
ATOM     10  C   UNL     1       4.658   2.241  27.757  0.00  0.00    +0.135 A 
ATOM     11  C   UNL     1       5.136   3.457  27.255  0.00  0.00    +0.092 A 
ENDROOT
BRANCH   5  12
ATOM     12  C   UNL     1       7.797  -2.247  26.385  0.00  0.00    +0.025 A 
ATOM     13  C   UNL     1       7.944  -3.530  26.968  0.00  0.00    +0.015 A 
ATOM     14  C   UNL     1       8.814  -4.494  26.441  0.00  0.00    +0.050 A 
ATOM     15  C   UNL     1       9.545  -4.194  25.304  0.00  0.00    +0.158 A 
ATOM     16  C   UNL     1       9.384  -2.964  24.657  0.00  0.00    +0.162 A 
ATOM     17  C   UNL     1       8.498  -2.012  25.189  0.00  0.00    +0.061 A 
BRANCH  16  18
ATOM     18  O   UNL     1      10.145  -2.827  23.524  0.00  0.00    -0.491 OA
ATOM     19  C   UNL     1      10.208  -1.523  22.969  0.00  0.00    +0.277 C 
ENDBRANCH  16  18
BRANCH  15  20
ATOM     20  O   UNL     1      10.437  -5.108  24.830  0.00  0.00    -0.503 OA
ATOM     21  H   UNL     1      11.115  -4.580  24.362  0.00  0.00    +0.292 HD
ENDBRANCH  15  20
ENDBRANCH   5  12
BRANCH  10  22
ATOM     22  O   UNL     1       3.395   2.186  28.277  0.00  0.00    -0.506 OA
ATOM     23  H   UNL     1       2.792   2.705  27.723  0.00  0.00    +0.292 HD
ENDBRANCH  10  22
BRANCH   6  24
ATOM     24  O   UNL     1       4.981  -2.646  27.511  0.00  0.00    -0.453 OA
BRANCH  24  25
ATOM     25  C   UNL     1       3.615  -2.637  27.047  0.00  0.00    +0.340 C 
ATOM     26  O   UNL     1       2.690  -2.586  28.167  0.00  0.00    -0.331 OA
ATOM     27  C   UNL     1       2.383  -3.833  28.802  0.00  0.00    +0.179 C 
ATOM     28  C   UNL     1       1.848  -4.862  27.806  0.00  0.00    +0.177 C 
ATOM     29  C   UNL     1       2.928  -5.106  26.761  0.00  0.00    +0.180 C 
ATOM     30  C   UNL     1       3.252  -3.788  26.030  0.00  0.00    +0.221 C 
BRANCH  28  31
ATOM     31  O   UNL     1       0.638  -4.386  27.192  0.00  0.00    -0.386 OA
ATOM     32  H   UNL     1       0.309  -3.638  27.730  0.00  0.00    +0.210 HD
ENDBRANCH  28  31
BRANCH  29  33
ATOM     33  O   UNL     1       4.095  -5.683  27.350  0.00  0.00    -0.386 OA
ATOM     34  H   UNL     1       4.614  -6.083  26.625  0.00  0.00    +0.210 HD
ENDBRANCH  29  33
BRANCH  30  35
ATOM     35  O   UNL     1       4.151  -4.000  24.897  0.00  0.00    -0.337 OA
BRANCH  35  36
ATOM     36  C   UNL     1       4.341  -5.402  24.534  0.00  0.00    +0.282 C 
ATOM     37  O   UNL     1       5.672  -5.863  24.822  0.00  0.00    -0.346 OA
ATOM     38  C   UNL     1       6.710  -5.593  23.869  0.00  0.00    +0.197 C 
ATOM     39  C   UNL     1       6.336  -5.634  22.375  0.00  0.00    +0.171 C 
ATOM     40  C   UNL     1       4.955  -5.030  22.144  0.00  0.00    +0.178 C 
ATOM     41  C   UNL     1       3.984  -5.774  23.073  0.00  0.00    +0.201 C 
BRANCH  41  42
ATOM     42  O   UNL     1       2.613  -5.571  22.714  0.00  0.00    -0.384 OA
ATOM     43  H   UNL     1       2.259  -4.869  23.284  0.00  0.00    +0.210 HD
ENDBRANCH  41  42
BRANCH  40  44
ATOM     44  O   UNL     1       4.956  -3.621  22.331  0.00  0.00    -0.386 OA
ATOM     45  H   UNL     1       4.322  -3.178  21.723  0.00  0.00    +0.210 HD
ENDBRANCH  40  44
BRANCH  39  46
ATOM     46  O   UNL     1       6.333  -6.991  21.898  0.00  0.00    -0.387 OA
ATOM     47  H   UNL     1       5.673  -7.056  21.181  0.00  0.00    +0.210 HD
ENDBRANCH  39  46
ENDBRANCH  35  36
ENDBRANCH  30  35
BRANCH  27  48
ATOM     48  C   UNL     1       1.355  -3.595  29.927  0.00  0.00    +0.190 C 
BRANCH  48  49
ATOM     49  O   UNL     1       0.453  -4.678  30.121  0.00  0.00    -0.392 OA
ATOM     50  H   UNL     1       0.920  -5.489  29.833  0.00  0.00    +0.210 HD
ENDBRANCH  48  49
ENDBRANCH  27  48
ENDBRANCH  24  25
ENDBRANCH   6  24
BRANCH   1  51
ATOM     51  O   UNL     1       6.741   4.786  26.215  0.00  0.00    -0.461 OA
BRANCH  51  55
ATOM     52  C   UNL     1       9.637   6.096  23.364  0.00  0.00    +0.041 C 
ATOM     53  C   UNL     1       8.157   6.462  23.267  0.00  0.00    +0.150 C 
ATOM     54  O   UNL     1       7.491   6.261  24.518  0.00  0.00    -0.334 OA
ATOM     55  C   UNL     1       7.328   4.891  24.910  0.00  0.00    +0.339 C 
ATOM     56  C   UNL     1       6.462   4.145  23.863  0.00  0.00    +0.214 C 
ATOM     57  C   UNL     1       7.141   4.262  22.489  0.00  0.00    +0.180 C 
ATOM     58  C   UNL     1       7.432   5.730  22.131  0.00  0.00    +0.174 C 
BRANCH  58  59
ATOM     59  O   UNL     1       6.175   6.377  21.856  0.00  0.00    -0.387 OA
ATOM     60  H   UNL     1       5.600   6.207  22.636  0.00  0.00    +0.210 HD
ENDBRANCH  58  59
BRANCH  57  61
ATOM     61  O   UNL     1       6.287   3.687  21.486  0.00  0.00    -0.386 OA
ATOM     62  H   UNL     1       6.797   3.716  20.649  0.00  0.00    +0.210 HD
ENDBRANCH  57  61
BRANCH  56  63
ATOM     63  O   UNL     1       5.135   4.700  23.759  0.00  0.00    -0.383 OA
ATOM     64  H   UNL     1       5.259   5.597  23.382  0.00  0.00    +0.210 HD
ENDBRANCH  56  63
ENDBRANCH  51  55
ENDBRANCH   1  51
TORSDOF 20
ENDMDL
MODEL 9
REMARK VINA RESULT:      -5.9      2.277      6.127
REMARK  Name = 
REMARK  22 active torsions:
REMARK  status: ('A' for Active; 'I' for Inactive)
REMARK    1  A    between atoms: C_1  and  C_2
REMARK    2  A    between atoms: C_3  and  O_62
REMARK    3  A    between atoms: C_5  and  O_61
REMARK    4  A    between atoms: C_6  and  O_60
REMARK    5  A    between atoms: C_8  and  O_11
REMARK    6  A    between atoms: O_11  and  C_12
REMARK    7  A    between atoms: C_14  and  O_59
REMARK    8  A    between atoms: C_19  and  C_50
REMARK    9  A    between atoms: C_20  and  O_23
REMARK   10  A    between atoms: O_23  and  C_24
REMARK   11  A    between atoms: C_26  and  O_37
REMARK   12  A    between atoms: C_27  and  O_36
REMARK   13  A    between atoms: C_29  and  O_35
REMARK   14  A    between atoms: C_31  and  C_33
REMARK   15  A    between atoms: C_33  and  O_34
REMARK   16  A    between atoms: O_37  and  C_38
REMARK   17  A    between atoms: C_40  and  O_49
REMARK   18  A    between atoms: C_41  and  O_48
REMARK   19  A    between atoms: C_43  and  O_47
REMARK   20  A    between atoms: C_52  and  O_57
REMARK   21  A    between atoms: C_53  and  O_56
REMARK   22  A    between atoms: O_57  and  C_58
REMARK                            x       y       z     vdW  Elec       q    Type
REMARK                         _______ _______ _______ _____ _____    ______ ____
ROOT
ATOM      1  C   UNL     1       9.077   0.902  23.396  0.00  0.00    +0.131 A 
ATOM      2  C   UNL     1       8.007   1.125  24.267  0.00  0.00    +0.093 A 
ATOM      3  C   UNL     1       6.996   0.164  24.413  0.00  0.00    +0.147 A 
ATOM      4  O   UNL     1       5.951   0.448  25.255  0.00  0.00    -0.451 OA
ATOM      5  C   UNL     1       5.217  -0.620  25.799  0.00  0.00    +0.181 A 
ATOM      6  C   UNL     1       5.181  -1.853  25.209  0.00  0.00    +0.214 A 
ATOM      7  C   UNL     1       5.941  -1.965  23.907  0.00  0.00    +0.238 A 
ATOM      8  O   UNL     1       5.668  -2.781  23.037  0.00  0.00    -0.283 OA
ATOM      9  C   UNL     1       7.050  -1.026  23.712  0.00  0.00    +0.109 A 
ATOM     10  C   UNL     1       8.130  -1.269  22.856  0.00  0.00    +0.135 A 
ATOM     11  C   UNL     1       9.135  -0.308  22.696  0.00  0.00    +0.092 A 
ENDROOT
BRANCH   5  12
ATOM     12  C   UNL     1       4.533  -0.204  27.077  0.00  0.00    +0.025 A 
ATOM     13  C   UNL     1       3.124  -0.296  27.186  0.00  0.00    +0.015 A 
ATOM     14  C   UNL     1       2.433   0.146  28.322  0.00  0.00    +0.050 A 
ATOM     15  C   UNL     1       3.146   0.677  29.383  0.00  0.00    +0.158 A 
ATOM     16  C   UNL     1       4.544   0.728  29.347  0.00  0.00    +0.162 A 
ATOM     17  C   UNL     1       5.225   0.269  28.207  0.00  0.00    +0.061 A 
BRANCH  16  18
ATOM     18  O   UNL     1       5.112   1.244  30.485  0.00  0.00    -0.491 OA
ATOM     19  C   UNL     1       6.393   1.831  30.330  0.00  0.00    +0.277 C 
ENDBRANCH  16  18
BRANCH  15  20
ATOM     20  O   UNL     1       2.468   1.164  30.459  0.00  0.00    -0.503 OA
ATOM     21  H   UNL     1       3.163   1.468  31.078  0.00  0.00    +0.292 HD
ENDBRANCH  15  20
ENDBRANCH   5  12
BRANCH  10  22
ATOM     22  O   UNL     1       8.242  -2.465  22.205  0.00  0.00    -0.506 OA
ATOM     23  H   UNL     1       8.546  -3.146  22.823  0.00  0.00    +0.292 HD
ENDBRANCH  10  22
BRANCH   6  24
ATOM     24  O   UNL     1       4.603  -2.983  25.801  0.00  0.00    -0.453 OA
BRANCH  24  25
ATOM     25  C   UNL     1       5.360  -3.726  26.778  0.00  0.00    +0.340 C 
ATOM     26  O   UNL     1       6.775  -3.408  26.686  0.00  0.00    -0.331 OA
ATOM     27  C   UNL     1       7.526  -4.108  25.687  0.00  0.00    +0.179 C 
ATOM     28  C   UNL     1       7.402  -5.624  25.840  0.00  0.00    +0.177 C 
ATOM     29  C   UNL     1       5.933  -5.990  25.683  0.00  0.00    +0.180 C 
ATOM     30  C   UNL     1       5.101  -5.284  26.772  0.00  0.00    +0.221 C 
BRANCH  28  31
ATOM     31  O   UNL     1       7.901  -6.043  27.122  0.00  0.00    -0.386 OA
ATOM     32  H   UNL     1       7.963  -7.020  27.109  0.00  0.00    +0.210 HD
ENDBRANCH  28  31
BRANCH  29  33
ATOM     33  O   UNL     1       5.460  -5.677  24.371  0.00  0.00    -0.386 OA
ATOM     34  H   UNL     1       4.848  -4.920  24.461  0.00  0.00    +0.210 HD
ENDBRANCH  29  33
BRANCH  30  35
ATOM     35  O   UNL     1       3.712  -5.740  26.780  0.00  0.00    -0.337 OA
BRANCH  35  36
ATOM     36  C   UNL     1       2.951  -5.329  27.957  0.00  0.00    +0.282 C 
ATOM     37  O   UNL     1       3.583  -5.734  29.183  0.00  0.00    -0.346 OA
ATOM     38  C   UNL     1       3.370  -7.073  29.652  0.00  0.00    +0.197 C 
ATOM     39  C   UNL     1       1.982  -7.699  29.421  0.00  0.00    +0.171 C 
ATOM     40  C   UNL     1       1.430  -7.305  28.055  0.00  0.00    +0.178 C 
ATOM     41  C   UNL     1       1.466  -5.771  27.986  0.00  0.00    +0.201 C 
BRANCH  41  42
ATOM     42  O   UNL     1       0.657  -5.248  26.927  0.00  0.00    -0.384 OA
ATOM     43  H   UNL     1       0.778  -4.285  26.911  0.00  0.00    +0.210 HD
ENDBRANCH  41  42
BRANCH  40  44
ATOM     44  O   UNL     1       2.135  -7.941  26.996  0.00  0.00    -0.386 OA
ATOM     45  H   UNL     1       2.978  -7.474  26.797  0.00  0.00    +0.210 HD
ENDBRANCH  40  44
BRANCH  39  46
ATOM     46  O   UNL     1       1.061  -7.261  30.435  0.00  0.00    -0.387 OA
ATOM     47  H   UNL     1       1.579  -7.015  31.226  0.00  0.00    +0.210 HD
ENDBRANCH  39  46
ENDBRANCH  35  36
ENDBRANCH  30  35
BRANCH  27  48
ATOM     48  C   UNL     1       9.007  -3.684  25.770  0.00  0.00    +0.190 C 
BRANCH  48  49
ATOM     49  O   UNL     1       9.736  -3.902  24.568  0.00  0.00    -0.392 OA
ATOM     50  H   UNL     1      10.455  -3.236  24.550  0.00  0.00    +0.210 HD
ENDBRANCH  48  49
ENDBRANCH  27  48
ENDBRANCH  24  25
ENDBRANCH   6  24
BRANCH   1  51
ATOM     51  O   UNL     1      10.130   1.750  23.143  0.00  0.00    -0.461 OA
BRANCH  51  55
ATOM     52  C   UNL     1       8.491   4.875  25.547  0.00  0.00    +0.041 C 
ATOM     53  C   UNL     1       8.914   5.085  24.094  0.00  0.00    +0.150 C 
ATOM     54  O   UNL     1       9.036   3.836  23.405  0.00  0.00    -0.334 OA
ATOM     55  C   UNL     1      10.141   3.019  23.814  0.00  0.00    +0.339 C 
ATOM     56  C   UNL     1      11.473   3.764  23.545  0.00  0.00    +0.214 C 
ATOM     57  C   UNL     1      11.450   5.102  24.302  0.00  0.00    +0.180 C 
ATOM     58  C   UNL     1      10.194   5.919  23.956  0.00  0.00    +0.174 C 
BRANCH  58  59
ATOM     59  O   UNL     1      10.328   6.389  22.601  0.00  0.00    -0.387 OA
ATOM     60  H   UNL     1       9.482   6.172  22.148  0.00  0.00    +0.210 HD
ENDBRANCH  58  59
BRANCH  57  61
ATOM     61  O   UNL     1      12.622   5.861  23.960  0.00  0.00    -0.386 OA
ATOM     62  H   UNL     1      13.374   5.407  24.397  0.00  0.00    +0.210 HD
ENDBRANCH  57  61
BRANCH  56  63
ATOM     63  O   UNL     1      11.668   4.042  22.143  0.00  0.00    -0.383 OA
ATOM     64  H   UNL     1      12.028   4.954  22.108  0.00  0.00    +0.210 HD
ENDBRANCH  56  63
ENDBRANCH  51  55
ENDBRANCH   1  51
TORSDOF 20
ENDMDL
