MODEL 1
REMARK VINA RESULT:      -7.3      0.000      0.000
REMARK  Name = 
REMARK  13 active torsions:
REMARK  status: ('A' for Active; 'I' for Inactive)
REMARK    1  A    between atoms: C_1  and  C_2
REMARK    2  A    between atoms: C_3  and  O_35
REMARK    3  A    between atoms: C_5  and  O_34
REMARK    4  A    between atoms: C_6  and  O_33
REMARK    5  A    between atoms: C_8  and  O_11
REMARK    6  A    between atoms: O_11  and  C_12
REMARK    7  A    between atoms: C_13  and  C_25
REMARK    8  A    between atoms: C_17  and  O_24
REMARK    9  A    between atoms: C_19  and  O_23
REMARK   10  A    between atoms: C_27  and  O_32
REMARK   11  A    between atoms: C_28  and  O_31
REMARK   12  A    between atoms: O_35  and  C_36
REMARK   13  A    between atoms: C_36  and  C_38
REMARK                            x       y       z     vdW  Elec       q    Type
REMARK                         _______ _______ _______ _____ _____    ______ ____
ROOT
ATOM      1  C   UNL     1       7.334  -1.104  24.994  0.00  0.00    +0.214 A 
ATOM      2  C   UNL     1       7.531   0.319  25.445  0.00  0.00    +0.238 A 
ATOM      3  O   UNL     1       7.760   0.615  26.611  0.00  0.00    -0.283 OA
ATOM      4  C   UNL     1       7.377   1.388  24.466  0.00  0.00    +0.109 A 
ATOM      5  C   UNL     1       6.905   1.048  23.205  0.00  0.00    +0.147 A 
ATOM      6  C   UNL     1       6.673   2.059  22.269  0.00  0.00    +0.092 A 
ATOM      7  C   UNL     1       6.914   3.392  22.618  0.00  0.00    +0.124 A 
ATOM      8  C   UNL     1       7.400   3.736  23.871  0.00  0.00    +0.091 A 
ATOM      9  O   UNL     1       6.633  -0.246  22.833  0.00  0.00    -0.451 OA
ATOM     10  C   UNL     1       7.636   2.731  24.796  0.00  0.00    +0.135 A 
ATOM     11  C   UNL     1       6.870  -1.290  23.735  0.00  0.00    +0.181 A 
ENDROOT
BRANCH  11  12
ATOM     12  C   UNL     1       6.559  -2.643  23.159  0.00  0.00    +0.025 A 
ATOM     13  C   UNL     1       7.567  -3.406  22.531  0.00  0.00    +0.015 A 
ATOM     14  C   UNL     1       7.302  -4.680  22.002  0.00  0.00    +0.050 A 
ATOM     15  C   UNL     1       6.024  -5.205  22.096  0.00  0.00    +0.158 A 
ATOM     16  C   UNL     1       5.005  -4.465  22.680  0.00  0.00    +0.159 A 
ATOM     17  C   UNL     1       5.258  -3.190  23.191  0.00  0.00    +0.060 A 
BRANCH  15  18
ATOM     18  O   UNL     1       5.773  -6.458  21.614  0.00  0.00    -0.503 OA
ATOM     19  H   UNL     1       4.819  -6.601  21.785  0.00  0.00    +0.292 HD
ENDBRANCH  15  18
BRANCH  16  20
ATOM     20  O   UNL     1       3.761  -5.033  22.739  0.00  0.00    -0.503 OA
ATOM     21  H   UNL     1       3.199  -4.586  22.080  0.00  0.00    +0.292 HD
ENDBRANCH  16  20
ENDBRANCH  11  12
BRANCH   7  22
ATOM     22  O   UNL     1       6.686   4.422  21.752  0.00  0.00    -0.507 OA
ATOM     23  H   UNL     1       5.983   4.984  22.112  0.00  0.00    +0.292 HD
ENDBRANCH   7  22
BRANCH  10  24
ATOM     24  O   UNL     1       8.142   3.077  26.018  0.00  0.00    -0.506 OA
ATOM     25  H   UNL     1       9.072   3.345  25.943  0.00  0.00    +0.292 HD
ENDBRANCH  10  24
BRANCH   1  26
ATOM     26  O   UNL     1       7.597  -2.187  25.842  0.00  0.00    -0.453 OA
BRANCH  26  30
ATOM     27  C   UNL     1       3.596  -2.830  27.131  0.00  0.00    +0.042 C 
ATOM     28  C   UNL     1       4.805  -3.243  27.988  0.00  0.00    +0.163 C 
ATOM     29  O   UNL     1       6.017  -2.566  27.584  0.00  0.00    -0.333 OA
ATOM     30  C   UNL     1       6.476  -2.973  26.279  0.00  0.00    +0.340 C 
ATOM     31  C   UNL     1       6.828  -4.484  26.286  0.00  0.00    +0.215 C 
ATOM     32  C   UNL     1       5.579  -5.277  26.688  0.00  0.00    +0.192 C 
ATOM     33  C   UNL     1       4.997  -4.775  28.018  0.00  0.00    +0.236 C 
BRANCH  31  34
ATOM     34  O   UNL     1       7.930  -4.772  27.178  0.00  0.00    -0.383 OA
ATOM     35  H   UNL     1       7.544  -4.745  28.072  0.00  0.00    +0.210 HD
ENDBRANCH  31  34
BRANCH  32  36
ATOM     36  O   UNL     1       5.909  -6.674  26.784  0.00  0.00    -0.385 OA
ATOM     37  H   UNL     1       5.643  -6.953  27.680  0.00  0.00    +0.210 HD
ENDBRANCH  32  36
BRANCH  33  38
ATOM     38  O   UNL     1       5.954  -5.158  29.042  0.00  0.00    -0.456 OA
BRANCH  38  39
ATOM     39  C   UNL     1       5.781  -6.366  29.629  0.00  0.00    +0.304 C 
ATOM     40  C   UNL     1       4.535  -6.370  30.462  0.00  0.00    +0.136 C 
ATOM     41  O   UNL     1       6.534  -7.318  29.510  0.00  0.00    -0.251 OA
ENDBRANCH  38  39
ENDBRANCH  33  38
ENDBRANCH  26  30
ENDBRANCH   1  26
TORSDOF 11
ENDMDL
MODEL 2
REMARK VINA RESULT:      -7.2      2.465      4.974
REMARK  Name = 
REMARK  13 active torsions:
REMARK  status: ('A' for Active; 'I' for Inactive)
REMARK    1  A    between atoms: C_1  and  C_2
REMARK    2  A    between atoms: C_3  and  O_35
REMARK    3  A    between atoms: C_5  and  O_34
REMARK    4  A    between atoms: C_6  and  O_33
REMARK    5  A    between atoms: C_8  and  O_11
REMARK    6  A    between atoms: O_11  and  C_12
REMARK    7  A    between atoms: C_13  and  C_25
REMARK    8  A    between atoms: C_17  and  O_24
REMARK    9  A    between atoms: C_19  and  O_23
REMARK   10  A    between atoms: C_27  and  O_32
REMARK   11  A    between atoms: C_28  and  O_31
REMARK   12  A    between atoms: O_35  and  C_36
REMARK   13  A    between atoms: C_36  and  C_38
REMARK                            x       y       z     vdW  Elec       q    Type
REMARK                         _______ _______ _______ _____ _____    ______ ____
ROOT
ATOM      1  C   UNL     1       7.383  -2.674  24.803  0.00  0.00    +0.214 A 
ATOM      2  C   UNL     1       8.550  -2.444  23.880  0.00  0.00    +0.238 A 
ATOM      3  O   UNL     1       9.432  -3.277  23.711  0.00  0.00    -0.283 OA
ATOM      4  C   UNL     1       8.666  -1.153  23.212  0.00  0.00    +0.109 A 
ATOM      5  C   UNL     1       7.781  -0.150  23.582  0.00  0.00    +0.147 A 
ATOM      6  C   UNL     1       7.915   1.121  23.017  0.00  0.00    +0.092 A 
ATOM      7  C   UNL     1       8.940   1.361  22.095  0.00  0.00    +0.124 A 
ATOM      8  C   UNL     1       9.818   0.359  21.710  0.00  0.00    +0.091 A 
ATOM      9  O   UNL     1       6.777  -0.341  24.501  0.00  0.00    -0.451 OA
ATOM     10  C   UNL     1       9.678  -0.903  22.267  0.00  0.00    +0.135 A 
ATOM     11  C   UNL     1       6.597  -1.604  25.077  0.00  0.00    +0.181 A 
ENDROOT
BRANCH  11  12
ATOM     12  C   UNL     1       5.436  -1.653  26.029  0.00  0.00    +0.025 A 
ATOM     13  C   UNL     1       5.616  -1.361  27.398  0.00  0.00    +0.015 A 
ATOM     14  C   UNL     1       4.541  -1.384  28.303  0.00  0.00    +0.050 A 
ATOM     15  C   UNL     1       3.272  -1.698  27.845  0.00  0.00    +0.158 A 
ATOM     16  C   UNL     1       3.069  -2.019  26.510  0.00  0.00    +0.159 A 
ATOM     17  C   UNL     1       4.138  -2.017  25.610  0.00  0.00    +0.060 A 
BRANCH  15  18
ATOM     18  O   UNL     1       2.219  -1.686  28.715  0.00  0.00    -0.503 OA
ATOM     19  H   UNL     1       1.681  -0.916  28.438  0.00  0.00    +0.292 HD
ENDBRANCH  15  18
BRANCH  16  20
ATOM     20  O   UNL     1       1.795  -2.328  26.117  0.00  0.00    -0.503 OA
ATOM     21  H   UNL     1       1.211  -1.602  26.401  0.00  0.00    +0.292 HD
ENDBRANCH  16  20
ENDBRANCH  11  12
BRANCH   7  22
ATOM     22  O   UNL     1       9.132   2.587  21.527  0.00  0.00    -0.507 OA
ATOM     23  H   UNL     1       8.322   2.846  21.061  0.00  0.00    +0.292 HD
ENDBRANCH   7  22
BRANCH  10  24
ATOM     24  O   UNL     1      10.530  -1.892  21.860  0.00  0.00    -0.506 OA
ATOM     25  H   UNL     1      10.125  -2.766  21.976  0.00  0.00    +0.292 HD
ENDBRANCH  10  24
BRANCH   1  26
ATOM     26  O   UNL     1       7.131  -3.929  25.372  0.00  0.00    -0.453 OA
BRANCH  26  30
ATOM     27  C   UNL     1       6.140  -5.903  21.739  0.00  0.00    +0.042 C 
ATOM     28  C   UNL     1       5.074  -5.226  22.615  0.00  0.00    +0.163 C 
ATOM     29  O   UNL     1       5.650  -4.275  23.539  0.00  0.00    -0.333 OA
ATOM     30  C   UNL     1       6.459  -4.901  24.556  0.00  0.00    +0.340 C 
ATOM     31  C   UNL     1       5.585  -5.845  25.424  0.00  0.00    +0.215 C 
ATOM     32  C   UNL     1       4.950  -6.902  24.514  0.00  0.00    +0.192 C 
ATOM     33  C   UNL     1       4.186  -6.257  23.348  0.00  0.00    +0.236 C 
BRANCH  31  34
ATOM     34  O   UNL     1       4.570  -5.114  26.150  0.00  0.00    -0.383 OA
ATOM     35  H   UNL     1       4.489  -4.263  25.683  0.00  0.00    +0.210 HD
ENDBRANCH  31  34
BRANCH  32  36
ATOM     36  O   UNL     1       4.068  -7.734  25.289  0.00  0.00    -0.385 OA
ATOM     37  H   UNL     1       3.866  -7.231  26.099  0.00  0.00    +0.210 HD
ENDBRANCH  32  36
BRANCH  33  38
ATOM     38  O   UNL     1       3.024  -5.616  23.938  0.00  0.00    -0.456 OA
BRANCH  38  39
ATOM     39  C   UNL     1       1.847  -5.744  23.283  0.00  0.00    +0.304 C 
ATOM     40  C   UNL     1       1.765  -7.081  22.611  0.00  0.00    +0.136 C 
ATOM     41  O   UNL     1       0.975  -4.892  23.233  0.00  0.00    -0.251 OA
ENDBRANCH  38  39
ENDBRANCH  33  38
ENDBRANCH  26  30
ENDBRANCH   1  26
TORSDOF 11
ENDMDL
MODEL 3
REMARK VINA RESULT:      -7.2      2.441      7.045
REMARK  Name = 
REMARK  13 active torsions:
REMARK  status: ('A' for Active; 'I' for Inactive)
REMARK    1  A    between atoms: C_1  and  C_2
REMARK    2  A    between atoms: C_3  and  O_35
REMARK    3  A    between atoms: C_5  and  O_34
REMARK    4  A    between atoms: C_6  and  O_33
REMARK    5  A    between atoms: C_8  and  O_11
REMARK    6  A    between atoms: O_11  and  C_12
REMARK    7  A    between atoms: C_13  and  C_25
REMARK    8  A    between atoms: C_17  and  O_24
REMARK    9  A    between atoms: C_19  and  O_23
REMARK   10  A    between atoms: C_27  and  O_32
REMARK   11  A    between atoms: C_28  and  O_31
REMARK   12  A    between atoms: O_35  and  C_36
REMARK   13  A    between atoms: C_36  and  C_38
REMARK                            x       y       z     vdW  Elec       q    Type
REMARK                         _______ _______ _______ _____ _____    ______ ____
ROOT
ATOM      1  C   UNL     1       7.734  -2.070  25.339  0.00  0.00    +0.214 A 
ATOM      2  C   UNL     1       7.079  -3.415  25.505  0.00  0.00    +0.238 A 
ATOM      3  O   UNL     1       6.891  -3.927  26.601  0.00  0.00    -0.283 OA
ATOM      4  C   UNL     1       6.713  -4.164  24.308  0.00  0.00    +0.109 A 
ATOM      5  C   UNL     1       7.129  -3.667  23.081  0.00  0.00    +0.147 A 
ATOM      6  C   UNL     1       6.862  -4.402  21.922  0.00  0.00    +0.092 A 
ATOM      7  C   UNL     1       6.187  -5.623  22.020  0.00  0.00    +0.124 A 
ATOM      8  C   UNL     1       5.756  -6.117  23.242  0.00  0.00    +0.091 A 
ATOM      9  O   UNL     1       7.815  -2.484  22.947  0.00  0.00    -0.451 OA
ATOM     10  C   UNL     1       6.016  -5.384  24.389  0.00  0.00    +0.135 A 
ATOM     11  C   UNL     1       8.086  -1.709  24.080  0.00  0.00    +0.181 A 
ENDROOT
BRANCH  11  12
ATOM     12  C   UNL     1       8.807  -0.431  23.757  0.00  0.00    +0.025 A 
ATOM     13  C   UNL     1      10.022  -0.108  24.400  0.00  0.00    +0.015 A 
ATOM     14  C   UNL     1      10.721   1.073  24.100  0.00  0.00    +0.050 A 
ATOM     15  C   UNL     1      10.211   1.944  23.151  0.00  0.00    +0.158 A 
ATOM     16  C   UNL     1       9.004   1.668  22.525  0.00  0.00    +0.159 A 
ATOM     17  C   UNL     1       8.295   0.505  22.834  0.00  0.00    +0.060 A 
BRANCH  15  18
ATOM     18  O   UNL     1      10.908   3.075  22.832  0.00  0.00    -0.503 OA
ATOM     19  H   UNL     1      10.673   3.252  21.898  0.00  0.00    +0.292 HD
ENDBRANCH  15  18
BRANCH  16  20
ATOM     20  O   UNL     1       8.547   2.569  21.602  0.00  0.00    -0.503 OA
ATOM     21  H   UNL     1       8.009   2.082  20.952  0.00  0.00    +0.292 HD
ENDBRANCH  16  20
ENDBRANCH  11  12
BRANCH   7  22
ATOM     22  O   UNL     1       5.917  -6.393  20.925  0.00  0.00    -0.507 OA
ATOM     23  H   UNL     1       5.030  -6.772  21.020  0.00  0.00    +0.292 HD
ENDBRANCH   7  22
BRANCH  10  24
ATOM     24  O   UNL     1       5.561  -5.864  25.586  0.00  0.00    -0.506 OA
ATOM     25  H   UNL     1       4.880  -6.542  25.450  0.00  0.00    +0.292 HD
ENDBRANCH  10  24
BRANCH   1  26
ATOM     26  O   UNL     1       7.989  -1.236  26.435  0.00  0.00    -0.453 OA
BRANCH  26  30
ATOM     27  C   UNL     1       3.958  -0.741  27.696  0.00  0.00    +0.042 C 
ATOM     28  C   UNL     1       4.600   0.174  26.640  0.00  0.00    +0.163 C 
ATOM     29  O   UNL     1       5.786  -0.412  26.057  0.00  0.00    -0.333 OA
ATOM     30  C   UNL     1       6.875  -0.524  26.997  0.00  0.00    +0.340 C 
ATOM     31  C   UNL     1       7.305   0.886  27.482  0.00  0.00    +0.215 C 
ATOM     32  C   UNL     1       6.099   1.569  28.136  0.00  0.00    +0.192 C 
ATOM     33  C   UNL     1       4.884   1.587  27.196  0.00  0.00    +0.236 C 
BRANCH  31  34
ATOM     34  O   UNL     1       7.827   1.688  26.398  0.00  0.00    -0.383 OA
ATOM     35  H   UNL     1       8.191   1.045  25.762  0.00  0.00    +0.210 HD
ENDBRANCH  31  34
BRANCH  32  36
ATOM     36  O   UNL     1       6.456   2.911  28.515  0.00  0.00    -0.385 OA
ATOM     37  H   UNL     1       5.758   3.488  28.154  0.00  0.00    +0.210 HD
ENDBRANCH  32  36
BRANCH  33  38
ATOM     38  O   UNL     1       5.222   2.508  26.124  0.00  0.00    -0.456 OA
BRANCH  38  39
ATOM     39  C   UNL     1       4.411   2.523  25.042  0.00  0.00    +0.304 C 
ATOM     40  C   UNL     1       5.218   2.459  23.781  0.00  0.00    +0.136 C 
ATOM     41  O   UNL     1       3.193   2.590  25.077  0.00  0.00    -0.251 OA
ENDBRANCH  38  39
ENDBRANCH  33  38
ENDBRANCH  26  30
ENDBRANCH   1  26
TORSDOF 11
ENDMDL
MODEL 4
REMARK VINA RESULT:      -7.0      2.555      8.636
REMARK  Name = 
REMARK  13 active torsions:
REMARK  status: ('A' for Active; 'I' for Inactive)
REMARK    1  A    between atoms: C_1  and  C_2
REMARK    2  A    between atoms: C_3  and  O_35
REMARK    3  A    between atoms: C_5  and  O_34
REMARK    4  A    between atoms: C_6  and  O_33
REMARK    5  A    between atoms: C_8  and  O_11
REMARK    6  A    between atoms: O_11  and  C_12
REMARK    7  A    between atoms: C_13  and  C_25
REMARK    8  A    between atoms: C_17  and  O_24
REMARK    9  A    between atoms: C_19  and  O_23
REMARK   10  A    between atoms: C_27  and  O_32
REMARK   11  A    between atoms: C_28  and  O_31
REMARK   12  A    between atoms: O_35  and  C_36
REMARK   13  A    between atoms: C_36  and  C_38
REMARK                            x       y       z     vdW  Elec       q    Type
REMARK                         _______ _______ _______ _____ _____    ______ ____
ROOT
ATOM      1  C   UNL     1       5.766  -1.372  25.228  0.00  0.00    +0.214 A 
ATOM      2  C   UNL     1       5.658  -2.705  24.537  0.00  0.00    +0.238 A 
ATOM      3  O   UNL     1       5.581  -2.813  23.319  0.00  0.00    -0.283 OA
ATOM      4  C   UNL     1       5.577  -3.910  25.355  0.00  0.00    +0.109 A 
ATOM      5  C   UNL     1       5.447  -3.752  26.728  0.00  0.00    +0.147 A 
ATOM      6  C   UNL     1       5.289  -4.885  27.532  0.00  0.00    +0.092 A 
ATOM      7  C   UNL     1       5.258  -6.152  26.940  0.00  0.00    +0.124 A 
ATOM      8  C   UNL     1       5.402  -6.316  25.571  0.00  0.00    +0.091 A 
ATOM      9  O   UNL     1       5.448  -2.523  27.342  0.00  0.00    -0.451 OA
ATOM     10  C   UNL     1       5.566  -5.193  24.776  0.00  0.00    +0.135 A 
ATOM     11  C   UNL     1       5.623  -1.366  26.576  0.00  0.00    +0.181 A 
ENDROOT
BRANCH  11  12
ATOM     12  C   UNL     1       5.639  -0.112  27.403  0.00  0.00    +0.025 A 
ATOM     13  C   UNL     1       4.455   0.630  27.607  0.00  0.00    +0.015 A 
ATOM     14  C   UNL     1       4.444   1.795  28.392  0.00  0.00    +0.050 A 
ATOM     15  C   UNL     1       5.619   2.231  28.982  0.00  0.00    +0.158 A 
ATOM     16  C   UNL     1       6.804   1.539  28.775  0.00  0.00    +0.159 A 
ATOM     17  C   UNL     1       6.825   0.390  27.980  0.00  0.00    +0.060 A 
BRANCH  15  18
ATOM     18  O   UNL     1       5.603   3.343  29.775  0.00  0.00    -0.503 OA
ATOM     19  H   UNL     1       5.597   2.992  30.689  0.00  0.00    +0.292 HD
ENDBRANCH  15  18
BRANCH  16  20
ATOM     20  O   UNL     1       7.934   2.020  29.378  0.00  0.00    -0.503 OA
ATOM     21  H   UNL     1       8.557   2.285  28.677  0.00  0.00    +0.292 HD
ENDBRANCH  16  20
ENDBRANCH  11  12
BRANCH   7  22
ATOM     22  O   UNL     1       5.086  -7.291  27.673  0.00  0.00    -0.507 OA
ATOM     23  H   UNL     1       4.482  -7.881  27.197  0.00  0.00    +0.292 HD
ENDBRANCH   7  22
BRANCH  10  24
ATOM     24  O   UNL     1       5.736  -5.366  23.430  0.00  0.00    -0.506 OA
ATOM     25  H   UNL     1       6.622  -5.711  23.236  0.00  0.00    +0.292 HD
ENDBRANCH  10  24
BRANCH   1  26
ATOM     26  O   UNL     1       5.985  -0.189  24.512  0.00  0.00    -0.453 OA
BRANCH  26  30
ATOM     27  C   UNL     1      10.222  -0.125  24.863  0.00  0.00    +0.042 C 
ATOM     28  C   UNL     1       9.403   1.158  24.646  0.00  0.00    +0.163 C 
ATOM     29  O   UNL     1       8.008   0.978  24.980  0.00  0.00    -0.333 OA
ATOM     30  C   UNL     1       7.327   0.083  24.077  0.00  0.00    +0.340 C 
ATOM     31  C   UNL     1       7.337   0.668  22.640  0.00  0.00    +0.215 C 
ATOM     32  C   UNL     1       8.792   0.870  22.203  0.00  0.00    +0.192 C 
ATOM     33  C   UNL     1       9.573   1.719  23.217  0.00  0.00    +0.236 C 
BRANCH  31  34
ATOM     34  O   UNL     1       6.599   1.910  22.564  0.00  0.00    -0.383 OA
ATOM     35  H   UNL     1       5.864   1.729  21.950  0.00  0.00    +0.210 HD
ENDBRANCH  31  34
BRANCH  32  36
ATOM     36  O   UNL     1       8.820   1.493  20.905  0.00  0.00    -0.385 OA
ATOM     37  H   UNL     1       8.186   0.997  20.355  0.00  0.00    +0.210 HD
ENDBRANCH  32  36
BRANCH  33  38
ATOM     38  O   UNL     1       9.028   3.062  23.118  0.00  0.00    -0.456 OA
BRANCH  38  39
ATOM     39  C   UNL     1       9.684   4.046  23.774  0.00  0.00    +0.304 C 
ATOM     40  C   UNL     1      11.135   4.049  23.399  0.00  0.00    +0.136 C 
ATOM     41  O   UNL     1       9.176   4.821  24.569  0.00  0.00    -0.251 OA
ENDBRANCH  38  39
ENDBRANCH  33  38
ENDBRANCH  26  30
ENDBRANCH   1  26
TORSDOF 11
ENDMDL
MODEL 5
REMARK VINA RESULT:      -6.9      2.605      7.250
REMARK  Name = 
REMARK  13 active torsions:
REMARK  status: ('A' for Active; 'I' for Inactive)
REMARK    1  A    between atoms: C_1  and  C_2
REMARK    2  A    between atoms: C_3  and  O_35
REMARK    3  A    between atoms: C_5  and  O_34
REMARK    4  A    between atoms: C_6  and  O_33
REMARK    5  A    between atoms: C_8  and  O_11
REMARK    6  A    between atoms: O_11  and  C_12
REMARK    7  A    between atoms: C_13  and  C_25
REMARK    8  A    between atoms: C_17  and  O_24
REMARK    9  A    between atoms: C_19  and  O_23
REMARK   10  A    between atoms: C_27  and  O_32
REMARK   11  A    between atoms: C_28  and  O_31
REMARK   12  A    between atoms: O_35  and  C_36
REMARK   13  A    between atoms: C_36  and  C_38
REMARK                            x       y       z     vdW  Elec       q    Type
REMARK                         _______ _______ _______ _____ _____    ______ ____
ROOT
ATOM      1  C   UNL     1       7.913  -1.796  25.516  0.00  0.00    +0.214 A 
ATOM      2  C   UNL     1       7.272  -3.134  25.773  0.00  0.00    +0.238 A 
ATOM      3  O   UNL     1       7.105  -3.580  26.901  0.00  0.00    -0.283 OA
ATOM      4  C   UNL     1       6.896  -3.957  24.630  0.00  0.00    +0.109 A 
ATOM      5  C   UNL     1       7.289  -3.532  23.368  0.00  0.00    +0.147 A 
ATOM      6  C   UNL     1       7.011  -4.337  22.260  0.00  0.00    +0.092 A 
ATOM      7  C   UNL     1       6.349  -5.556  22.441  0.00  0.00    +0.124 A 
ATOM      8  C   UNL     1       5.941  -5.978  23.697  0.00  0.00    +0.091 A 
ATOM      9  O   UNL     1       7.962  -2.353  23.153  0.00  0.00    -0.451 OA
ATOM     10  C   UNL     1       6.211  -5.175  24.794  0.00  0.00    +0.135 A 
ATOM     11  C   UNL     1       8.243  -1.509  24.234  0.00  0.00    +0.181 A 
ENDROOT
BRANCH  11  12
ATOM     12  C   UNL     1       8.947  -0.247  23.823  0.00  0.00    +0.025 A 
ATOM     13  C   UNL     1      10.164   0.128  24.432  0.00  0.00    +0.015 A 
ATOM     14  C   UNL     1      10.848   1.295  24.052  0.00  0.00    +0.050 A 
ATOM     15  C   UNL     1      10.320   2.100  23.055  0.00  0.00    +0.158 A 
ATOM     16  C   UNL     1       9.111   1.772  22.459  0.00  0.00    +0.159 A 
ATOM     17  C   UNL     1       8.416   0.623  22.847  0.00  0.00    +0.060 A 
BRANCH  15  18
ATOM     18  O   UNL     1      11.002   3.215  22.658  0.00  0.00    -0.503 OA
ATOM     19  H   UNL     1      10.594   3.945  23.167  0.00  0.00    +0.292 HD
ENDBRANCH  15  18
BRANCH  16  20
ATOM     20  O   UNL     1       8.635   2.608  21.485  0.00  0.00    -0.503 OA
ATOM     21  H   UNL     1       9.299   3.307  21.343  0.00  0.00    +0.292 HD
ENDBRANCH  16  20
ENDBRANCH  11  12
BRANCH   7  22
ATOM     22  O   UNL     1       6.070  -6.392  21.399  0.00  0.00    -0.507 OA
ATOM     23  H   UNL     1       6.132  -5.891  20.571  0.00  0.00    +0.292 HD
ENDBRANCH   7  22
BRANCH  10  24
ATOM     24  O   UNL     1       5.778  -5.587  26.025  0.00  0.00    -0.506 OA
ATOM     25  H   UNL     1       4.990  -6.147  25.944  0.00  0.00    +0.292 HD
ENDBRANCH  10  24
BRANCH   1  26
ATOM     26  O   UNL     1       8.176  -0.895  26.556  0.00  0.00    -0.453 OA
BRANCH  26  30
ATOM     27  C   UNL     1       5.034   1.837  25.691  0.00  0.00    +0.042 C 
ATOM     28  C   UNL     1       6.314   2.272  26.424  0.00  0.00    +0.163 C 
ATOM     29  O   UNL     1       7.397   1.333  26.237  0.00  0.00    -0.333 OA
ATOM     30  C   UNL     1       7.154   0.063  26.875  0.00  0.00    +0.340 C 
ATOM     31  C   UNL     1       7.032   0.254  28.411  0.00  0.00    +0.215 C 
ATOM     32  C   UNL     1       5.883   1.228  28.694  0.00  0.00    +0.192 C 
ATOM     33  C   UNL     1       6.057   2.545  27.923  0.00  0.00    +0.236 C 
BRANCH  31  34
ATOM     34  O   UNL     1       8.269   0.733  28.988  0.00  0.00    -0.383 OA
ATOM     35  H   UNL     1       8.036   0.997  29.897  0.00  0.00    +0.210 HD
ENDBRANCH  31  34
BRANCH  32  36
ATOM     36  O   UNL     1       5.811   1.484  30.109  0.00  0.00    -0.385 OA
ATOM     37  H   UNL     1       5.759   0.610  30.538  0.00  0.00    +0.210 HD
ENDBRANCH  32  36
BRANCH  33  38
ATOM     38  O   UNL     1       7.193   3.216  28.531  0.00  0.00    -0.456 OA
BRANCH  38  39
ATOM     39  C   UNL     1       7.134   4.565  28.630  0.00  0.00    +0.304 C 
ATOM     40  C   UNL     1       6.447   4.966  29.900  0.00  0.00    +0.136 C 
ATOM     41  O   UNL     1       7.568   5.350  27.804  0.00  0.00    -0.251 OA
ENDBRANCH  38  39
ENDBRANCH  33  38
ENDBRANCH  26  30
ENDBRANCH   1  26
TORSDOF 11
ENDMDL
MODEL 6
REMARK VINA RESULT:      -6.9      2.633      5.344
REMARK  Name = 
REMARK  13 active torsions:
REMARK  status: ('A' for Active; 'I' for Inactive)
REMARK    1  A    between atoms: C_1  and  C_2
REMARK    2  A    between atoms: C_3  and  O_35
REMARK    3  A    between atoms: C_5  and  O_34
REMARK    4  A    between atoms: C_6  and  O_33
REMARK    5  A    between atoms: C_8  and  O_11
REMARK    6  A    between atoms: O_11  and  C_12
REMARK    7  A    between atoms: C_13  and  C_25
REMARK    8  A    between atoms: C_17  and  O_24
REMARK    9  A    between atoms: C_19  and  O_23
REMARK   10  A    between atoms: C_27  and  O_32
REMARK   11  A    between atoms: C_28  and  O_31
REMARK   12  A    between atoms: O_35  and  C_36
REMARK   13  A    between atoms: C_36  and  C_38
REMARK                            x       y       z     vdW  Elec       q    Type
REMARK                         _______ _______ _______ _____ _____    ______ ____
ROOT
ATOM      1  C   UNL     1       7.010  -0.508  26.136  0.00  0.00    +0.214 A 
ATOM      2  C   UNL     1       5.877  -0.946  27.025  0.00  0.00    +0.238 A 
ATOM      3  O   UNL     1       5.869  -2.029  27.599  0.00  0.00    -0.283 OA
ATOM      4  C   UNL     1       4.716  -0.074  27.155  0.00  0.00    +0.109 A 
ATOM      5  C   UNL     1       4.648   1.041  26.331  0.00  0.00    +0.147 A 
ATOM      6  C   UNL     1       3.512   1.854  26.377  0.00  0.00    +0.092 A 
ATOM      7  C   UNL     1       2.464   1.528  27.245  0.00  0.00    +0.124 A 
ATOM      8  C   UNL     1       2.533   0.423  28.081  0.00  0.00    +0.091 A 
ATOM      9  O   UNL     1       5.645   1.379  25.449  0.00  0.00    -0.451 OA
ATOM     10  C   UNL     1       3.664  -0.377  28.039  0.00  0.00    +0.135 A 
ATOM     11  C   UNL     1       6.808   0.602  25.386  0.00  0.00    +0.181 A 
ENDROOT
BRANCH  11  12
ATOM     12  C   UNL     1       7.812   1.130  24.402  0.00  0.00    +0.025 A 
ATOM     13  C   UNL     1       8.880   1.947  24.832  0.00  0.00    +0.015 A 
ATOM     14  C   UNL     1       9.841   2.436  23.932  0.00  0.00    +0.050 A 
ATOM     15  C   UNL     1       9.743   2.114  22.588  0.00  0.00    +0.158 A 
ATOM     16  C   UNL     1       8.686   1.339  22.131  0.00  0.00    +0.159 A 
ATOM     17  C   UNL     1       7.718   0.865  23.019  0.00  0.00    +0.060 A 
BRANCH  15  18
ATOM     18  O   UNL     1      10.695   2.559  21.717  0.00  0.00    -0.503 OA
ATOM     19  H   UNL     1      11.166   3.265  22.207  0.00  0.00    +0.292 HD
ENDBRANCH  15  18
BRANCH  16  20
ATOM     20  O   UNL     1       8.638   1.058  20.792  0.00  0.00    -0.503 OA
ATOM     21  H   UNL     1       9.509   1.268  20.412  0.00  0.00    +0.292 HD
ENDBRANCH  16  20
ENDBRANCH  11  12
BRANCH   7  22
ATOM     22  O   UNL     1       1.323   2.273  27.316  0.00  0.00    -0.507 OA
ATOM     23  H   UNL     1       1.552   3.208  27.199  0.00  0.00    +0.292 HD
ENDBRANCH   7  22
BRANCH  10  24
ATOM     24  O   UNL     1       3.735  -1.447  28.888  0.00  0.00    -0.506 OA
ATOM     25  H   UNL     1       2.931  -1.514  29.427  0.00  0.00    +0.292 HD
ENDBRANCH  10  24
BRANCH   1  26
ATOM     26  O   UNL     1       8.211  -1.225  26.068  0.00  0.00    -0.453 OA
BRANCH  26  30
ATOM     27  C   UNL     1       7.757  -3.182  22.320  0.00  0.00    +0.042 C 
ATOM     28  C   UNL     1       7.019  -3.658  23.583  0.00  0.00    +0.163 C 
ATOM     29  O   UNL     1       6.970  -2.636  24.604  0.00  0.00    -0.333 OA
ATOM     30  C   UNL     1       8.267  -2.338  25.161  0.00  0.00    +0.340 C 
ATOM     31  C   UNL     1       8.847  -3.596  25.861  0.00  0.00    +0.215 C 
ATOM     32  C   UNL     1       8.950  -4.727  24.831  0.00  0.00    +0.192 C 
ATOM     33  C   UNL     1       7.605  -4.978  24.133  0.00  0.00    +0.236 C 
BRANCH  31  34
ATOM     34  O   UNL     1       8.038  -3.999  26.990  0.00  0.00    -0.383 OA
ATOM     35  H   UNL     1       8.410  -3.518  27.751  0.00  0.00    +0.210 HD
ENDBRANCH  31  34
BRANCH  32  36
ATOM     36  O   UNL     1       9.405  -5.927  25.482  0.00  0.00    -0.385 OA
ATOM     37  H   UNL     1      10.303  -6.094  25.141  0.00  0.00    +0.210 HD
ENDBRANCH  32  36
BRANCH  33  38
ATOM     38  O   UNL     1       6.732  -5.552  25.142  0.00  0.00    -0.456 OA
BRANCH  38  39
ATOM     39  C   UNL     1       5.452  -5.804  24.782  0.00  0.00    +0.304 C 
ATOM     40  C   UNL     1       4.502  -5.136  25.729  0.00  0.00    +0.136 C 
ATOM     41  O   UNL     1       5.111  -6.485  23.829  0.00  0.00    -0.251 OA
ENDBRANCH  38  39
ENDBRANCH  33  38
ENDBRANCH  26  30
ENDBRANCH   1  26
TORSDOF 11
ENDMDL
MODEL 7
REMARK VINA RESULT:      -6.8      2.845      5.275
REMARK  Name = 
REMARK  13 active torsions:
REMARK  status: ('A' for Active; 'I' for Inactive)
REMARK    1  A    between atoms: C_1  and  C_2
REMARK    2  A    between atoms: C_3  and  O_35
REMARK    3  A    between atoms: C_5  and  O_34
REMARK    4  A    between atoms: C_6  and  O_33
REMARK    5  A    between atoms: C_8  and  O_11
REMARK    6  A    between atoms: O_11  and  C_12
REMARK    7  A    between atoms: C_13  and  C_25
REMARK    8  A    between atoms: C_17  and  O_24
REMARK    9  A    between atoms: C_19  and  O_23
REMARK   10  A    between atoms: C_27  and  O_32
REMARK   11  A    between atoms: C_28  and  O_31
REMARK   12  A    between atoms: O_35  and  C_36
REMARK   13  A    between atoms: C_36  and  C_38
REMARK                            x       y       z     vdW  Elec       q    Type
REMARK                         _______ _______ _______ _____ _____    ______ ____
ROOT
ATOM      1  C   UNL     1       8.259   0.917  25.572  0.00  0.00    +0.214 A 
ATOM      2  C   UNL     1       9.230   1.805  24.842  0.00  0.00    +0.238 A 
ATOM      3  O   UNL     1      10.381   1.464  24.598  0.00  0.00    -0.283 OA
ATOM      4  C   UNL     1       8.802   3.149  24.470  0.00  0.00    +0.109 A 
ATOM      5  C   UNL     1       7.575   3.592  24.945  0.00  0.00    +0.147 A 
ATOM      6  C   UNL     1       7.171   4.901  24.670  0.00  0.00    +0.092 A 
ATOM      7  C   UNL     1       8.009   5.741  23.929  0.00  0.00    +0.124 A 
ATOM      8  C   UNL     1       9.229   5.299  23.440  0.00  0.00    +0.091 A 
ATOM      9  O   UNL     1       6.736   2.804  25.695  0.00  0.00    -0.451 OA
ATOM     10  C   UNL     1       9.625   3.998  23.707  0.00  0.00    +0.135 A 
ATOM     11  C   UNL     1       7.095   1.481  25.977  0.00  0.00    +0.181 A 
ENDROOT
BRANCH  11  12
ATOM     12  C   UNL     1       6.053   0.748  26.772  0.00  0.00    +0.025 A 
ATOM     13  C   UNL     1       6.002   0.872  28.178  0.00  0.00    +0.015 A 
ATOM     14  C   UNL     1       5.025   0.210  28.940  0.00  0.00    +0.050 A 
ATOM     15  C   UNL     1       4.086  -0.585  28.302  0.00  0.00    +0.158 A 
ATOM     16  C   UNL     1       4.130  -0.749  26.925  0.00  0.00    +0.159 A 
ATOM     17  C   UNL     1       5.111  -0.108  26.164  0.00  0.00    +0.060 A 
BRANCH  15  18
ATOM     18  O   UNL     1       3.114  -1.201  29.037  0.00  0.00    -0.503 OA
ATOM     19  H   UNL     1       3.589  -1.574  29.808  0.00  0.00    +0.292 HD
ENDBRANCH  15  18
BRANCH  16  20
ATOM     20  O   UNL     1       3.180  -1.551  26.351  0.00  0.00    -0.503 OA
ATOM     21  H   UNL     1       3.636  -2.315  25.954  0.00  0.00    +0.292 HD
ENDBRANCH  16  20
ENDBRANCH  11  12
BRANCH   7  22
ATOM     22  O   UNL     1       7.675   7.035  23.648  0.00  0.00    -0.507 OA
ATOM     23  H   UNL     1       6.919   7.289  24.199  0.00  0.00    +0.292 HD
ENDBRANCH   7  22
BRANCH  10  24
ATOM     24  O   UNL     1      10.816   3.562  23.195  0.00  0.00    -0.506 OA
ATOM     25  H   UNL     1      11.130   2.778  23.673  0.00  0.00    +0.292 HD
ENDBRANCH  10  24
BRANCH   1  26
ATOM     26  O   UNL     1       8.550  -0.427  25.841  0.00  0.00    -0.453 OA
BRANCH  26  30
ATOM     27  C   UNL     1       9.057  -1.394  21.731  0.00  0.00    +0.042 C 
ATOM     28  C   UNL     1       7.854  -1.900  22.545  0.00  0.00    +0.163 C 
ATOM     29  O   UNL     1       7.648  -1.129  23.751  0.00  0.00    -0.333 OA
ATOM     30  C   UNL     1       8.705  -1.307  24.716  0.00  0.00    +0.340 C 
ATOM     31  C   UNL     1       8.762  -2.789  25.176  0.00  0.00    +0.215 C 
ATOM     32  C   UNL     1       9.000  -3.674  23.947  0.00  0.00    +0.192 C 
ATOM     33  C   UNL     1       7.956  -3.410  22.851  0.00  0.00    +0.236 C 
BRANCH  31  34
ATOM     34  O   UNL     1       7.553  -3.180  25.867  0.00  0.00    -0.383 OA
ATOM     35  H   UNL     1       6.826  -2.881  25.292  0.00  0.00    +0.210 HD
ENDBRANCH  31  34
BRANCH  32  36
ATOM     36  O   UNL     1       8.970  -5.058  24.342  0.00  0.00    -0.385 OA
ATOM     37  H   UNL     1       9.253  -5.078  25.275  0.00  0.00    +0.210 HD
ENDBRANCH  32  36
BRANCH  33  38
ATOM     38  O   UNL     1       6.698  -3.922  23.367  0.00  0.00    -0.456 OA
BRANCH  38  39
ATOM     39  C   UNL     1       5.854  -4.497  22.479  0.00  0.00    +0.304 C 
ATOM     40  C   UNL     1       6.549  -5.595  21.732  0.00  0.00    +0.136 C 
ATOM     41  O   UNL     1       4.693  -4.169  22.299  0.00  0.00    -0.251 OA
ENDBRANCH  38  39
ENDBRANCH  33  38
ENDBRANCH  26  30
ENDBRANCH   1  26
TORSDOF 11
ENDMDL
MODEL 8
REMARK VINA RESULT:      -6.8      2.590      8.885
REMARK  Name = 
REMARK  13 active torsions:
REMARK  status: ('A' for Active; 'I' for Inactive)
REMARK    1  A    between atoms: C_1  and  C_2
REMARK    2  A    between atoms: C_3  and  O_35
REMARK    3  A    between atoms: C_5  and  O_34
REMARK    4  A    between atoms: C_6  and  O_33
REMARK    5  A    between atoms: C_8  and  O_11
REMARK    6  A    between atoms: O_11  and  C_12
REMARK    7  A    between atoms: C_13  and  C_25
REMARK    8  A    between atoms: C_17  and  O_24
REMARK    9  A    between atoms: C_19  and  O_23
REMARK   10  A    between atoms: C_27  and  O_32
REMARK   11  A    between atoms: C_28  and  O_31
REMARK   12  A    between atoms: O_35  and  C_36
REMARK   13  A    between atoms: C_36  and  C_38
REMARK                            x       y       z     vdW  Elec       q    Type
REMARK                         _______ _______ _______ _____ _____    ______ ____
ROOT
ATOM      1  C   UNL     1       6.409  -0.237  24.665  0.00  0.00    +0.214 A 
ATOM      2  C   UNL     1       6.770  -1.428  23.819  0.00  0.00    +0.238 A 
ATOM      3  O   UNL     1       6.556  -1.470  22.613  0.00  0.00    -0.283 OA
ATOM      4  C   UNL     1       7.335  -2.603  24.473  0.00  0.00    +0.109 A 
ATOM      5  C   UNL     1       7.367  -2.618  25.861  0.00  0.00    +0.147 A 
ATOM      6  C   UNL     1       7.831  -3.761  26.518  0.00  0.00    +0.092 A 
ATOM      7  C   UNL     1       8.249  -4.866  25.770  0.00  0.00    +0.124 A 
ATOM      8  C   UNL     1       8.234  -4.850  24.384  0.00  0.00    +0.091 A 
ATOM      9  O   UNL     1       6.943  -1.562  26.629  0.00  0.00    -0.451 OA
ATOM     10  C   UNL     1       7.779  -3.714  23.733  0.00  0.00    +0.135 A 
ATOM     11  C   UNL     1       6.488  -0.393  26.010  0.00  0.00    +0.181 A 
ENDROOT
BRANCH  11  12
ATOM     12  C   UNL     1       6.100   0.677  26.990  0.00  0.00    +0.025 A 
ATOM     13  C   UNL     1       4.752   0.843  27.377  0.00  0.00    +0.015 A 
ATOM     14  C   UNL     1       4.369   1.825  28.306  0.00  0.00    +0.050 A 
ATOM     15  C   UNL     1       5.332   2.653  28.859  0.00  0.00    +0.158 A 
ATOM     16  C   UNL     1       6.661   2.533  28.475  0.00  0.00    +0.159 A 
ATOM     17  C   UNL     1       7.044   1.571  27.537  0.00  0.00    +0.060 A 
BRANCH  15  18
ATOM     18  O   UNL     1       4.967   3.584  29.789  0.00  0.00    -0.503 OA
ATOM     19  H   UNL     1       5.815   3.914  30.151  0.00  0.00    +0.292 HD
ENDBRANCH  15  18
BRANCH  16  20
ATOM     20  O   UNL     1       7.567   3.383  29.049  0.00  0.00    -0.503 OA
ATOM     21  H   UNL     1       7.069   4.070  29.528  0.00  0.00    +0.292 HD
ENDBRANCH  16  20
ENDBRANCH  11  12
BRANCH   7  22
ATOM     22  O   UNL     1       8.692  -6.015  26.359  0.00  0.00    -0.507 OA
ATOM     23  H   UNL     1       9.576  -6.220  26.019  0.00  0.00    +0.292 HD
ENDBRANCH   7  22
BRANCH  10  24
ATOM     24  O   UNL     1       7.795  -3.697  22.365  0.00  0.00    -0.506 OA
ATOM     25  H   UNL     1       7.636  -4.585  22.007  0.00  0.00    +0.292 HD
ENDBRANCH  10  24
BRANCH   1  26
ATOM     26  O   UNL     1       5.990   0.971  24.094  0.00  0.00    -0.453 OA
BRANCH  26  30
ATOM     27  C   UNL     1       9.856   1.830  22.546  0.00  0.00    +0.042 C 
ATOM     28  C   UNL     1       9.202   2.699  23.632  0.00  0.00    +0.163 C 
ATOM     29  O   UNL     1       8.122   2.012  24.305  0.00  0.00    -0.333 OA
ATOM     30  C   UNL     1       6.988   1.777  23.446  0.00  0.00    +0.340 C 
ATOM     31  C   UNL     1       6.388   3.128  22.975  0.00  0.00    +0.215 C 
ATOM     32  C   UNL     1       7.474   3.913  22.229  0.00  0.00    +0.192 C 
ATOM     33  C   UNL     1       8.743   4.067  23.081  0.00  0.00    +0.236 C 
BRANCH  31  34
ATOM     34  O   UNL     1       5.866   3.897  24.083  0.00  0.00    -0.383 OA
ATOM     35  H   UNL     1       5.045   3.440  24.342  0.00  0.00    +0.210 HD
ENDBRANCH  31  34
BRANCH  32  36
ATOM     36  O   UNL     1       6.961   5.206  21.860  0.00  0.00    -0.385 OA
ATOM     37  H   UNL     1       6.940   5.218  20.885  0.00  0.00    +0.210 HD
ENDBRANCH  32  36
BRANCH  33  38
ATOM     38  O   UNL     1       8.390   4.971  24.162  0.00  0.00    -0.456 OA
BRANCH  38  39
ATOM     39  C   UNL     1       9.397   5.666  24.741  0.00  0.00    +0.304 C 
ATOM     40  C   UNL     1      10.462   5.981  23.735  0.00  0.00    +0.136 C 
ATOM     41  O   UNL     1       9.444   5.986  25.918  0.00  0.00    -0.251 OA
ENDBRANCH  38  39
ENDBRANCH  33  38
ENDBRANCH  26  30
ENDBRANCH   1  26
TORSDOF 11
ENDMDL
MODEL 9
REMARK VINA RESULT:      -6.8      2.380      4.512
REMARK  Name = 
REMARK  13 active torsions:
REMARK  status: ('A' for Active; 'I' for Inactive)
REMARK    1  A    between atoms: C_1  and  C_2
REMARK    2  A    between atoms: C_3  and  O_35
REMARK    3  A    between atoms: C_5  and  O_34
REMARK    4  A    between atoms: C_6  and  O_33
REMARK    5  A    between atoms: C_8  and  O_11
REMARK    6  A    between atoms: O_11  and  C_12
REMARK    7  A    between atoms: C_13  and  C_25
REMARK    8  A    between atoms: C_17  and  O_24
REMARK    9  A    between atoms: C_19  and  O_23
REMARK   10  A    between atoms: C_27  and  O_32
REMARK   11  A    between atoms: C_28  and  O_31
REMARK   12  A    between atoms: O_35  and  C_36
REMARK   13  A    between atoms: C_36  and  C_38
REMARK                            x       y       z     vdW  Elec       q    Type
REMARK                         _______ _______ _______ _____ _____    ______ ____
ROOT
ATOM      1  C   UNL     1       8.190  -0.062  25.979  0.00  0.00    +0.214 A 
ATOM      2  C   UNL     1       9.315   0.658  25.284  0.00  0.00    +0.238 A 
ATOM      3  O   UNL     1      10.450   0.204  25.223  0.00  0.00    -0.283 OA
ATOM      4  C   UNL     1       9.055   1.977  24.720  0.00  0.00    +0.109 A 
ATOM      5  C   UNL     1       7.826   2.565  24.989  0.00  0.00    +0.147 A 
ATOM      6  C   UNL     1       7.575   3.861  24.528  0.00  0.00    +0.092 A 
ATOM      7  C   UNL     1       8.565   4.542  23.811  0.00  0.00    +0.124 A 
ATOM      8  C   UNL     1       9.788   3.953  23.527  0.00  0.00    +0.091 A 
ATOM      9  O   UNL     1       6.839   1.938  25.710  0.00  0.00    -0.451 OA
ATOM     10  C   UNL     1      10.032   2.666  23.979  0.00  0.00    +0.135 A 
ATOM     11  C   UNL     1       7.043   0.633  26.174  0.00  0.00    +0.181 A 
ENDROOT
BRANCH  11  12
ATOM     12  C   UNL     1       5.855   0.080  26.908  0.00  0.00    +0.025 A 
ATOM     13  C   UNL     1       5.695   0.307  28.292  0.00  0.00    +0.015 A 
ATOM     14  C   UNL     1       4.583  -0.185  28.995  0.00  0.00    +0.050 A 
ATOM     15  C   UNL     1       3.616  -0.912  28.318  0.00  0.00    +0.158 A 
ATOM     16  C   UNL     1       3.762  -1.177  26.964  0.00  0.00    +0.159 A 
ATOM     17  C   UNL     1       4.875  -0.706  26.264  0.00  0.00    +0.060 A 
BRANCH  15  18
ATOM     18  O   UNL     1       2.517  -1.361  28.992  0.00  0.00    -0.503 OA
ATOM     19  H   UNL     1       2.467  -2.314  28.773  0.00  0.00    +0.292 HD
ENDBRANCH  15  18
BRANCH  16  20
ATOM     20  O   UNL     1       2.778  -1.905  26.350  0.00  0.00    -0.503 OA
ATOM     21  H   UNL     1       2.751  -2.783  26.771  0.00  0.00    +0.292 HD
ENDBRANCH  16  20
ENDBRANCH  11  12
BRANCH   7  22
ATOM     22  O   UNL     1       8.383   5.815  23.355  0.00  0.00    -0.507 OA
ATOM     23  H   UNL     1       9.239   6.172  23.073  0.00  0.00    +0.292 HD
ENDBRANCH   7  22
BRANCH  10  24
ATOM     24  O   UNL     1      11.230   2.083  23.668  0.00  0.00    -0.506 OA
ATOM     25  H   UNL     1      11.363   2.058  22.707  0.00  0.00    +0.292 HD
ENDBRANCH  10  24
BRANCH   1  26
ATOM     26  O   UNL     1       8.327  -1.383  26.424  0.00  0.00    -0.453 OA
BRANCH  26  30
ATOM     27  C   UNL     1       7.957  -2.997  22.507  0.00  0.00    +0.042 C 
ATOM     28  C   UNL     1       7.172  -3.566  23.700  0.00  0.00    +0.163 C 
ATOM     29  O   UNL     1       7.108  -2.636  24.806  0.00  0.00    -0.333 OA
ATOM     30  C   UNL     1       8.391  -2.414  25.425  0.00  0.00    +0.340 C 
ATOM     31  C   UNL     1       8.927  -3.739  26.029  0.00  0.00    +0.215 C 
ATOM     32  C   UNL     1       9.042  -4.778  24.908  0.00  0.00    +0.192 C 
ATOM     33  C   UNL     1       7.716  -4.940  24.150  0.00  0.00    +0.236 C 
BRANCH  31  34
ATOM     34  O   UNL     1       8.075  -4.223  27.094  0.00  0.00    -0.383 OA
ATOM     35  H   UNL     1       8.392  -3.769  27.896  0.00  0.00    +0.210 HD
ENDBRANCH  31  34
BRANCH  32  36
ATOM     36  O   UNL     1       9.456  -6.039  25.465  0.00  0.00    -0.385 OA
ATOM     37  H   UNL     1       9.629  -5.872  26.410  0.00  0.00    +0.210 HD
ENDBRANCH  32  36
BRANCH  33  38
ATOM     38  O   UNL     1       6.802  -5.583  25.078  0.00  0.00    -0.456 OA
BRANCH  38  39
ATOM     39  C   UNL     1       5.531  -5.780  24.658  0.00  0.00    +0.304 C 
ATOM     40  C   UNL     1       4.561  -5.147  25.610  0.00  0.00    +0.136 C 
ATOM     41  O   UNL     1       5.210  -6.393  23.653  0.00  0.00    -0.251 OA
ENDBRANCH  38  39
ENDBRANCH  33  38
ENDBRANCH  26  30
ENDBRANCH   1  26
TORSDOF 11
ENDMDL
