MODEL 1
REMARK VINA RESULT:      -7.2      0.000      0.000
REMARK  Name = 
REMARK  24 active torsions:
REMARK  status: ('A' for Active; 'I' for Inactive)
REMARK    1  A    between atoms: C_1  and  O_2
REMARK    2  A    between atoms: O_2  and  C_3
REMARK    3  A    between atoms: C_4  and  O_63
REMARK    4  A    between atoms: C_7  and  C_9
REMARK    5  A    between atoms: C_10  and  C_11
REMARK    6  A    between atoms: C_11  and  O_13
REMARK    7  A    between atoms: O_13  and  C_14
REMARK    8  A    between atoms: C_15  and  O_62
REMARK    9  A    between atoms: C_17  and  O_61
REMARK   10  A    between atoms: C_19  and  C_59
REMARK   11  A    between atoms: C_21  and  O_23
REMARK   12  A    between atoms: O_23  and  C_24
REMARK   13  A    between atoms: C_25  and  O_58
REMARK   14  A    between atoms: C_27  and  O_57
REMARK   15  A    between atoms: C_29  and  C_55
REMARK   16  A    between atoms: C_31  and  O_33
REMARK   17  A    between atoms: O_33  and  C_34
REMARK   18  A    between atoms: C_35  and  C_47
REMARK   19  A    between atoms: C_39  and  O_46
REMARK   20  A    between atoms: C_41  and  O_45
REMARK   21  A    between atoms: C_49  and  O_54
REMARK   22  A    between atoms: C_50  and  O_53
REMARK   23  A    between atoms: C_55  and  O_56
REMARK   24  A    between atoms: C_59  and  O_60
REMARK                            x       y       z     vdW  Elec       q    Type
REMARK                         _______ _______ _______ _____ _____    ______ ____
ROOT
ATOM      1  C   UNL     1       6.822   1.571  25.504  0.00  0.00    +0.221 C 
ATOM      2  C   UNL     1       6.464   2.773  26.397  0.00  0.00    +0.340 C 
ATOM      3  O   UNL     1       6.493   2.439  27.779  0.00  0.00    -0.331 OA
ATOM      4  C   UNL     1       5.677   1.349  28.231  0.00  0.00    +0.179 C 
ATOM      5  C   UNL     1       5.710   0.137  27.281  0.00  0.00    +0.177 C 
ATOM      6  C   UNL     1       5.667   0.562  25.807  0.00  0.00    +0.180 C 
ENDROOT
BRANCH   6   7
ATOM      7  O   UNL     1       5.677  -0.605  24.964  0.00  0.00    -0.386 OA
ATOM      8  H   UNL     1       5.421  -1.365  25.521  0.00  0.00    +0.210 HD
ENDBRANCH   6   7
BRANCH   5   9
ATOM      9  O   UNL     1       4.629  -0.770  27.528  0.00  0.00    -0.386 OA
ATOM     10  H   UNL     1       4.238  -0.487  28.377  0.00  0.00    +0.210 HD
ENDBRANCH   5   9
BRANCH   4  11
ATOM     11  C   UNL     1       4.247   1.746  28.657  0.00  0.00    +0.190 C 
BRANCH  11  12
ATOM     12  O   UNL     1       3.852   1.071  29.852  0.00  0.00    -0.392 OA
ATOM     13  H   UNL     1       2.932   1.338  30.022  0.00  0.00    +0.210 HD
ENDBRANCH  11  12
ENDBRANCH   4  11
BRANCH   2  14
ATOM     14  O   UNL     1       7.199   3.996  26.194  0.00  0.00    -0.453 OA
BRANCH  14  15
ATOM     15  C   UNL     1       6.555   4.892  25.319  0.00  0.00    +0.214 A 
ATOM     16  C   UNL     1       5.067   5.127  25.413  0.00  0.00    +0.238 A 
ATOM     17  O   UNL     1       4.412   5.046  26.444  0.00  0.00    -0.283 OA
ATOM     18  C   UNL     1       4.342   5.550  24.249  0.00  0.00    +0.109 A 
ATOM     19  C   UNL     1       5.085   6.183  23.275  0.00  0.00    +0.147 A 
ATOM     20  C   UNL     1       4.419   6.698  22.167  0.00  0.00    +0.092 A 
ATOM     21  C   UNL     1       3.019   6.586  22.093  0.00  0.00    +0.124 A 
ATOM     22  C   UNL     1       2.276   5.969  23.091  0.00  0.00    +0.091 A 
ATOM     23  O   UNL     1       6.440   6.375  23.403  0.00  0.00    -0.451 OA
ATOM     24  C   UNL     1       2.944   5.429  24.170  0.00  0.00    +0.135 A 
ATOM     25  C   UNL     1       7.173   5.693  24.406  0.00  0.00    +0.181 A 
BRANCH  25  26
ATOM     26  C   UNL     1       8.640   6.101  24.395  0.00  0.00    +0.025 A 
ATOM     27  C   UNL     1       9.163   6.794  25.521  0.00  0.00    +0.015 A 
ATOM     28  C   UNL     1      10.541   6.972  25.732  0.00  0.00    +0.050 A 
ATOM     29  C   UNL     1      11.433   6.473  24.807  0.00  0.00    +0.158 A 
ATOM     30  C   UNL     1      10.962   5.882  23.641  0.00  0.00    +0.159 A 
ATOM     31  C   UNL     1       9.583   5.696  23.428  0.00  0.00    +0.060 A 
BRANCH  30  32
ATOM     32  O   UNL     1      11.903   5.464  22.736  0.00  0.00    -0.503 OA
ATOM     33  H   UNL     1      12.157   6.226  22.187  0.00  0.00    +0.292 HD
ENDBRANCH  30  32
BRANCH  29  34
ATOM     34  O   UNL     1      12.773   6.537  25.066  0.00  0.00    -0.503 OA
ATOM     35  H   UNL     1      13.176   5.870  24.475  0.00  0.00    +0.292 HD
ENDBRANCH  29  34
ENDBRANCH  25  26
BRANCH  24  36
ATOM     36  O   UNL     1       2.221   4.778  25.132  0.00  0.00    -0.506 OA
ATOM     37  H   UNL     1       2.815   4.429  25.815  0.00  0.00    +0.292 HD
ENDBRANCH  24  36
BRANCH  21  38
ATOM     38  O   UNL     1       2.315   7.078  21.038  0.00  0.00    -0.507 OA
ATOM     39  H   UNL     1       2.773   7.856  20.686  0.00  0.00    +0.292 HD
ENDBRANCH  21  38
ENDBRANCH  14  15
ENDBRANCH   2  14
BRANCH   1  40
ATOM     40  O   UNL     1       8.146   1.089  25.762  0.00  0.00    -0.336 OA
BRANCH  40  42
ATOM     41  C   UNL     1       9.296  -0.906  24.811  0.00  0.00    +0.263 C 
ATOM     42  C   UNL     1       8.810   0.556  24.614  0.00  0.00    +0.295 C 
ATOM     43  O   UNL     1       7.957   0.679  23.470  0.00  0.00    -0.340 OA
ATOM     44  C   UNL     1       8.619   0.311  22.243  0.00  0.00    +0.178 C 
ATOM     45  C   UNL     1       9.025  -1.167  22.327  0.00  0.00    +0.178 C 
ATOM     46  C   UNL     1       9.952  -1.405  23.524  0.00  0.00    +0.191 C 
BRANCH  46  47
ATOM     47  O   UNL     1      10.298  -2.798  23.566  0.00  0.00    -0.385 OA
ATOM     48  H   UNL     1      10.183  -3.164  22.663  0.00  0.00    +0.210 HD
ENDBRANCH  46  47
BRANCH  45  49
ATOM     49  O   UNL     1       9.669  -1.612  21.136  0.00  0.00    -0.386 OA
ATOM     50  H   UNL     1       9.180  -1.169  20.412  0.00  0.00    +0.210 HD
ENDBRANCH  45  49
BRANCH  41  51
ATOM     51  O   UNL     1       8.189  -1.747  25.183  0.00  0.00    -0.450 OA
BRANCH  51  52
ATOM     52  C   UNL     1       8.273  -2.280  26.441  0.00  0.00    +0.332 C 
ATOM     53  O   UNL     1       9.015  -1.885  27.329  0.00  0.00    -0.246 OA
BRANCH  52  55
ATOM     54  C   UNL     1       6.867  -4.005  25.421  0.00  0.00    +0.015 C 
ATOM     55  C   UNL     1       7.345  -3.415  26.539  0.00  0.00    +0.092 C 
BRANCH  54  58
ATOM     56  C   UNL     1       4.377  -6.600  26.622  0.00  0.00    +0.162 A 
ATOM     57  C   UNL     1       5.308  -5.560  26.629  0.00  0.00    +0.057 A 
ATOM     58  C   UNL     1       5.903  -5.116  25.436  0.00  0.00    -0.021 A 
ATOM     59  C   UNL     1       5.521  -5.715  24.227  0.00  0.00    +0.012 A 
ATOM     60  C   UNL     1       4.606  -6.771  24.214  0.00  0.00    +0.050 A 
ATOM     61  C   UNL     1       4.054  -7.211  25.409  0.00  0.00    +0.158 A 
BRANCH  61  62
ATOM     62  O   UNL     1       3.163  -8.248  25.370  0.00  0.00    -0.503 OA
ATOM     63  H   UNL     1       3.557  -8.901  24.759  0.00  0.00    +0.292 HD
ENDBRANCH  61  62
BRANCH  56  65
ATOM     64  C   UNL     1       4.352  -6.741  28.977  0.00  0.00    +0.277 C 
ATOM     65  O   UNL     1       3.749  -7.099  27.735  0.00  0.00    -0.491 OA
ENDBRANCH  56  65
ENDBRANCH  54  58
ENDBRANCH  52  55
ENDBRANCH  51  52
ENDBRANCH  41  51
BRANCH  44  66
ATOM     66  C   UNL     1       9.800   1.245  21.870  0.00  0.00    +0.190 C 
BRANCH  66  67
ATOM     67  O   UNL     1       9.355   2.555  21.531  0.00  0.00    -0.392 OA
ATOM     68  H   UNL     1       9.204   3.041  22.360  0.00  0.00    +0.210 HD
ENDBRANCH  66  67
ENDBRANCH  44  66
ENDBRANCH  40  42
ENDBRANCH   1  40
TORSDOF 23
ENDMDL
MODEL 2
REMARK VINA RESULT:      -6.7      2.096      4.665
REMARK  Name = 
REMARK  24 active torsions:
REMARK  status: ('A' for Active; 'I' for Inactive)
REMARK    1  A    between atoms: C_1  and  O_2
REMARK    2  A    between atoms: O_2  and  C_3
REMARK    3  A    between atoms: C_4  and  O_63
REMARK    4  A    between atoms: C_7  and  C_9
REMARK    5  A    between atoms: C_10  and  C_11
REMARK    6  A    between atoms: C_11  and  O_13
REMARK    7  A    between atoms: O_13  and  C_14
REMARK    8  A    between atoms: C_15  and  O_62
REMARK    9  A    between atoms: C_17  and  O_61
REMARK   10  A    between atoms: C_19  and  C_59
REMARK   11  A    between atoms: C_21  and  O_23
REMARK   12  A    between atoms: O_23  and  C_24
REMARK   13  A    between atoms: C_25  and  O_58
REMARK   14  A    between atoms: C_27  and  O_57
REMARK   15  A    between atoms: C_29  and  C_55
REMARK   16  A    between atoms: C_31  and  O_33
REMARK   17  A    between atoms: O_33  and  C_34
REMARK   18  A    between atoms: C_35  and  C_47
REMARK   19  A    between atoms: C_39  and  O_46
REMARK   20  A    between atoms: C_41  and  O_45
REMARK   21  A    between atoms: C_49  and  O_54
REMARK   22  A    between atoms: C_50  and  O_53
REMARK   23  A    between atoms: C_55  and  O_56
REMARK   24  A    between atoms: C_59  and  O_60
REMARK                            x       y       z     vdW  Elec       q    Type
REMARK                         _______ _______ _______ _____ _____    ______ ____
ROOT
ATOM      1  C   UNL     1       8.345   0.886  25.346  0.00  0.00    +0.221 C 
ATOM      2  C   UNL     1       8.030   2.234  24.671  0.00  0.00    +0.340 C 
ATOM      3  O   UNL     1       7.096   2.093  23.608  0.00  0.00    -0.331 OA
ATOM      4  C   UNL     1       7.407   1.179  22.547  0.00  0.00    +0.179 C 
ATOM      5  C   UNL     1       8.005  -0.148  23.051  0.00  0.00    +0.177 C 
ATOM      6  C   UNL     1       9.011   0.071  24.190  0.00  0.00    +0.180 C 
ENDROOT
BRANCH   6   7
ATOM      7  O   UNL     1       9.555  -1.195  24.607  0.00  0.00    -0.386 OA
ATOM      8  H   UNL     1      10.469  -1.242  24.268  0.00  0.00    +0.210 HD
ENDBRANCH   6   7
BRANCH   5   9
ATOM      9  O   UNL     1       8.652  -0.880  22.003  0.00  0.00    -0.386 OA
ATOM     10  H   UNL     1       8.790  -1.779  22.358  0.00  0.00    +0.210 HD
ENDBRANCH   5   9
BRANCH   4  11
ATOM     11  C   UNL     1       8.203   1.796  21.377  0.00  0.00    +0.190 C 
BRANCH  11  12
ATOM     12  O   UNL     1       9.503   2.218  21.794  0.00  0.00    -0.392 OA
ATOM     13  H   UNL     1       9.522   2.117  22.761  0.00  0.00    +0.210 HD
ENDBRANCH  11  12
ENDBRANCH   4  11
BRANCH   2  14
ATOM     14  O   UNL     1       7.615   3.323  25.519  0.00  0.00    -0.453 OA
BRANCH  14  15
ATOM     15  C   UNL     1       6.910   4.327  24.827  0.00  0.00    +0.214 A 
ATOM     16  C   UNL     1       5.406   4.422  24.925  0.00  0.00    +0.238 A 
ATOM     17  O   UNL     1       4.748   4.080  25.898  0.00  0.00    -0.283 OA
ATOM     18  C   UNL     1       4.663   5.018  23.851  0.00  0.00    +0.109 A 
ATOM     19  C   UNL     1       5.364   5.893  23.049  0.00  0.00    +0.147 A 
ATOM     20  C   UNL     1       4.671   6.572  22.050  0.00  0.00    +0.092 A 
ATOM     21  C   UNL     1       3.286   6.369  21.915  0.00  0.00    +0.124 A 
ATOM     22  C   UNL     1       2.584   5.504  22.745  0.00  0.00    +0.091 A 
ATOM     23  O   UNL     1       6.697   6.159  23.252  0.00  0.00    -0.451 OA
ATOM     24  C   UNL     1       3.281   4.807  23.709  0.00  0.00    +0.135 A 
ATOM     25  C   UNL     1       7.471   5.344  24.115  0.00  0.00    +0.181 A 
BRANCH  25  26
ATOM     26  C   UNL     1       8.900   5.858  24.229  0.00  0.00    +0.025 A 
ATOM     27  C   UNL     1       9.227   6.729  25.304  0.00  0.00    +0.015 A 
ATOM     28  C   UNL     1      10.551   7.038  25.657  0.00  0.00    +0.050 A 
ATOM     29  C   UNL     1      11.587   6.493  24.928  0.00  0.00    +0.158 A 
ATOM     30  C   UNL     1      11.311   5.722  23.806  0.00  0.00    +0.159 A 
ATOM     31  C   UNL     1       9.985   5.405  23.451  0.00  0.00    +0.060 A 
BRANCH  30  32
ATOM     32  O   UNL     1      12.387   5.263  23.091  0.00  0.00    -0.503 OA
ATOM     33  H   UNL     1      12.585   5.909  22.392  0.00  0.00    +0.292 HD
ENDBRANCH  30  32
BRANCH  29  34
ATOM     34  O   UNL     1      12.874   6.692  25.340  0.00  0.00    -0.503 OA
ATOM     35  H   UNL     1      13.267   5.797  25.379  0.00  0.00    +0.292 HD
ENDBRANCH  29  34
ENDBRANCH  25  26
BRANCH  24  36
ATOM     36  O   UNL     1       2.602   3.918  24.497  0.00  0.00    -0.506 OA
ATOM     37  H   UNL     1       3.216   3.479  25.108  0.00  0.00    +0.292 HD
ENDBRANCH  24  36
BRANCH  21  38
ATOM     38  O   UNL     1       2.557   7.012  20.963  0.00  0.00    -0.507 OA
ATOM     39  H   UNL     1       2.001   7.682  21.388  0.00  0.00    +0.292 HD
ENDBRANCH  21  38
ENDBRANCH  14  15
ENDBRANCH   2  14
BRANCH   1  40
ATOM     40  O   UNL     1       7.178   0.293  25.926  0.00  0.00    -0.336 OA
BRANCH  40  42
ATOM     41  C   UNL     1       5.037   0.769  27.108  0.00  0.00    +0.263 C 
ATOM     42  C   UNL     1       6.543   1.100  26.920  0.00  0.00    +0.295 C 
ATOM     43  O   UNL     1       7.263   0.993  28.154  0.00  0.00    -0.340 OA
ATOM     44  C   UNL     1       6.778   1.904  29.160  0.00  0.00    +0.178 C 
ATOM     45  C   UNL     1       5.317   1.553  29.478  0.00  0.00    +0.178 C 
ATOM     46  C   UNL     1       4.454   1.647  28.215  0.00  0.00    +0.191 C 
BRANCH  46  47
ATOM     47  O   UNL     1       3.102   1.304  28.558  0.00  0.00    -0.385 OA
ATOM     48  H   UNL     1       2.980   1.482  29.515  0.00  0.00    +0.210 HD
ENDBRANCH  46  47
BRANCH  45  49
ATOM     49  O   UNL     1       4.772   2.402  30.485  0.00  0.00    -0.386 OA
ATOM     50  H   UNL     1       3.823   2.478  30.256  0.00  0.00    +0.210 HD
ENDBRANCH  45  49
BRANCH  41  51
ATOM     51  O   UNL     1       4.874  -0.627  27.418  0.00  0.00    -0.450 OA
BRANCH  51  52
ATOM     52  C   UNL     1       3.965  -1.286  26.635  0.00  0.00    +0.332 C 
ATOM     53  O   UNL     1       2.778  -1.005  26.539  0.00  0.00    -0.246 OA
BRANCH  52  55
ATOM     54  C   UNL     1       5.225  -2.200  24.746  0.00  0.00    +0.015 C 
ATOM     55  C   UNL     1       4.643  -2.395  25.950  0.00  0.00    +0.092 C 
BRANCH  54  58
ATOM     56  C   UNL     1       7.661  -4.916  23.711  0.00  0.00    +0.162 A 
ATOM     57  C   UNL     1       7.061  -3.886  24.438  0.00  0.00    +0.057 A 
ATOM     58  C   UNL     1       5.885  -3.269  23.981  0.00  0.00    -0.021 A 
ATOM     59  C   UNL     1       5.300  -3.729  22.792  0.00  0.00    +0.012 A 
ATOM     60  C   UNL     1       5.904  -4.744  22.047  0.00  0.00    +0.050 A 
ATOM     61  C   UNL     1       7.082  -5.318  22.505  0.00  0.00    +0.158 A 
BRANCH  61  62
ATOM     62  O   UNL     1       7.657  -6.308  21.757  0.00  0.00    -0.503 OA
ATOM     63  H   UNL     1       8.535  -6.457  22.159  0.00  0.00    +0.292 HD
ENDBRANCH  61  62
BRANCH  56  65
ATOM     64  C   UNL     1       9.597  -4.901  25.059  0.00  0.00    +0.277 C 
ATOM     65  O   UNL     1       8.808  -5.573  24.079  0.00  0.00    -0.491 OA
ENDBRANCH  56  65
ENDBRANCH  54  58
ENDBRANCH  52  55
ENDBRANCH  51  52
ENDBRANCH  41  51
BRANCH  44  66
ATOM     66  C   UNL     1       6.978   3.398  28.795  0.00  0.00    +0.190 C 
BRANCH  66  67
ATOM     67  O   UNL     1       6.664   4.259  29.887  0.00  0.00    -0.392 OA
ATOM     68  H   UNL     1       6.274   5.071  29.520  0.00  0.00    +0.210 HD
ENDBRANCH  66  67
ENDBRANCH  44  66
ENDBRANCH  40  42
ENDBRANCH   1  40
TORSDOF 23
ENDMDL
MODEL 3
REMARK VINA RESULT:      -6.6      2.108      6.402
REMARK  Name = 
REMARK  24 active torsions:
REMARK  status: ('A' for Active; 'I' for Inactive)
REMARK    1  A    between atoms: C_1  and  O_2
REMARK    2  A    between atoms: O_2  and  C_3
REMARK    3  A    between atoms: C_4  and  O_63
REMARK    4  A    between atoms: C_7  and  C_9
REMARK    5  A    between atoms: C_10  and  C_11
REMARK    6  A    between atoms: C_11  and  O_13
REMARK    7  A    between atoms: O_13  and  C_14
REMARK    8  A    between atoms: C_15  and  O_62
REMARK    9  A    between atoms: C_17  and  O_61
REMARK   10  A    between atoms: C_19  and  C_59
REMARK   11  A    between atoms: C_21  and  O_23
REMARK   12  A    between atoms: O_23  and  C_24
REMARK   13  A    between atoms: C_25  and  O_58
REMARK   14  A    between atoms: C_27  and  O_57
REMARK   15  A    between atoms: C_29  and  C_55
REMARK   16  A    between atoms: C_31  and  O_33
REMARK   17  A    between atoms: O_33  and  C_34
REMARK   18  A    between atoms: C_35  and  C_47
REMARK   19  A    between atoms: C_39  and  O_46
REMARK   20  A    between atoms: C_41  and  O_45
REMARK   21  A    between atoms: C_49  and  O_54
REMARK   22  A    between atoms: C_50  and  O_53
REMARK   23  A    between atoms: C_55  and  O_56
REMARK   24  A    between atoms: C_59  and  O_60
REMARK                            x       y       z     vdW  Elec       q    Type
REMARK                         _______ _______ _______ _____ _____    ______ ____
ROOT
ATOM      1  C   UNL     1       7.404   0.123  25.446  0.00  0.00    +0.221 C 
ATOM      2  C   UNL     1       7.248  -0.246  23.960  0.00  0.00    +0.340 C 
ATOM      3  O   UNL     1       6.744  -1.565  23.787  0.00  0.00    -0.331 OA
ATOM      4  C   UNL     1       7.459  -2.650  24.396  0.00  0.00    +0.179 C 
ATOM      5  C   UNL     1       7.936  -2.332  25.825  0.00  0.00    +0.177 C 
ATOM      6  C   UNL     1       8.476  -0.900  25.944  0.00  0.00    +0.180 C 
ENDROOT
BRANCH   6   7
ATOM      7  O   UNL     1       8.929  -0.662  27.290  0.00  0.00    -0.386 OA
ATOM      8  H   UNL     1       8.836  -1.502  27.778  0.00  0.00    +0.210 HD
ENDBRANCH   6   7
BRANCH   5   9
ATOM      9  O   UNL     1       8.948  -3.243  26.270  0.00  0.00    -0.386 OA
ATOM     10  H   UNL     1       8.471  -4.048  26.549  0.00  0.00    +0.210 HD
ENDBRANCH   5   9
BRANCH   4  11
ATOM     11  C   UNL     1       8.563  -3.271  23.512  0.00  0.00    +0.190 C 
BRANCH  11  12
ATOM     12  O   UNL     1       8.671  -4.680  23.725  0.00  0.00    -0.392 OA
ATOM     13  H   UNL     1       9.608  -4.853  23.919  0.00  0.00    +0.210 HD
ENDBRANCH  11  12
ENDBRANCH   4  11
BRANCH   2  14
ATOM     14  O   UNL     1       6.498   0.656  23.124  0.00  0.00    -0.453 OA
BRANCH  14  15
ATOM     15  C   UNL     1       6.876   2.004  23.283  0.00  0.00    +0.214 A 
ATOM     16  C   UNL     1       8.250   2.474  22.874  0.00  0.00    +0.238 A 
ATOM     17  O   UNL     1       8.913   1.985  21.968  0.00  0.00    -0.283 OA
ATOM     18  C   UNL     1       8.827   3.620  23.516  0.00  0.00    +0.109 A 
ATOM     19  C   UNL     1       7.935   4.500  24.090  0.00  0.00    +0.147 A 
ATOM     20  C   UNL     1       8.431   5.676  24.645  0.00  0.00    +0.092 A 
ATOM     21  C   UNL     1       9.810   5.941  24.574  0.00  0.00    +0.124 A 
ATOM     22  C   UNL     1      10.699   5.060  23.970  0.00  0.00    +0.091 A 
ATOM     23  O   UNL     1       6.578   4.280  24.067  0.00  0.00    -0.451 OA
ATOM     24  C   UNL     1      10.207   3.880  23.454  0.00  0.00    +0.135 A 
ATOM     25  C   UNL     1       6.060   3.013  23.699  0.00  0.00    +0.181 A 
BRANCH  25  26
ATOM     26  C   UNL     1       4.537   3.018  23.692  0.00  0.00    +0.025 A 
ATOM     27  C   UNL     1       3.851   2.993  24.936  0.00  0.00    +0.015 A 
ATOM     28  C   UNL     1       2.477   3.267  25.053  0.00  0.00    +0.050 A 
ATOM     29  C   UNL     1       1.750   3.557  23.918  0.00  0.00    +0.158 A 
ATOM     30  C   UNL     1       2.359   3.489  22.671  0.00  0.00    +0.159 A 
ATOM     31  C   UNL     1       3.736   3.221  22.549  0.00  0.00    +0.060 A 
BRANCH  30  32
ATOM     32  O   UNL     1       1.563   3.729  21.581  0.00  0.00    -0.503 OA
ATOM     33  H   UNL     1       1.938   3.253  20.820  0.00  0.00    +0.292 HD
ENDBRANCH  30  32
BRANCH  29  34
ATOM     34  O   UNL     1       0.445   3.942  24.038  0.00  0.00    -0.503 OA
ATOM     35  H   UNL     1       0.311   4.079  24.998  0.00  0.00    +0.292 HD
ENDBRANCH  29  34
ENDBRANCH  25  26
BRANCH  24  36
ATOM     36  O   UNL     1      11.085   2.987  22.902  0.00  0.00    -0.506 OA
ATOM     37  H   UNL     1      11.545   3.396  22.152  0.00  0.00    +0.292 HD
ENDBRANCH  24  36
BRANCH  21  38
ATOM     38  O   UNL     1      10.350   7.077  25.091  0.00  0.00    -0.507 OA
ATOM     39  H   UNL     1      10.140   7.823  24.508  0.00  0.00    +0.292 HD
ENDBRANCH  21  38
ENDBRANCH  14  15
ENDBRANCH   2  14
BRANCH   1  40
ATOM     40  O   UNL     1       6.151   0.089  26.139  0.00  0.00    -0.336 OA
BRANCH  40  42
ATOM     41  C   UNL     1       4.732   1.001  27.973  0.00  0.00    +0.263 C 
ATOM     42  C   UNL     1       5.930   1.204  27.006  0.00  0.00    +0.295 C 
ATOM     43  O   UNL     1       7.137   1.501  27.718  0.00  0.00    -0.340 OA
ATOM     44  C   UNL     1       7.040   2.714  28.492  0.00  0.00    +0.178 C 
ATOM     45  C   UNL     1       5.943   2.535  29.551  0.00  0.00    +0.178 C 
ATOM     46  C   UNL     1       4.599   2.219  28.886  0.00  0.00    +0.191 C 
BRANCH  46  47
ATOM     47  O   UNL     1       3.609   2.053  29.913  0.00  0.00    -0.385 OA
ATOM     48  H   UNL     1       3.050   1.284  29.670  0.00  0.00    +0.210 HD
ENDBRANCH  46  47
BRANCH  45  49
ATOM     49  O   UNL     1       5.803   3.691  30.373  0.00  0.00    -0.386 OA
ATOM     50  H   UNL     1       5.765   3.340  31.287  0.00  0.00    +0.210 HD
ENDBRANCH  45  49
BRANCH  41  51
ATOM     51  O   UNL     1       4.918  -0.201  28.742  0.00  0.00    -0.450 OA
BRANCH  51  52
ATOM     52  C   UNL     1       3.838  -1.042  28.761  0.00  0.00    +0.332 C 
ATOM     53  O   UNL     1       2.774  -0.816  29.320  0.00  0.00    -0.246 OA
BRANCH  52  55
ATOM     54  C   UNL     1       3.735  -2.444  26.757  0.00  0.00    +0.015 C 
ATOM     55  C   UNL     1       4.176  -2.266  28.022  0.00  0.00    +0.092 C 
BRANCH  54  58
ATOM     56  C   UNL     1       3.591  -5.066  24.021  0.00  0.00    +0.162 A 
ATOM     57  C   UNL     1       3.313  -3.921  24.769  0.00  0.00    +0.057 A 
ATOM     58  C   UNL     1       3.996  -3.658  25.968  0.00  0.00    -0.021 A 
ATOM     59  C   UNL     1       4.992  -4.553  26.388  0.00  0.00    +0.012 A 
ATOM     60  C   UNL     1       5.261  -5.712  25.657  0.00  0.00    +0.050 A 
ATOM     61  C   UNL     1       4.552  -5.964  24.490  0.00  0.00    +0.158 A 
BRANCH  61  62
ATOM     62  O   UNL     1       4.832  -7.107  23.793  0.00  0.00    -0.503 OA
ATOM     63  H   UNL     1       4.462  -7.833  24.333  0.00  0.00    +0.292 HD
ENDBRANCH  61  62
BRANCH  56  65
ATOM     64  C   UNL     1       1.611  -5.802  22.971  0.00  0.00    +0.277 C 
ATOM     65  O   UNL     1       2.974  -5.403  22.843  0.00  0.00    -0.491 OA
ENDBRANCH  56  65
ENDBRANCH  54  58
ENDBRANCH  52  55
ENDBRANCH  51  52
ENDBRANCH  41  51
BRANCH  44  66
ATOM     66  C   UNL     1       6.849   3.988  27.629  0.00  0.00    +0.190 C 
BRANCH  66  67
ATOM     67  O   UNL     1       7.448   5.133  28.231  0.00  0.00    -0.392 OA
ATOM     68  H   UNL     1       7.024   5.923  27.853  0.00  0.00    +0.210 HD
ENDBRANCH  66  67
ENDBRANCH  44  66
ENDBRANCH  40  42
ENDBRANCH   1  40
TORSDOF 23
ENDMDL
MODEL 4
REMARK VINA RESULT:      -6.6      2.476      7.383
REMARK  Name = 
REMARK  24 active torsions:
REMARK  status: ('A' for Active; 'I' for Inactive)
REMARK    1  A    between atoms: C_1  and  O_2
REMARK    2  A    between atoms: O_2  and  C_3
REMARK    3  A    between atoms: C_4  and  O_63
REMARK    4  A    between atoms: C_7  and  C_9
REMARK    5  A    between atoms: C_10  and  C_11
REMARK    6  A    between atoms: C_11  and  O_13
REMARK    7  A    between atoms: O_13  and  C_14
REMARK    8  A    between atoms: C_15  and  O_62
REMARK    9  A    between atoms: C_17  and  O_61
REMARK   10  A    between atoms: C_19  and  C_59
REMARK   11  A    between atoms: C_21  and  O_23
REMARK   12  A    between atoms: O_23  and  C_24
REMARK   13  A    between atoms: C_25  and  O_58
REMARK   14  A    between atoms: C_27  and  O_57
REMARK   15  A    between atoms: C_29  and  C_55
REMARK   16  A    between atoms: C_31  and  O_33
REMARK   17  A    between atoms: O_33  and  C_34
REMARK   18  A    between atoms: C_35  and  C_47
REMARK   19  A    between atoms: C_39  and  O_46
REMARK   20  A    between atoms: C_41  and  O_45
REMARK   21  A    between atoms: C_49  and  O_54
REMARK   22  A    between atoms: C_50  and  O_53
REMARK   23  A    between atoms: C_55  and  O_56
REMARK   24  A    between atoms: C_59  and  O_60
REMARK                            x       y       z     vdW  Elec       q    Type
REMARK                         _______ _______ _______ _____ _____    ______ ____
ROOT
ATOM      1  C   UNL     1       5.057   1.399  25.985  0.00  0.00    +0.221 C 
ATOM      2  C   UNL     1       4.652  -0.068  26.222  0.00  0.00    +0.340 C 
ATOM      3  O   UNL     1       3.270  -0.197  26.531  0.00  0.00    -0.331 OA
ATOM      4  C   UNL     1       2.751   0.545  27.644  0.00  0.00    +0.179 C 
ATOM      5  C   UNL     1       3.288   1.987  27.710  0.00  0.00    +0.177 C 
ATOM      6  C   UNL     1       4.784   2.059  27.376  0.00  0.00    +0.180 C 
ENDROOT
BRANCH   6   7
ATOM      7  O   UNL     1       5.239   3.421  27.474  0.00  0.00    -0.386 OA
ATOM      8  H   UNL     1       5.575   3.549  28.382  0.00  0.00    +0.210 HD
ENDBRANCH   6   7
BRANCH   5   9
ATOM      9  O   UNL     1       3.075   2.582  28.996  0.00  0.00    -0.386 OA
ATOM     10  H   UNL     1       2.146   2.880  28.996  0.00  0.00    +0.210 HD
ENDBRANCH   5   9
BRANCH   4  11
ATOM     11  C   UNL     1       2.823  -0.191  28.999  0.00  0.00    +0.190 C 
BRANCH  11  12
ATOM     12  O   UNL     1       1.731   0.169  29.847  0.00  0.00    -0.392 OA
ATOM     13  H   UNL     1       1.322   0.953  29.444  0.00  0.00    +0.210 HD
ENDBRANCH  11  12
ENDBRANCH   4  11
BRANCH   2  14
ATOM     14  O   UNL     1       4.997  -1.027  25.203  0.00  0.00    -0.453 OA
BRANCH  14  15
ATOM     15  C   UNL     1       5.589  -2.196  25.719  0.00  0.00    +0.214 A 
ATOM     16  C   UNL     1       4.844  -3.509  25.707  0.00  0.00    +0.238 A 
ATOM     17  O   UNL     1       4.008  -3.828  24.872  0.00  0.00    -0.283 OA
ATOM     18  C   UNL     1       5.163  -4.513  26.683  0.00  0.00    +0.109 A 
ATOM     19  C   UNL     1       6.422  -4.433  27.237  0.00  0.00    +0.147 A 
ATOM     20  C   UNL     1       6.820  -5.435  28.118  0.00  0.00    +0.092 A 
ATOM     21  C   UNL     1       5.943  -6.501  28.387  0.00  0.00    +0.124 A 
ATOM     22  C   UNL     1       4.686  -6.586  27.803  0.00  0.00    +0.091 A 
ATOM     23  O   UNL     1       7.309  -3.441  26.893  0.00  0.00    -0.451 OA
ATOM     24  C   UNL     1       4.283  -5.573  26.959  0.00  0.00    +0.135 A 
ATOM     25  C   UNL     1       6.872  -2.305  26.165  0.00  0.00    +0.181 A 
BRANCH  25  26
ATOM     26  C   UNL     1       8.031  -1.369  25.850  0.00  0.00    +0.025 A 
ATOM     27  C   UNL     1       9.174  -1.899  25.193  0.00  0.00    +0.015 A 
ATOM     28  C   UNL     1      10.167  -1.086  24.619  0.00  0.00    +0.050 A 
ATOM     29  C   UNL     1      10.046   0.285  24.704  0.00  0.00    +0.158 A 
ATOM     30  C   UNL     1       9.000   0.843  25.428  0.00  0.00    +0.159 A 
ATOM     31  C   UNL     1       8.000   0.033  26.000  0.00  0.00    +0.060 A 
BRANCH  30  32
ATOM     32  O   UNL     1       8.974   2.210  25.524  0.00  0.00    -0.503 OA
ATOM     33  H   UNL     1       9.127   2.580  24.637  0.00  0.00    +0.292 HD
ENDBRANCH  30  32
BRANCH  29  34
ATOM     34  O   UNL     1      10.941   1.079  24.045  0.00  0.00    -0.503 OA
ATOM     35  H   UNL     1      10.494   1.323  23.210  0.00  0.00    +0.292 HD
ENDBRANCH  29  34
ENDBRANCH  25  26
BRANCH  24  36
ATOM     36  O   UNL     1       3.027  -5.627  26.420  0.00  0.00    -0.506 OA
ATOM     37  H   UNL     1       3.023  -5.211  25.543  0.00  0.00    +0.292 HD
ENDBRANCH  24  36
BRANCH  21  38
ATOM     38  O   UNL     1       6.282  -7.511  29.233  0.00  0.00    -0.507 OA
ATOM     39  H   UNL     1       5.475  -7.886  29.619  0.00  0.00    +0.292 HD
ENDBRANCH  21  38
ENDBRANCH  14  15
ENDBRANCH   2  14
BRANCH   1  40
ATOM     40  O   UNL     1       4.354   1.976  24.880  0.00  0.00    -0.336 OA
BRANCH  40  42
ATOM     41  C   UNL     1       6.266   3.049  23.696  0.00  0.00    +0.263 C 
ATOM     42  C   UNL     1       4.900   3.214  24.419  0.00  0.00    +0.295 C 
ATOM     43  O   UNL     1       3.941   3.879  23.588  0.00  0.00    -0.340 OA
ATOM     44  C   UNL     1       4.357   5.208  23.217  0.00  0.00    +0.178 C 
ATOM     45  C   UNL     1       5.650   5.107  22.394  0.00  0.00    +0.178 C 
ATOM     46  C   UNL     1       6.750   4.412  23.202  0.00  0.00    +0.191 C 
BRANCH  46  47
ATOM     47  O   UNL     1       7.933   4.334  22.392  0.00  0.00    -0.385 OA
ATOM     48  H   UNL     1       7.682   4.557  21.470  0.00  0.00    +0.210 HD
ENDBRANCH  46  47
BRANCH  45  49
ATOM     49  O   UNL     1       6.113   6.387  21.970  0.00  0.00    -0.386 OA
ATOM     50  H   UNL     1       6.013   6.958  22.760  0.00  0.00    +0.210 HD
ENDBRANCH  45  49
BRANCH  41  51
ATOM     51  O   UNL     1       6.136   2.122  22.603  0.00  0.00    -0.450 OA
BRANCH  51  52
ATOM     52  C   UNL     1       7.205   1.284  22.433  0.00  0.00    +0.332 C 
ATOM     53  O   UNL     1       8.337   1.634  22.127  0.00  0.00    -0.246 OA
BRANCH  52  55
ATOM     54  C   UNL     1       7.471  -1.132  22.144  0.00  0.00    +0.015 C 
ATOM     55  C   UNL     1       6.764  -0.100  22.654  0.00  0.00    +0.092 C 
BRANCH  54  58
ATOM     56  C   UNL     1       7.538  -4.833  22.969  0.00  0.00    +0.162 A 
ATOM     57  C   UNL     1       7.943  -3.505  22.818  0.00  0.00    +0.057 A 
ATOM     58  C   UNL     1       7.071  -2.540  22.286  0.00  0.00    -0.021 A 
ATOM     59  C   UNL     1       5.769  -2.926  21.937  0.00  0.00    +0.012 A 
ATOM     60  C   UNL     1       5.362  -4.257  22.065  0.00  0.00    +0.050 A 
ATOM     61  C   UNL     1       6.252  -5.197  22.566  0.00  0.00    +0.158 A 
BRANCH  61  62
ATOM     62  O   UNL     1       5.831  -6.494  22.679  0.00  0.00    -0.503 OA
ATOM     63  H   UNL     1       6.343  -6.988  22.009  0.00  0.00    +0.292 HD
ENDBRANCH  61  62
BRANCH  56  65
ATOM     64  C   UNL     1       8.928  -5.552  24.734  0.00  0.00    +0.277 C 
ATOM     65  O   UNL     1       8.320  -5.839  23.476  0.00  0.00    -0.491 OA
ENDBRANCH  56  65
ENDBRANCH  54  58
ENDBRANCH  52  55
ENDBRANCH  51  52
ENDBRANCH  41  51
BRANCH  44  66
ATOM     66  C   UNL     1       4.477   6.181  24.419  0.00  0.00    +0.190 C 
BRANCH  66  67
ATOM     67  O   UNL     1       3.222   6.765  24.757  0.00  0.00    -0.392 OA
ATOM     68  H   UNL     1       2.829   6.231  25.470  0.00  0.00    +0.210 HD
ENDBRANCH  66  67
ENDBRANCH  44  66
ENDBRANCH  40  42
ENDBRANCH   1  40
TORSDOF 23
ENDMDL
MODEL 5
REMARK VINA RESULT:      -6.5      2.665      7.677
REMARK  Name = 
REMARK  24 active torsions:
REMARK  status: ('A' for Active; 'I' for Inactive)
REMARK    1  A    between atoms: C_1  and  O_2
REMARK    2  A    between atoms: O_2  and  C_3
REMARK    3  A    between atoms: C_4  and  O_63
REMARK    4  A    between atoms: C_7  and  C_9
REMARK    5  A    between atoms: C_10  and  C_11
REMARK    6  A    between atoms: C_11  and  O_13
REMARK    7  A    between atoms: O_13  and  C_14
REMARK    8  A    between atoms: C_15  and  O_62
REMARK    9  A    between atoms: C_17  and  O_61
REMARK   10  A    between atoms: C_19  and  C_59
REMARK   11  A    between atoms: C_21  and  O_23
REMARK   12  A    between atoms: O_23  and  C_24
REMARK   13  A    between atoms: C_25  and  O_58
REMARK   14  A    between atoms: C_27  and  O_57
REMARK   15  A    between atoms: C_29  and  C_55
REMARK   16  A    between atoms: C_31  and  O_33
REMARK   17  A    between atoms: O_33  and  C_34
REMARK   18  A    between atoms: C_35  and  C_47
REMARK   19  A    between atoms: C_39  and  O_46
REMARK   20  A    between atoms: C_41  and  O_45
REMARK   21  A    between atoms: C_49  and  O_54
REMARK   22  A    between atoms: C_50  and  O_53
REMARK   23  A    between atoms: C_55  and  O_56
REMARK   24  A    between atoms: C_59  and  O_60
REMARK                            x       y       z     vdW  Elec       q    Type
REMARK                         _______ _______ _______ _____ _____    ______ ____
ROOT
ATOM      1  C   UNL     1       3.752  -1.559  28.084  0.00  0.00    +0.221 C 
ATOM      2  C   UNL     1       4.693  -0.371  27.813  0.00  0.00    +0.340 C 
ATOM      3  O   UNL     1       4.988   0.358  28.998  0.00  0.00    -0.331 OA
ATOM      4  C   UNL     1       3.893   0.882  29.764  0.00  0.00    +0.179 C 
ATOM      5  C   UNL     1       2.723  -0.110  29.899  0.00  0.00    +0.177 C 
ATOM      6  C   UNL     1       2.448  -0.857  28.587  0.00  0.00    +0.180 C 
ENDROOT
BRANCH   6   7
ATOM      7  O   UNL     1       1.334  -1.752  28.761  0.00  0.00    -0.386 OA
ATOM      8  H   UNL     1       1.694  -2.602  29.079  0.00  0.00    +0.210 HD
ENDBRANCH   6   7
BRANCH   5   9
ATOM      9  O   UNL     1       1.516   0.535  30.321  0.00  0.00    -0.386 OA
ATOM     10  H   UNL     1       0.981   0.646  29.512  0.00  0.00    +0.210 HD
ENDBRANCH   5   9
BRANCH   4  11
ATOM     11  C   UNL     1       3.441   2.300  29.355  0.00  0.00    +0.190 C 
BRANCH  11  12
ATOM     12  O   UNL     1       2.985   3.049  30.483  0.00  0.00    -0.392 OA
ATOM     13  H   UNL     1       2.319   2.495  30.925  0.00  0.00    +0.210 HD
ENDBRANCH  11  12
ENDBRANCH   4  11
BRANCH   2  14
ATOM     14  O   UNL     1       5.921  -0.640  27.110  0.00  0.00    -0.453 OA
BRANCH  14  15
ATOM     15  C   UNL     1       6.097   0.169  25.970  0.00  0.00    +0.214 A 
ATOM     16  C   UNL     1       6.730   1.535  26.084  0.00  0.00    +0.238 A 
ATOM     17  O   UNL     1       7.566   1.848  26.922  0.00  0.00    -0.283 OA
ATOM     18  C   UNL     1       6.412   2.545  25.115  0.00  0.00    +0.109 A 
ATOM     19  C   UNL     1       5.961   2.088  23.896  0.00  0.00    +0.147 A 
ATOM     20  C   UNL     1       5.727   3.018  22.887  0.00  0.00    +0.092 A 
ATOM     21  C   UNL     1       5.987   4.378  23.133  0.00  0.00    +0.124 A 
ATOM     22  C   UNL     1       6.465   4.827  24.357  0.00  0.00    +0.091 A 
ATOM     23  O   UNL     1       5.805   0.748  23.633  0.00  0.00    -0.451 OA
ATOM     24  C   UNL     1       6.661   3.905  25.365  0.00  0.00    +0.135 A 
ATOM     25  C   UNL     1       5.836  -0.202  24.685  0.00  0.00    +0.181 A 
BRANCH  25  26
ATOM     26  C   UNL     1       5.698  -1.622  24.155  0.00  0.00    +0.025 A 
ATOM     27  C   UNL     1       4.909  -2.549  24.890  0.00  0.00    +0.015 A 
ATOM     28  C   UNL     1       4.496  -3.784  24.360  0.00  0.00    +0.050 A 
ATOM     29  C   UNL     1       4.879  -4.129  23.081  0.00  0.00    +0.158 A 
ATOM     30  C   UNL     1       5.735  -3.300  22.368  0.00  0.00    +0.159 A 
ATOM     31  C   UNL     1       6.147  -2.059  22.892  0.00  0.00    +0.060 A 
BRANCH  30  32
ATOM     32  O   UNL     1       6.125  -3.734  21.127  0.00  0.00    -0.503 OA
ATOM     33  H   UNL     1       6.008  -4.699  21.092  0.00  0.00    +0.292 HD
ENDBRANCH  30  32
BRANCH  29  34
ATOM     34  O   UNL     1       4.381  -5.270  22.519  0.00  0.00    -0.503 OA
ATOM     35  H   UNL     1       4.693  -5.250  21.591  0.00  0.00    +0.292 HD
ENDBRANCH  29  34
ENDBRANCH  25  26
BRANCH  24  36
ATOM     36  O   UNL     1       7.086   4.349  26.587  0.00  0.00    -0.506 OA
ATOM     37  H   UNL     1       6.425   4.137  27.266  0.00  0.00    +0.292 HD
ENDBRANCH  24  36
BRANCH  21  38
ATOM     38  O   UNL     1       5.785   5.330  22.182  0.00  0.00    -0.507 OA
ATOM     39  H   UNL     1       5.955   4.947  21.308  0.00  0.00    +0.292 HD
ENDBRANCH  21  38
ENDBRANCH  14  15
ENDBRANCH   2  14
BRANCH   1  40
ATOM     40  O   UNL     1       4.332  -2.504  28.990  0.00  0.00    -0.336 OA
BRANCH  40  42
ATOM     41  C   UNL     1       4.585  -4.780  28.008  0.00  0.00    +0.263 C 
ATOM     42  C   UNL     1       3.767  -3.815  28.909  0.00  0.00    +0.295 C 
ATOM     43  O   UNL     1       3.599  -4.343  30.230  0.00  0.00    -0.340 OA
ATOM     44  C   UNL     1       2.886  -5.597  30.239  0.00  0.00    +0.178 C 
ATOM     45  C   UNL     1       3.704  -6.634  29.456  0.00  0.00    +0.178 C 
ATOM     46  C   UNL     1       3.934  -6.163  28.016  0.00  0.00    +0.191 C 
BRANCH  46  47
ATOM     47  O   UNL     1       4.707  -7.158  27.327  0.00  0.00    -0.385 OA
ATOM     48  H   UNL     1       4.364  -7.224  26.410  0.00  0.00    +0.210 HD
ENDBRANCH  46  47
BRANCH  45  49
ATOM     49  O   UNL     1       3.070  -7.910  29.439  0.00  0.00    -0.386 OA
ATOM     50  H   UNL     1       2.945  -8.135  30.385  0.00  0.00    +0.210 HD
ENDBRANCH  45  49
BRANCH  41  51
ATOM     51  O   UNL     1       5.947  -4.849  28.468  0.00  0.00    -0.450 OA
BRANCH  51  52
ATOM     52  C   UNL     1       6.861  -5.179  27.504  0.00  0.00    +0.332 C 
ATOM     53  O   UNL     1       7.218  -6.315  27.226  0.00  0.00    -0.246 OA
BRANCH  52  55
ATOM     54  C   UNL     1       8.430  -3.980  26.057  0.00  0.00    +0.015 C 
ATOM     55  C   UNL     1       7.358  -3.946  26.878  0.00  0.00    +0.092 C 
BRANCH  54  58
ATOM     56  C   UNL     1       9.977  -1.640  23.505  0.00  0.00    +0.162 A 
ATOM     57  C   UNL     1       9.451  -2.792  24.094  0.00  0.00    +0.057 A 
ATOM     58  C   UNL     1       9.011  -2.784  25.428  0.00  0.00    -0.021 A 
ATOM     59  C   UNL     1       9.077  -1.586  26.154  0.00  0.00    +0.012 A 
ATOM     60  C   UNL     1       9.622  -0.435  25.580  0.00  0.00    +0.050 A 
ATOM     61  C   UNL     1      10.077  -0.475  24.269  0.00  0.00    +0.158 A 
BRANCH  61  62
ATOM     62  O   UNL     1      10.609   0.664  23.730  0.00  0.00    -0.503 OA
ATOM     63  H   UNL     1      10.499   0.565  22.764  0.00  0.00    +0.292 HD
ENDBRANCH  61  62
BRANCH  56  65
ATOM     64  C   UNL     1       9.446  -1.182  21.253  0.00  0.00    +0.277 C 
ATOM     65  O   UNL     1      10.432  -1.556  22.214  0.00  0.00    -0.491 OA
ENDBRANCH  56  65
ENDBRANCH  54  58
ENDBRANCH  52  55
ENDBRANCH  51  52
ENDBRANCH  41  51
BRANCH  44  66
ATOM     66  C   UNL     1       1.420  -5.481  29.746  0.00  0.00    +0.190 C 
BRANCH  66  67
ATOM     67  O   UNL     1       0.642  -6.614  30.123  0.00  0.00    -0.392 OA
ATOM     68  H   UNL     1       0.618  -6.646  31.095  0.00  0.00    +0.210 HD
ENDBRANCH  66  67
ENDBRANCH  44  66
ENDBRANCH  40  42
ENDBRANCH   1  40
TORSDOF 23
ENDMDL
MODEL 6
REMARK VINA RESULT:      -6.5      3.008      7.772
REMARK  Name = 
REMARK  24 active torsions:
REMARK  status: ('A' for Active; 'I' for Inactive)
REMARK    1  A    between atoms: C_1  and  O_2
REMARK    2  A    between atoms: O_2  and  C_3
REMARK    3  A    between atoms: C_4  and  O_63
REMARK    4  A    between atoms: C_7  and  C_9
REMARK    5  A    between atoms: C_10  and  C_11
REMARK    6  A    between atoms: C_11  and  O_13
REMARK    7  A    between atoms: O_13  and  C_14
REMARK    8  A    between atoms: C_15  and  O_62
REMARK    9  A    between atoms: C_17  and  O_61
REMARK   10  A    between atoms: C_19  and  C_59
REMARK   11  A    between atoms: C_21  and  O_23
REMARK   12  A    between atoms: O_23  and  C_24
REMARK   13  A    between atoms: C_25  and  O_58
REMARK   14  A    between atoms: C_27  and  O_57
REMARK   15  A    between atoms: C_29  and  C_55
REMARK   16  A    between atoms: C_31  and  O_33
REMARK   17  A    between atoms: O_33  and  C_34
REMARK   18  A    between atoms: C_35  and  C_47
REMARK   19  A    between atoms: C_39  and  O_46
REMARK   20  A    between atoms: C_41  and  O_45
REMARK   21  A    between atoms: C_49  and  O_54
REMARK   22  A    between atoms: C_50  and  O_53
REMARK   23  A    between atoms: C_55  and  O_56
REMARK   24  A    between atoms: C_59  and  O_60
REMARK                            x       y       z     vdW  Elec       q    Type
REMARK                         _______ _______ _______ _____ _____    ______ ____
ROOT
ATOM      1  C   UNL     1       2.778  -1.774  27.125  0.00  0.00    +0.221 C 
ATOM      2  C   UNL     1       4.147  -1.077  27.021  0.00  0.00    +0.340 C 
ATOM      3  O   UNL     1       4.599  -0.598  28.281  0.00  0.00    -0.331 OA
ATOM      4  C   UNL     1       3.750   0.299  29.011  0.00  0.00    +0.179 C 
ATOM      5  C   UNL     1       2.267  -0.117  28.981  0.00  0.00    +0.177 C 
ATOM      6  C   UNL     1       1.839  -0.616  27.594  0.00  0.00    +0.180 C 
ENDROOT
BRANCH   6   7
ATOM      7  O   UNL     1       0.443  -0.969  27.615  0.00  0.00    -0.386 OA
ATOM      8  H   UNL     1       0.364  -1.805  28.114  0.00  0.00    +0.210 HD
ENDBRANCH   6   7
BRANCH   5   9
ATOM      9  O   UNL     1       1.400   0.953  29.372  0.00  0.00    -0.386 OA
ATOM     10  H   UNL     1       1.989   1.679  29.654  0.00  0.00    +0.210 HD
ENDBRANCH   5   9
BRANCH   4  11
ATOM     11  C   UNL     1       3.965   1.795  28.693  0.00  0.00    +0.190 C 
BRANCH  11  12
ATOM     12  O   UNL     1       5.341   2.080  28.435  0.00  0.00    -0.392 OA
ATOM     13  H   UNL     1       5.735   1.249  28.118  0.00  0.00    +0.210 HD
ENDBRANCH  11  12
ENDBRANCH   4  11
BRANCH   2  14
ATOM     14  O   UNL     1       5.217  -1.802  26.384  0.00  0.00    -0.453 OA
BRANCH  14  15
ATOM     15  C   UNL     1       5.905  -1.041  25.418  0.00  0.00    +0.214 A 
ATOM     16  C   UNL     1       6.755   0.138  25.826  0.00  0.00    +0.238 A 
ATOM     17  O   UNL     1       7.343   0.236  26.895  0.00  0.00    -0.283 OA
ATOM     18  C   UNL     1       6.976   1.207  24.894  0.00  0.00    +0.109 A 
ATOM     19  C   UNL     1       6.830   0.884  23.563  0.00  0.00    +0.147 A 
ATOM     20  C   UNL     1       7.124   1.856  22.611  0.00  0.00    +0.092 A 
ATOM     21  C   UNL     1       7.586   3.115  23.035  0.00  0.00    +0.124 A 
ATOM     22  C   UNL     1       7.755   3.423  24.379  0.00  0.00    +0.091 A 
ATOM     23  O   UNL     1       6.472  -0.379  23.154  0.00  0.00    -0.451 OA
ATOM     24  C   UNL     1       7.428   2.468  25.319  0.00  0.00    +0.135 A 
ATOM     25  C   UNL     1       5.973  -1.323  24.086  0.00  0.00    +0.181 A 
BRANCH  25  26
ATOM     26  C   UNL     1       5.696  -2.665  23.422  0.00  0.00    +0.025 A 
ATOM     27  C   UNL     1       6.297  -2.939  22.163  0.00  0.00    +0.015 A 
ATOM     28  C   UNL     1       6.331  -4.226  21.600  0.00  0.00    +0.050 A 
ATOM     29  C   UNL     1       5.746  -5.273  22.280  0.00  0.00    +0.158 A 
ATOM     30  C   UNL     1       5.057  -5.032  23.462  0.00  0.00    +0.159 A 
ATOM     31  C   UNL     1       5.025  -3.745  24.033  0.00  0.00    +0.060 A 
BRANCH  30  32
ATOM     32  O   UNL     1       4.447  -6.108  24.053  0.00  0.00    -0.503 OA
ATOM     33  H   UNL     1       4.025  -5.804  24.874  0.00  0.00    +0.292 HD
ENDBRANCH  30  32
BRANCH  29  34
ATOM     34  O   UNL     1       5.881  -6.544  21.797  0.00  0.00    -0.503 OA
ATOM     35  H   UNL     1       6.745  -6.852  22.137  0.00  0.00    +0.292 HD
ENDBRANCH  29  34
ENDBRANCH  25  26
BRANCH  24  36
ATOM     36  O   UNL     1       7.547   2.784  26.645  0.00  0.00    -0.506 OA
ATOM     37  H   UNL     1       8.433   2.549  26.964  0.00  0.00    +0.292 HD
ENDBRANCH  24  36
BRANCH  21  38
ATOM     38  O   UNL     1       7.897   4.100  22.150  0.00  0.00    -0.507 OA
ATOM     39  H   UNL     1       8.314   4.835  22.626  0.00  0.00    +0.292 HD
ENDBRANCH  21  38
ENDBRANCH  14  15
ENDBRANCH   2  14
BRANCH   1  40
ATOM     40  O   UNL     1       2.824  -2.918  27.985  0.00  0.00    -0.336 OA
BRANCH  40  42
ATOM     41  C   UNL     1       3.754  -5.160  27.423  0.00  0.00    +0.263 C 
ATOM     42  C   UNL     1       2.570  -4.159  27.324  0.00  0.00    +0.295 C 
ATOM     43  O   UNL     1       1.356  -4.728  27.828  0.00  0.00    -0.340 OA
ATOM     44  C   UNL     1       0.948  -5.901  27.096  0.00  0.00    +0.178 C 
ATOM     45  C   UNL     1       2.031  -6.979  27.250  0.00  0.00    +0.178 C 
ATOM     46  C   UNL     1       3.378  -6.468  26.728  0.00  0.00    +0.191 C 
BRANCH  46  47
ATOM     47  O   UNL     1       4.358  -7.504  26.900  0.00  0.00    -0.385 OA
ATOM     48  H   UNL     1       5.224  -7.074  27.069  0.00  0.00    +0.210 HD
ENDBRANCH  46  47
BRANCH  45  49
ATOM     49  O   UNL     1       1.686  -8.182  26.567  0.00  0.00    -0.386 OA
ATOM     50  H   UNL     1       1.802  -7.968  25.618  0.00  0.00    +0.210 HD
ENDBRANCH  45  49
BRANCH  41  51
ATOM     51  O   UNL     1       4.093  -5.388  28.803  0.00  0.00    -0.450 OA
BRANCH  51  52
ATOM     52  C   UNL     1       5.416  -5.210  29.105  0.00  0.00    +0.332 C 
ATOM     53  O   UNL     1       5.947  -5.515  30.164  0.00  0.00    -0.246 OA
BRANCH  52  55
ATOM     54  C   UNL     1       7.221  -5.098  27.456  0.00  0.00    +0.015 C 
ATOM     55  C   UNL     1       6.083  -4.574  27.961  0.00  0.00    +0.092 C 
BRANCH  54  58
ATOM     56  C   UNL     1       9.197  -2.638  25.354  0.00  0.00    +0.162 A 
ATOM     57  C   UNL     1       8.469  -3.186  26.411  0.00  0.00    +0.057 A 
ATOM     58  C   UNL     1       7.968  -4.496  26.341  0.00  0.00    -0.021 A 
ATOM     59  C   UNL     1       8.241  -5.263  25.199  0.00  0.00    +0.012 A 
ATOM     60  C   UNL     1       8.951  -4.716  24.127  0.00  0.00    +0.050 A 
ATOM     61  C   UNL     1       9.410  -3.409  24.208  0.00  0.00    +0.158 A 
BRANCH  61  62
ATOM     62  O   UNL     1      10.100  -2.895  23.145  0.00  0.00    -0.503 OA
ATOM     63  H   UNL     1       9.427  -2.446  22.596  0.00  0.00    +0.292 HD
ENDBRANCH  61  62
BRANCH  56  65
ATOM     64  C   UNL     1       9.882  -0.806  24.034  0.00  0.00    +0.277 C 
ATOM     65  O   UNL     1       9.722  -1.371  25.334  0.00  0.00    -0.491 OA
ENDBRANCH  56  65
ENDBRANCH  54  58
ENDBRANCH  52  55
ENDBRANCH  51  52
ENDBRANCH  41  51
BRANCH  44  66
ATOM     66  C   UNL     1       0.583  -5.614  25.615  0.00  0.00    +0.190 C 
BRANCH  66  67
ATOM     67  O   UNL     1       1.501  -6.228  24.713  0.00  0.00    -0.392 OA
ATOM     68  H   UNL     1       1.493  -7.185  24.889  0.00  0.00    +0.210 HD
ENDBRANCH  66  67
ENDBRANCH  44  66
ENDBRANCH  40  42
ENDBRANCH   1  40
TORSDOF 23
ENDMDL
MODEL 7
REMARK VINA RESULT:      -6.3      2.206      7.724
REMARK  Name = 
REMARK  24 active torsions:
REMARK  status: ('A' for Active; 'I' for Inactive)
REMARK    1  A    between atoms: C_1  and  O_2
REMARK    2  A    between atoms: O_2  and  C_3
REMARK    3  A    between atoms: C_4  and  O_63
REMARK    4  A    between atoms: C_7  and  C_9
REMARK    5  A    between atoms: C_10  and  C_11
REMARK    6  A    between atoms: C_11  and  O_13
REMARK    7  A    between atoms: O_13  and  C_14
REMARK    8  A    between atoms: C_15  and  O_62
REMARK    9  A    between atoms: C_17  and  O_61
REMARK   10  A    between atoms: C_19  and  C_59
REMARK   11  A    between atoms: C_21  and  O_23
REMARK   12  A    between atoms: O_23  and  C_24
REMARK   13  A    between atoms: C_25  and  O_58
REMARK   14  A    between atoms: C_27  and  O_57
REMARK   15  A    between atoms: C_29  and  C_55
REMARK   16  A    between atoms: C_31  and  O_33
REMARK   17  A    between atoms: O_33  and  C_34
REMARK   18  A    between atoms: C_35  and  C_47
REMARK   19  A    between atoms: C_39  and  O_46
REMARK   20  A    between atoms: C_41  and  O_45
REMARK   21  A    between atoms: C_49  and  O_54
REMARK   22  A    between atoms: C_50  and  O_53
REMARK   23  A    between atoms: C_55  and  O_56
REMARK   24  A    between atoms: C_59  and  O_60
REMARK                            x       y       z     vdW  Elec       q    Type
REMARK                         _______ _______ _______ _____ _____    ______ ____
ROOT
ATOM      1  C   UNL     1       7.221  -1.192  25.056  0.00  0.00    +0.221 C 
ATOM      2  C   UNL     1       7.358  -0.380  23.755  0.00  0.00    +0.340 C 
ATOM      3  O   UNL     1       7.584  -1.214  22.626  0.00  0.00    -0.331 OA
ATOM      4  C   UNL     1       8.705  -2.110  22.657  0.00  0.00    +0.179 C 
ATOM      5  C   UNL     1       8.875  -2.815  24.016  0.00  0.00    +0.177 C 
ATOM      6  C   UNL     1       8.627  -1.861  25.192  0.00  0.00    +0.180 C 
ENDROOT
BRANCH   6   7
ATOM      7  O   UNL     1       8.821  -2.561  26.435  0.00  0.00    -0.386 OA
ATOM      8  H   UNL     1       8.750  -3.516  26.242  0.00  0.00    +0.210 HD
ENDBRANCH   6   7
BRANCH   5   9
ATOM      9  O   UNL     1      10.177  -3.395  24.162  0.00  0.00    -0.386 OA
ATOM     10  H   UNL     1      10.048  -4.194  24.708  0.00  0.00    +0.210 HD
ENDBRANCH   5   9
BRANCH   4  11
ATOM     11  C   UNL     1      10.022  -1.515  22.114  0.00  0.00    +0.190 C 
BRANCH  11  12
ATOM     12  O   UNL     1       9.773  -0.509  21.130  0.00  0.00    -0.392 OA
ATOM     13  H   UNL     1      10.243  -0.795  20.327  0.00  0.00    +0.210 HD
ENDBRANCH  11  12
ENDBRANCH   4  11
BRANCH   2  14
ATOM     14  O   UNL     1       6.310   0.559  23.441  0.00  0.00    -0.453 OA
BRANCH  14  15
ATOM     15  C   UNL     1       6.705   1.903  23.596  0.00  0.00    +0.214 A 
ATOM     16  C   UNL     1       8.010   2.395  23.018  0.00  0.00    +0.238 A 
ATOM     17  O   UNL     1       8.542   1.942  22.014  0.00  0.00    -0.283 OA
ATOM     18  C   UNL     1       8.669   3.521  23.617  0.00  0.00    +0.109 A 
ATOM     19  C   UNL     1       7.863   4.375  24.339  0.00  0.00    +0.147 A 
ATOM     20  C   UNL     1       8.430   5.533  24.862  0.00  0.00    +0.092 A 
ATOM     21  C   UNL     1       9.786   5.808  24.612  0.00  0.00    +0.124 A 
ATOM     22  C   UNL     1      10.584   4.955  23.861  0.00  0.00    +0.091 A 
ATOM     23  O   UNL     1       6.516   4.147  24.495  0.00  0.00    -0.451 OA
ATOM     24  C   UNL     1      10.026   3.791  23.375  0.00  0.00    +0.135 A 
ATOM     25  C   UNL     1       5.953   2.891  24.156  0.00  0.00    +0.181 A 
BRANCH  25  26
ATOM     26  C   UNL     1       4.444   2.887  24.358  0.00  0.00    +0.025 A 
ATOM     27  C   UNL     1       3.935   2.756  25.679  0.00  0.00    +0.015 A 
ATOM     28  C   UNL     1       2.592   3.011  26.005  0.00  0.00    +0.050 A 
ATOM     29  C   UNL     1       1.717   3.390  25.008  0.00  0.00    +0.158 A 
ATOM     30  C   UNL     1       2.149   3.428  23.688  0.00  0.00    +0.159 A 
ATOM     31  C   UNL     1       3.495   3.179  23.357  0.00  0.00    +0.060 A 
BRANCH  30  32
ATOM     32  O   UNL     1       1.212   3.752  22.741  0.00  0.00    -0.503 OA
ATOM     33  H   UNL     1       1.187   3.038  22.081  0.00  0.00    +0.292 HD
ENDBRANCH  30  32
BRANCH  29  34
ATOM     34  O   UNL     1       0.443   3.755  25.338  0.00  0.00    -0.503 OA
ATOM     35  H   UNL     1       0.119   4.263  24.567  0.00  0.00    +0.292 HD
ENDBRANCH  29  34
ENDBRANCH  25  26
BRANCH  24  36
ATOM     36  O   UNL     1      10.821   2.924  22.676  0.00  0.00    -0.506 OA
ATOM     37  H   UNL     1      11.603   3.389  22.338  0.00  0.00    +0.292 HD
ENDBRANCH  24  36
BRANCH  21  38
ATOM     38  O   UNL     1      10.390   6.929  25.090  0.00  0.00    -0.507 OA
ATOM     39  H   UNL     1      11.175   7.121  24.554  0.00  0.00    +0.292 HD
ENDBRANCH  21  38
ENDBRANCH  14  15
ENDBRANCH   2  14
BRANCH   1  40
ATOM     40  O   UNL     1       6.110  -2.095  25.008  0.00  0.00    -0.336 OA
BRANCH  40  42
ATOM     41  C   UNL     1       5.074  -2.822  27.154  0.00  0.00    +0.263 C 
ATOM     42  C   UNL     1       6.118  -3.088  26.035  0.00  0.00    +0.295 C 
ATOM     43  O   UNL     1       5.942  -4.383  25.447  0.00  0.00    -0.340 OA
ATOM     44  C   UNL     1       6.100  -5.451  26.403  0.00  0.00    +0.178 C 
ATOM     45  C   UNL     1       5.017  -5.311  27.481  0.00  0.00    +0.178 C 
ATOM     46  C   UNL     1       5.124  -3.952  28.181  0.00  0.00    +0.191 C 
BRANCH  46  47
ATOM     47  O   UNL     1       4.089  -3.865  29.172  0.00  0.00    -0.385 OA
ATOM     48  H   UNL     1       3.269  -3.563  28.725  0.00  0.00    +0.210 HD
ENDBRANCH  46  47
BRANCH  45  49
ATOM     49  O   UNL     1       5.096  -6.350  28.454  0.00  0.00    -0.386 OA
ATOM     50  H   UNL     1       5.507  -5.925  29.235  0.00  0.00    +0.210 HD
ENDBRANCH  45  49
BRANCH  41  51
ATOM     51  O   UNL     1       3.758  -2.704  26.582  0.00  0.00    -0.450 OA
BRANCH  51  52
ATOM     52  C   UNL     1       3.113  -1.531  26.866  0.00  0.00    +0.332 C 
ATOM     53  O   UNL     1       1.908  -1.343  26.769  0.00  0.00    -0.246 OA
BRANCH  52  55
ATOM     54  C   UNL     1       3.892   0.228  28.381  0.00  0.00    +0.015 C 
ATOM     55  C   UNL     1       4.106  -0.532  27.284  0.00  0.00    +0.092 C 
BRANCH  54  58
ATOM     56  C   UNL     1       5.249   3.432  29.887  0.00  0.00    +0.162 A 
ATOM     57  C   UNL     1       4.355   2.459  29.437  0.00  0.00    +0.057 A 
ATOM     58  C   UNL     1       4.817   1.276  28.837  0.00  0.00    -0.021 A 
ATOM     59  C   UNL     1       6.201   1.071  28.725  0.00  0.00    +0.012 A 
ATOM     60  C   UNL     1       7.102   2.050  29.153  0.00  0.00    +0.050 A 
ATOM     61  C   UNL     1       6.619   3.223  29.717  0.00  0.00    +0.158 A 
BRANCH  61  62
ATOM     62  O   UNL     1       7.521   4.166  30.125  0.00  0.00    -0.503 OA
ATOM     63  H   UNL     1       8.390   3.722  30.090  0.00  0.00    +0.292 HD
ENDBRANCH  61  62
BRANCH  56  65
ATOM     64  C   UNL     1       4.216   5.537  29.627  0.00  0.00    +0.277 C 
ATOM     65  O   UNL     1       4.889   4.614  30.482  0.00  0.00    -0.491 OA
ENDBRANCH  56  65
ENDBRANCH  54  58
ENDBRANCH  52  55
ENDBRANCH  51  52
ENDBRANCH  41  51
BRANCH  44  66
ATOM     66  C   UNL     1       7.532  -5.552  26.990  0.00  0.00    +0.190 C 
BRANCH  66  67
ATOM     67  O   UNL     1       8.525  -5.592  25.968  0.00  0.00    -0.392 OA
ATOM     68  H   UNL     1       8.690  -6.526  25.752  0.00  0.00    +0.210 HD
ENDBRANCH  66  67
ENDBRANCH  44  66
ENDBRANCH  40  42
ENDBRANCH   1  40
TORSDOF 23
ENDMDL
MODEL 8
REMARK VINA RESULT:      -6.3      1.578      4.412
REMARK  Name = 
REMARK  24 active torsions:
REMARK  status: ('A' for Active; 'I' for Inactive)
REMARK    1  A    between atoms: C_1  and  O_2
REMARK    2  A    between atoms: O_2  and  C_3
REMARK    3  A    between atoms: C_4  and  O_63
REMARK    4  A    between atoms: C_7  and  C_9
REMARK    5  A    between atoms: C_10  and  C_11
REMARK    6  A    between atoms: C_11  and  O_13
REMARK    7  A    between atoms: O_13  and  C_14
REMARK    8  A    between atoms: C_15  and  O_62
REMARK    9  A    between atoms: C_17  and  O_61
REMARK   10  A    between atoms: C_19  and  C_59
REMARK   11  A    between atoms: C_21  and  O_23
REMARK   12  A    between atoms: O_23  and  C_24
REMARK   13  A    between atoms: C_25  and  O_58
REMARK   14  A    between atoms: C_27  and  O_57
REMARK   15  A    between atoms: C_29  and  C_55
REMARK   16  A    between atoms: C_31  and  O_33
REMARK   17  A    between atoms: O_33  and  C_34
REMARK   18  A    between atoms: C_35  and  C_47
REMARK   19  A    between atoms: C_39  and  O_46
REMARK   20  A    between atoms: C_41  and  O_45
REMARK   21  A    between atoms: C_49  and  O_54
REMARK   22  A    between atoms: C_50  and  O_53
REMARK   23  A    between atoms: C_55  and  O_56
REMARK   24  A    between atoms: C_59  and  O_60
REMARK                            x       y       z     vdW  Elec       q    Type
REMARK                         _______ _______ _______ _____ _____    ______ ____
ROOT
ATOM      1  C   UNL     1       9.262   0.694  25.038  0.00  0.00    +0.221 C 
ATOM      2  C   UNL     1       8.532   1.938  24.499  0.00  0.00    +0.340 C 
ATOM      3  O   UNL     1       7.594   1.608  23.482  0.00  0.00    -0.331 OA
ATOM      4  C   UNL     1       8.064   0.891  22.332  0.00  0.00    +0.179 C 
ATOM      5  C   UNL     1       9.045  -0.242  22.687  0.00  0.00    +0.177 C 
ATOM      6  C   UNL     1      10.035   0.178  23.781  0.00  0.00    +0.180 C 
ENDROOT
BRANCH   6   7
ATOM      7  O   UNL     1      10.941  -0.906  24.059  0.00  0.00    -0.386 OA
ATOM      8  H   UNL     1      10.399  -1.701  24.222  0.00  0.00    +0.210 HD
ENDBRANCH   6   7
BRANCH   5   9
ATOM      9  O   UNL     1       9.785  -0.691  21.546  0.00  0.00    -0.386 OA
ATOM     10  H   UNL     1       9.147  -0.699  20.806  0.00  0.00    +0.210 HD
ENDBRANCH   5   9
BRANCH   4  11
ATOM     11  C   UNL     1       8.562   1.783  21.174  0.00  0.00    +0.190 C 
BRANCH  11  12
ATOM     12  O   UNL     1       9.882   2.271  21.423  0.00  0.00    -0.392 OA
ATOM     13  H   UNL     1       9.838   2.751  22.267  0.00  0.00    +0.210 HD
ENDBRANCH  11  12
ENDBRANCH   4  11
BRANCH   2  14
ATOM     14  O   UNL     1       7.898   2.807  25.458  0.00  0.00    -0.453 OA
BRANCH  14  15
ATOM     15  C   UNL     1       7.062   3.773  24.863  0.00  0.00    +0.214 A 
ATOM     16  C   UNL     1       5.563   3.694  25.017  0.00  0.00    +0.238 A 
ATOM     17  O   UNL     1       4.985   3.216  25.984  0.00  0.00    -0.283 OA
ATOM     18  C   UNL     1       4.717   4.277  24.014  0.00  0.00    +0.109 A 
ATOM     19  C   UNL     1       5.286   5.277  23.255  0.00  0.00    +0.147 A 
ATOM     20  C   UNL     1       4.485   5.942  22.332  0.00  0.00    +0.092 A 
ATOM     21  C   UNL     1       3.125   5.598  22.227  0.00  0.00    +0.124 A 
ATOM     22  C   UNL     1       2.555   4.607  23.015  0.00  0.00    +0.091 A 
ATOM     23  O   UNL     1       6.590   5.674  23.433  0.00  0.00    -0.451 OA
ATOM     24  C   UNL     1       3.361   3.926  23.903  0.00  0.00    +0.135 A 
ATOM     25  C   UNL     1       7.482   4.892  24.209  0.00  0.00    +0.181 A 
BRANCH  25  26
ATOM     26  C   UNL     1       8.850   5.551  24.313  0.00  0.00    +0.025 A 
ATOM     27  C   UNL     1       9.107   6.419  25.409  0.00  0.00    +0.015 A 
ATOM     28  C   UNL     1      10.399   6.857  25.748  0.00  0.00    +0.050 A 
ATOM     29  C   UNL     1      11.470   6.446  24.982  0.00  0.00    +0.158 A 
ATOM     30  C   UNL     1      11.253   5.684  23.842  0.00  0.00    +0.159 A 
ATOM     31  C   UNL     1       9.961   5.238  23.502  0.00  0.00    +0.060 A 
BRANCH  30  32
ATOM     32  O   UNL     1      12.356   5.363  23.094  0.00  0.00    -0.503 OA
ATOM     33  H   UNL     1      12.192   5.641  22.176  0.00  0.00    +0.292 HD
ENDBRANCH  30  32
BRANCH  29  34
ATOM     34  O   UNL     1      12.737   6.769  25.377  0.00  0.00    -0.503 OA
ATOM     35  H   UNL     1      12.629   7.545  25.963  0.00  0.00    +0.292 HD
ENDBRANCH  29  34
ENDBRANCH  25  26
BRANCH  24  36
ATOM     36  O   UNL     1       2.814   2.916  24.646  0.00  0.00    -0.506 OA
ATOM     37  H   UNL     1       2.359   3.283  25.421  0.00  0.00    +0.292 HD
ENDBRANCH  24  36
BRANCH  21  38
ATOM     38  O   UNL     1       2.293   6.220  21.349  0.00  0.00    -0.507 OA
ATOM     39  H   UNL     1       1.391   6.207  21.703  0.00  0.00    +0.292 HD
ENDBRANCH  21  38
ENDBRANCH  14  15
ENDBRANCH   2  14
BRANCH   1  40
ATOM     40  O   UNL     1       8.355  -0.242  25.632  0.00  0.00    -0.336 OA
BRANCH  40  42
ATOM     41  C   UNL     1       5.907  -0.072  26.064  0.00  0.00    +0.263 C 
ATOM     42  C   UNL     1       7.349   0.356  26.452  0.00  0.00    +0.295 C 
ATOM     43  O   UNL     1       7.629   0.076  27.829  0.00  0.00    -0.340 OA
ATOM     44  C   UNL     1       6.749   0.781  28.728  0.00  0.00    +0.178 C 
ATOM     45  C   UNL     1       5.309   0.315  28.472  0.00  0.00    +0.178 C 
ATOM     46  C   UNL     1       4.906   0.579  27.018  0.00  0.00    +0.191 C 
BRANCH  46  47
ATOM     47  O   UNL     1       3.559   0.121  26.825  0.00  0.00    -0.385 OA
ATOM     48  H   UNL     1       3.521  -0.349  25.964  0.00  0.00    +0.210 HD
ENDBRANCH  46  47
BRANCH  45  49
ATOM     49  O   UNL     1       4.379   0.955  29.343  0.00  0.00    -0.386 OA
ATOM     50  H   UNL     1       4.114   1.768  28.864  0.00  0.00    +0.210 HD
ENDBRANCH  45  49
BRANCH  41  51
ATOM     51  O   UNL     1       5.793  -1.506  26.097  0.00  0.00    -0.450 OA
BRANCH  51  52
ATOM     52  C   UNL     1       5.616  -2.095  24.874  0.00  0.00    +0.332 C 
ATOM     53  O   UNL     1       5.871  -1.578  23.796  0.00  0.00    -0.246 OA
BRANCH  52  55
ATOM     54  C   UNL     1       4.397  -4.057  24.063  0.00  0.00    +0.015 C 
ATOM     55  C   UNL     1       5.050  -3.437  25.071  0.00  0.00    +0.092 C 
BRANCH  54  58
ATOM     56  C   UNL     1       2.315  -7.145  23.351  0.00  0.00    +0.162 A 
ATOM     57  C   UNL     1       2.885  -5.877  23.222  0.00  0.00    +0.057 A 
ATOM     58  C   UNL     1       3.767  -5.379  24.195  0.00  0.00    -0.021 A 
ATOM     59  C   UNL     1       4.095  -6.193  25.289  0.00  0.00    +0.012 A 
ATOM     60  C   UNL     1       3.513  -7.455  25.438  0.00  0.00    +0.050 A 
ATOM     61  C   UNL     1       2.622  -7.913  24.477  0.00  0.00    +0.158 A 
BRANCH  61  62
ATOM     62  O   UNL     1       2.063  -9.149  24.646  0.00  0.00    -0.503 OA
ATOM     63  H   UNL     1       2.253  -9.392  25.573  0.00  0.00    +0.292 HD
ENDBRANCH  61  62
BRANCH  56  65
ATOM     64  C   UNL     1       0.444  -6.828  21.949  0.00  0.00    +0.277 C 
ATOM     65  O   UNL     1       1.445  -7.710  22.454  0.00  0.00    -0.491 OA
ENDBRANCH  56  65
ENDBRANCH  54  58
ENDBRANCH  52  55
ENDBRANCH  51  52
ENDBRANCH  41  51
BRANCH  44  66
ATOM     66  C   UNL     1       6.907   2.323  28.670  0.00  0.00    +0.190 C 
BRANCH  66  67
ATOM     67  O   UNL     1       7.852   2.797  29.626  0.00  0.00    -0.392 OA
ATOM     68  H   UNL     1       7.439   2.736  30.505  0.00  0.00    +0.210 HD
ENDBRANCH  66  67
ENDBRANCH  44  66
ENDBRANCH  40  42
ENDBRANCH   1  40
TORSDOF 23
ENDMDL
MODEL 9
REMARK VINA RESULT:      -6.0      3.028      8.679
REMARK  Name = 
REMARK  24 active torsions:
REMARK  status: ('A' for Active; 'I' for Inactive)
REMARK    1  A    between atoms: C_1  and  O_2
REMARK    2  A    between atoms: O_2  and  C_3
REMARK    3  A    between atoms: C_4  and  O_63
REMARK    4  A    between atoms: C_7  and  C_9
REMARK    5  A    between atoms: C_10  and  C_11
REMARK    6  A    between atoms: C_11  and  O_13
REMARK    7  A    between atoms: O_13  and  C_14
REMARK    8  A    between atoms: C_15  and  O_62
REMARK    9  A    between atoms: C_17  and  O_61
REMARK   10  A    between atoms: C_19  and  C_59
REMARK   11  A    between atoms: C_21  and  O_23
REMARK   12  A    between atoms: O_23  and  C_24
REMARK   13  A    between atoms: C_25  and  O_58
REMARK   14  A    between atoms: C_27  and  O_57
REMARK   15  A    between atoms: C_29  and  C_55
REMARK   16  A    between atoms: C_31  and  O_33
REMARK   17  A    between atoms: O_33  and  C_34
REMARK   18  A    between atoms: C_35  and  C_47
REMARK   19  A    between atoms: C_39  and  O_46
REMARK   20  A    between atoms: C_41  and  O_45
REMARK   21  A    between atoms: C_49  and  O_54
REMARK   22  A    between atoms: C_50  and  O_53
REMARK   23  A    between atoms: C_55  and  O_56
REMARK   24  A    between atoms: C_59  and  O_60
REMARK                            x       y       z     vdW  Elec       q    Type
REMARK                         _______ _______ _______ _____ _____    ______ ____
ROOT
ATOM      1  C   UNL     1       4.974  -4.269  24.655  0.00  0.00    +0.221 C 
ATOM      2  C   UNL     1       5.529  -3.070  23.865  0.00  0.00    +0.340 C 
ATOM      3  O   UNL     1       5.196  -3.141  22.484  0.00  0.00    -0.331 OA
ATOM      4  C   UNL     1       5.580  -4.314  21.752  0.00  0.00    +0.179 C 
ATOM      5  C   UNL     1       5.338  -5.618  22.534  0.00  0.00    +0.177 C 
ATOM      6  C   UNL     1       5.725  -5.481  24.013  0.00  0.00    +0.180 C 
ENDROOT
BRANCH   6   7
ATOM      7  O   UNL     1       5.502  -6.731  24.691  0.00  0.00    -0.386 OA
ATOM      8  H   UNL     1       6.205  -7.345  24.405  0.00  0.00    +0.210 HD
ENDBRANCH   6   7
BRANCH   5   9
ATOM      9  O   UNL     1       6.056  -6.723  21.973  0.00  0.00    -0.386 OA
ATOM     10  H   UNL     1       6.489  -7.165  22.728  0.00  0.00    +0.210 HD
ENDBRANCH   5   9
BRANCH   4  11
ATOM     11  C   UNL     1       6.982  -4.243  21.110  0.00  0.00    +0.190 C 
BRANCH  11  12
ATOM     12  O   UNL     1       8.013  -4.363  22.092  0.00  0.00    -0.392 OA
ATOM     13  H   UNL     1       7.979  -5.282  22.409  0.00  0.00    +0.210 HD
ENDBRANCH  11  12
ENDBRANCH   4  11
BRANCH   2  14
ATOM     14  O   UNL     1       5.223  -1.750  24.354  0.00  0.00    -0.453 OA
BRANCH  14  15
ATOM     15  C   UNL     1       6.361  -0.928  24.481  0.00  0.00    +0.214 A 
ATOM     16  C   UNL     1       6.267   0.560  24.246  0.00  0.00    +0.238 A 
ATOM     17  O   UNL     1       5.269   1.237  24.451  0.00  0.00    -0.283 OA
ATOM     18  C   UNL     1       7.433   1.284  23.823  0.00  0.00    +0.109 A 
ATOM     19  C   UNL     1       8.645   0.703  24.128  0.00  0.00    +0.147 A 
ATOM     20  C   UNL     1       9.808   1.405  23.825  0.00  0.00    +0.092 A 
ATOM     21  C   UNL     1       9.708   2.686  23.253  0.00  0.00    +0.124 A 
ATOM     22  C   UNL     1       8.482   3.274  22.973  0.00  0.00    +0.091 A 
ATOM     23  O   UNL     1       8.730  -0.505  24.777  0.00  0.00    -0.451 OA
ATOM     24  C   UNL     1       7.333   2.559  23.241  0.00  0.00    +0.135 A 
ATOM     25  C   UNL     1       7.587  -1.332  24.914  0.00  0.00    +0.181 A 
BRANCH  25  26
ATOM     26  C   UNL     1       7.905  -2.589  25.712  0.00  0.00    +0.025 A 
ATOM     27  C   UNL     1       7.082  -2.916  26.824  0.00  0.00    +0.015 A 
ATOM     28  C   UNL     1       7.116  -4.173  27.452  0.00  0.00    +0.050 A 
ATOM     29  C   UNL     1       7.991  -5.133  26.989  0.00  0.00    +0.158 A 
ATOM     30  C   UNL     1       8.886  -4.821  25.974  0.00  0.00    +0.159 A 
ATOM     31  C   UNL     1       8.852  -3.565  25.338  0.00  0.00    +0.060 A 
BRANCH  30  32
ATOM     32  O   UNL     1       9.769  -5.803  25.605  0.00  0.00    -0.503 OA
ATOM     33  H   UNL     1       9.420  -6.657  25.914  0.00  0.00    +0.292 HD
ENDBRANCH  30  32
BRANCH  29  34
ATOM     34  O   UNL     1       7.942  -6.393  27.516  0.00  0.00    -0.503 OA
ATOM     35  H   UNL     1       8.346  -6.311  28.403  0.00  0.00    +0.292 HD
ENDBRANCH  29  34
ENDBRANCH  25  26
BRANCH  24  36
ATOM     36  O   UNL     1       6.124   3.115  22.922  0.00  0.00    -0.506 OA
ATOM     37  H   UNL     1       5.928   2.965  21.983  0.00  0.00    +0.292 HD
ENDBRANCH  24  36
BRANCH  21  38
ATOM     38  O   UNL     1      10.811   3.421  22.944  0.00  0.00    -0.507 OA
ATOM     39  H   UNL     1      11.594   2.996  23.326  0.00  0.00    +0.292 HD
ENDBRANCH  21  38
ENDBRANCH  14  15
ENDBRANCH   2  14
BRANCH   1  40
ATOM     40  O   UNL     1       3.544  -4.330  24.600  0.00  0.00    -0.336 OA
BRANCH  40  42
ATOM     41  C   UNL     1       3.047  -5.798  26.551  0.00  0.00    +0.263 C 
ATOM     42  C   UNL     1       2.995  -5.582  25.014  0.00  0.00    +0.295 C 
ATOM     43  O   UNL     1       1.660  -5.707  24.510  0.00  0.00    -0.340 OA
ATOM     44  C   UNL     1       1.096  -7.012  24.749  0.00  0.00    +0.178 C 
ATOM     45  C   UNL     1       1.013  -7.242  26.264  0.00  0.00    +0.178 C 
ATOM     46  C   UNL     1       2.402  -7.137  26.903  0.00  0.00    +0.191 C 
BRANCH  46  47
ATOM     47  O   UNL     1       2.273  -7.351  28.317  0.00  0.00    -0.385 OA
ATOM     48  H   UNL     1       1.527  -7.973  28.461  0.00  0.00    +0.210 HD
ENDBRANCH  46  47
BRANCH  45  49
ATOM     49  O   UNL     1       0.443  -8.510  26.580  0.00  0.00    -0.386 OA
ATOM     50  H   UNL     1       0.254  -8.462  27.540  0.00  0.00    +0.210 HD
ENDBRANCH  45  49
BRANCH  41  51
ATOM     51  O   UNL     1       2.382  -4.713  27.224  0.00  0.00    -0.450 OA
BRANCH  51  52
ATOM     52  C   UNL     1       3.093  -4.154  28.252  0.00  0.00    +0.332 C 
ATOM     53  O   UNL     1       3.651  -4.774  29.145  0.00  0.00    -0.246 OA
BRANCH  52  55
ATOM     54  C   UNL     1       4.191  -1.993  27.909  0.00  0.00    +0.015 C 
ATOM     55  C   UNL     1       3.052  -2.691  28.117  0.00  0.00    +0.092 C 
BRANCH  54  58
ATOM     56  C   UNL     1       5.457   1.581  27.894  0.00  0.00    +0.162 A 
ATOM     57  C   UNL     1       5.425   0.191  28.020  0.00  0.00    +0.057 A 
ATOM     58  C   UNL     1       4.237  -0.527  27.806  0.00  0.00    -0.021 A 
ATOM     59  C   UNL     1       3.083   0.175  27.429  0.00  0.00    +0.012 A 
ATOM     60  C   UNL     1       3.100   1.568  27.321  0.00  0.00    +0.050 A 
ATOM     61  C   UNL     1       4.280   2.257  27.566  0.00  0.00    +0.158 A 
BRANCH  61  62
ATOM     62  O   UNL     1       4.271   3.621  27.458  0.00  0.00    -0.503 OA
ATOM     63  H   UNL     1       4.076   3.801  26.517  0.00  0.00    +0.292 HD
ENDBRANCH  61  62
BRANCH  56  65
ATOM     64  C   UNL     1       7.192   2.218  29.360  0.00  0.00    +0.277 C 
ATOM     65  O   UNL     1       6.568   2.362  28.085  0.00  0.00    -0.491 OA
ENDBRANCH  56  65
ENDBRANCH  54  58
ENDBRANCH  52  55
ENDBRANCH  51  52
ENDBRANCH  41  51
BRANCH  44  66
ATOM     66  C   UNL     1       1.834  -8.154  24.001  0.00  0.00    +0.190 C 
BRANCH  66  67
ATOM     67  O   UNL     1       1.938  -7.893  22.604  0.00  0.00    -0.392 OA
ATOM     68  H   UNL     1       1.716  -8.715  22.132  0.00  0.00    +0.210 HD
ENDBRANCH  66  67
ENDBRANCH  44  66
ENDBRANCH  40  42
ENDBRANCH   1  40
TORSDOF 23
ENDMDL
