MODEL 1
REMARK VINA RESULT:      -7.7      0.000      0.000
REMARK  Name = 
REMARK  16 active torsions:
REMARK  status: ('A' for Active; 'I' for Inactive)
REMARK    1  A    between atoms: C_1  and  C_2
REMARK    2  A    between atoms: C_2  and  O_4
REMARK    3  A    between atoms: O_4  and  C_5
REMARK    4  A    between atoms: C_5  and  C_6
REMARK    5  A    between atoms: C_7  and  O_41
REMARK    6  A    between atoms: C_9  and  O_37
REMARK    7  A    between atoms: C_10  and  O_36
REMARK    8  A    between atoms: C_11  and  O_14
REMARK    9  A    between atoms: O_14  and  C_15
REMARK   10  A    between atoms: C_16  and  C_28
REMARK   11  A    between atoms: C_20  and  O_27
REMARK   12  A    between atoms: C_22  and  O_26
REMARK   13  A    between atoms: C_30  and  O_35
REMARK   14  A    between atoms: C_31  and  O_34
REMARK   15  A    between atoms: O_37  and  C_38
REMARK   16  A    between atoms: C_38  and  C_40
REMARK                            x       y       z     vdW  Elec       q    Type
REMARK                         _______ _______ _______ _____ _____    ______ ____
ROOT
ATOM      1  C   UNL     1       8.269  -0.484  25.398  0.00  0.00    +0.214 A 
ATOM      2  C   UNL     1       9.140   0.579  24.794  0.00  0.00    +0.238 A 
ATOM      3  O   UNL     1      10.360   0.561  24.904  0.00  0.00    -0.283 OA
ATOM      4  C   UNL     1       8.498   1.671  24.062  0.00  0.00    +0.109 A 
ATOM      5  C   UNL     1       7.117   1.630  23.915  0.00  0.00    +0.147 A 
ATOM      6  C   UNL     1       6.468   2.618  23.166  0.00  0.00    +0.092 A 
ATOM      7  C   UNL     1       7.216   3.647  22.594  0.00  0.00    +0.124 A 
ATOM      8  C   UNL     1       8.591   3.714  22.761  0.00  0.00    +0.091 A 
ATOM      9  O   UNL     1       6.336   0.659  24.483  0.00  0.00    -0.451 OA
ATOM     10  C   UNL     1       9.235   2.727  23.497  0.00  0.00    +0.135 A 
ATOM     11  C   UNL     1       6.929  -0.359  25.234  0.00  0.00    +0.181 A 
ENDROOT
BRANCH  11  12
ATOM     12  C   UNL     1       5.905  -1.296  25.814  0.00  0.00    +0.025 A 
ATOM     13  C   UNL     1       5.187  -2.176  24.971  0.00  0.00    +0.015 A 
ATOM     14  C   UNL     1       4.194  -3.033  25.470  0.00  0.00    +0.050 A 
ATOM     15  C   UNL     1       3.912  -3.028  26.824  0.00  0.00    +0.158 A 
ATOM     16  C   UNL     1       4.596  -2.170  27.677  0.00  0.00    +0.159 A 
ATOM     17  C   UNL     1       5.566  -1.296  27.182  0.00  0.00    +0.060 A 
BRANCH  15  18
ATOM     18  O   UNL     1       2.958  -3.874  27.317  0.00  0.00    -0.503 OA
ATOM     19  H   UNL     1       2.500  -3.351  28.005  0.00  0.00    +0.292 HD
ENDBRANCH  15  18
BRANCH  16  20
ATOM     20  O   UNL     1       4.279  -2.220  29.009  0.00  0.00    -0.503 OA
ATOM     21  H   UNL     1       3.571  -1.572  29.168  0.00  0.00    +0.292 HD
ENDBRANCH  16  20
ENDBRANCH  11  12
BRANCH   7  22
ATOM     22  O   UNL     1       6.638   4.635  21.851  0.00  0.00    -0.507 OA
ATOM     23  H   UNL     1       7.332   5.213  21.495  0.00  0.00    +0.292 HD
ENDBRANCH   7  22
BRANCH  10  24
ATOM     24  O   UNL     1      10.587   2.820  23.670  0.00  0.00    -0.506 OA
ATOM     25  H   UNL     1      11.028   2.998  22.824  0.00  0.00    +0.292 HD
ENDBRANCH  10  24
BRANCH   1  26
ATOM     26  O   UNL     1       8.823  -1.570  26.075  0.00  0.00    -0.453 OA
BRANCH  26  29
ATOM     27  C   UNL     1       8.349  -5.135  26.838  0.00  0.00    +0.192 C 
ATOM     28  O   UNL     1       8.770  -3.756  26.920  0.00  0.00    -0.330 OA
ATOM     29  C   UNL     1       8.265  -2.885  25.880  0.00  0.00    +0.341 C 
ATOM     30  C   UNL     1       8.592  -3.421  24.441  0.00  0.00    +0.226 C 
ATOM     31  C   UNL     1       8.118  -4.880  24.371  0.00  0.00    +0.242 C 
ATOM     32  C   UNL     1       8.807  -5.695  25.486  0.00  0.00    +0.190 C 
BRANCH  30  33
ATOM     33  O   UNL     1       9.995  -3.283  24.135  0.00  0.00    -0.382 OA
ATOM     34  H   UNL     1      10.416  -2.901  24.934  0.00  0.00    +0.210 HD
ENDBRANCH  30  33
BRANCH  32  35
ATOM     35  O   UNL     1      10.242  -5.561  25.367  0.00  0.00    -0.385 OA
ATOM     36  H   UNL     1      10.508  -5.983  24.525  0.00  0.00    +0.210 HD
ENDBRANCH  32  35
BRANCH  27  37
ATOM     37  C   UNL     1       6.844  -5.433  27.050  0.00  0.00    +0.266 C 
BRANCH  37  38
ATOM     38  O   UNL     1       6.364  -5.186  28.375  0.00  0.00    -0.462 OA
BRANCH  38  40
ATOM     39  C   UNL     1       4.625  -5.725  29.845  0.00  0.00    +0.136 C 
ATOM     40  C   UNL     1       5.720  -6.231  28.958  0.00  0.00    +0.304 C 
ATOM     41  O   UNL     1       5.936  -7.411  28.724  0.00  0.00    -0.251 OA
ENDBRANCH  38  40
ENDBRANCH  37  38
ENDBRANCH  27  37
BRANCH  31  42
ATOM     42  O   UNL     1       8.319  -5.493  23.085  0.00  0.00    -0.456 OA
BRANCH  42  43
ATOM     43  C   UNL     1       7.147  -5.648  22.393  0.00  0.00    +0.304 C 
ATOM     44  C   UNL     1       5.963  -5.660  23.299  0.00  0.00    +0.136 C 
ATOM     45  O   UNL     1       7.069  -5.802  21.172  0.00  0.00    -0.251 OA
ENDBRANCH  42  43
ENDBRANCH  31  42
ENDBRANCH  26  29
ENDBRANCH   1  26
TORSDOF 14
ENDMDL
MODEL 2
REMARK VINA RESULT:      -7.6      0.684      1.237
REMARK  Name = 
REMARK  16 active torsions:
REMARK  status: ('A' for Active; 'I' for Inactive)
REMARK    1  A    between atoms: C_1  and  C_2
REMARK    2  A    between atoms: C_2  and  O_4
REMARK    3  A    between atoms: O_4  and  C_5
REMARK    4  A    between atoms: C_5  and  C_6
REMARK    5  A    between atoms: C_7  and  O_41
REMARK    6  A    between atoms: C_9  and  O_37
REMARK    7  A    between atoms: C_10  and  O_36
REMARK    8  A    between atoms: C_11  and  O_14
REMARK    9  A    between atoms: O_14  and  C_15
REMARK   10  A    between atoms: C_16  and  C_28
REMARK   11  A    between atoms: C_20  and  O_27
REMARK   12  A    between atoms: C_22  and  O_26
REMARK   13  A    between atoms: C_30  and  O_35
REMARK   14  A    between atoms: C_31  and  O_34
REMARK   15  A    between atoms: O_37  and  C_38
REMARK   16  A    between atoms: C_38  and  C_40
REMARK                            x       y       z     vdW  Elec       q    Type
REMARK                         _______ _______ _______ _____ _____    ______ ____
ROOT
ATOM      1  C   UNL     1       8.262  -0.480  25.443  0.00  0.00    +0.214 A 
ATOM      2  C   UNL     1       9.169   0.543  24.825  0.00  0.00    +0.238 A 
ATOM      3  O   UNL     1      10.388   0.482  24.931  0.00  0.00    -0.283 OA
ATOM      4  C   UNL     1       8.565   1.650  24.082  0.00  0.00    +0.109 A 
ATOM      5  C   UNL     1       7.183   1.659  23.941  0.00  0.00    +0.147 A 
ATOM      6  C   UNL     1       6.568   2.661  23.182  0.00  0.00    +0.092 A 
ATOM      7  C   UNL     1       7.351   3.656  22.596  0.00  0.00    +0.124 A 
ATOM      8  C   UNL     1       8.729   3.674  22.758  0.00  0.00    +0.091 A 
ATOM      9  O   UNL     1       6.369   0.723  24.522  0.00  0.00    -0.451 OA
ATOM     10  C   UNL     1       9.338   2.672  23.504  0.00  0.00    +0.135 A 
ATOM     11  C   UNL     1       6.927  -0.308  25.283  0.00  0.00    +0.181 A 
ENDROOT
BRANCH  11  12
ATOM     12  C   UNL     1       5.871  -1.199  25.876  0.00  0.00    +0.025 A 
ATOM     13  C   UNL     1       5.630  -1.187  27.269  0.00  0.00    +0.015 A 
ATOM     14  C   UNL     1       4.683  -2.036  27.864  0.00  0.00    +0.050 A 
ATOM     15  C   UNL     1       3.956  -2.903  27.069  0.00  0.00    +0.158 A 
ATOM     16  C   UNL     1       4.174  -2.943  25.697  0.00  0.00    +0.159 A 
ATOM     17  C   UNL     1       5.134  -2.119  25.104  0.00  0.00    +0.060 A 
BRANCH  15  18
ATOM     18  O   UNL     1       3.021  -3.718  27.642  0.00  0.00    -0.503 OA
ATOM     19  H   UNL     1       2.522  -3.132  28.246  0.00  0.00    +0.292 HD
ENDBRANCH  15  18
BRANCH  16  20
ATOM     20  O   UNL     1       3.414  -3.815  24.962  0.00  0.00    -0.503 OA
ATOM     21  H   UNL     1       4.018  -4.330  24.399  0.00  0.00    +0.292 HD
ENDBRANCH  16  20
ENDBRANCH  11  12
BRANCH   7  22
ATOM     22  O   UNL     1       6.807   4.655  21.844  0.00  0.00    -0.507 OA
ATOM     23  H   UNL     1       7.501   5.295  21.615  0.00  0.00    +0.292 HD
ENDBRANCH   7  22
BRANCH  10  24
ATOM     24  O   UNL     1      10.694   2.717  23.671  0.00  0.00    -0.506 OA
ATOM     25  H   UNL     1      10.944   3.465  24.235  0.00  0.00    +0.292 HD
ENDBRANCH  10  24
BRANCH   1  26
ATOM     26  O   UNL     1       8.778  -1.578  26.131  0.00  0.00    -0.453 OA
BRANCH  26  29
ATOM     27  C   UNL     1       8.289  -5.160  26.796  0.00  0.00    +0.192 C 
ATOM     28  O   UNL     1       8.712  -3.785  26.918  0.00  0.00    -0.330 OA
ATOM     29  C   UNL     1       8.220  -2.887  25.895  0.00  0.00    +0.341 C 
ATOM     30  C   UNL     1       8.565  -3.386  24.447  0.00  0.00    +0.226 C 
ATOM     31  C   UNL     1       8.090  -4.842  24.333  0.00  0.00    +0.242 C 
ATOM     32  C   UNL     1       8.764  -5.686  25.436  0.00  0.00    +0.190 C 
BRANCH  30  33
ATOM     33  O   UNL     1       9.972  -3.242  24.162  0.00  0.00    -0.382 OA
ATOM     34  H   UNL     1      10.315  -2.573  24.793  0.00  0.00    +0.210 HD
ENDBRANCH  30  33
BRANCH  32  35
ATOM     35  O   UNL     1      10.201  -5.552  25.338  0.00  0.00    -0.385 OA
ATOM     36  H   UNL     1      10.497  -5.009  26.097  0.00  0.00    +0.210 HD
ENDBRANCH  32  35
BRANCH  27  37
ATOM     37  C   UNL     1       6.781  -5.461  26.981  0.00  0.00    +0.266 C 
BRANCH  37  38
ATOM     38  O   UNL     1       6.482  -6.427  27.993  0.00  0.00    -0.462 OA
BRANCH  38  40
ATOM     39  C   UNL     1       4.585  -6.778  26.669  0.00  0.00    +0.136 C 
ATOM     40  C   UNL     1       5.185  -6.829  28.039  0.00  0.00    +0.304 C 
ATOM     41  O   UNL     1       4.616  -7.259  29.033  0.00  0.00    -0.251 OA
ENDBRANCH  38  40
ENDBRANCH  37  38
ENDBRANCH  27  37
BRANCH  31  42
ATOM     42  O   UNL     1       8.306  -5.422  23.034  0.00  0.00    -0.456 OA
BRANCH  42  43
ATOM     43  C   UNL     1       7.135  -5.641  22.361  0.00  0.00    +0.304 C 
ATOM     44  C   UNL     1       5.956  -5.633  23.274  0.00  0.00    +0.136 C 
ATOM     45  O   UNL     1       7.053  -5.862  21.150  0.00  0.00    -0.251 OA
ENDBRANCH  42  43
ENDBRANCH  31  42
ENDBRANCH  26  29
ENDBRANCH   1  26
TORSDOF 14
ENDMDL
MODEL 3
REMARK VINA RESULT:      -7.5      2.286      5.039
REMARK  Name = 
REMARK  16 active torsions:
REMARK  status: ('A' for Active; 'I' for Inactive)
REMARK    1  A    between atoms: C_1  and  C_2
REMARK    2  A    between atoms: C_2  and  O_4
REMARK    3  A    between atoms: O_4  and  C_5
REMARK    4  A    between atoms: C_5  and  C_6
REMARK    5  A    between atoms: C_7  and  O_41
REMARK    6  A    between atoms: C_9  and  O_37
REMARK    7  A    between atoms: C_10  and  O_36
REMARK    8  A    between atoms: C_11  and  O_14
REMARK    9  A    between atoms: O_14  and  C_15
REMARK   10  A    between atoms: C_16  and  C_28
REMARK   11  A    between atoms: C_20  and  O_27
REMARK   12  A    between atoms: C_22  and  O_26
REMARK   13  A    between atoms: C_30  and  O_35
REMARK   14  A    between atoms: C_31  and  O_34
REMARK   15  A    between atoms: O_37  and  C_38
REMARK   16  A    between atoms: C_38  and  C_40
REMARK                            x       y       z     vdW  Elec       q    Type
REMARK                         _______ _______ _______ _____ _____    ______ ____
ROOT
ATOM      1  C   UNL     1       6.464  -0.043  26.113  0.00  0.00    +0.214 A 
ATOM      2  C   UNL     1       5.248  -0.285  26.959  0.00  0.00    +0.238 A 
ATOM      3  O   UNL     1       5.164  -1.242  27.719  0.00  0.00    -0.283 OA
ATOM      4  C   UNL     1       4.130   0.654  26.856  0.00  0.00    +0.109 A 
ATOM      5  C   UNL     1       4.282   1.754  26.022  0.00  0.00    +0.147 A 
ATOM      6  C   UNL     1       3.266   2.713  25.944  0.00  0.00    +0.092 A 
ATOM      7  C   UNL     1       2.100   2.538  26.689  0.00  0.00    +0.124 A 
ATOM      8  C   UNL     1       1.925   1.427  27.501  0.00  0.00    +0.091 A 
ATOM      9  O   UNL     1       5.394   1.954  25.247  0.00  0.00    -0.451 OA
ATOM     10  C   UNL     1       2.940   0.481  27.584  0.00  0.00    +0.135 A 
ATOM     11  C   UNL     1       6.446   1.036  25.291  0.00  0.00    +0.181 A 
ENDROOT
BRANCH  11  12
ATOM     12  C   UNL     1       7.548   1.402  24.336  0.00  0.00    +0.025 A 
ATOM     13  C   UNL     1       8.735   2.003  24.816  0.00  0.00    +0.015 A 
ATOM     14  C   UNL     1       9.767   2.398  23.949  0.00  0.00    +0.050 A 
ATOM     15  C   UNL     1       9.629   2.187  22.590  0.00  0.00    +0.158 A 
ATOM     16  C   UNL     1       8.471   1.604  22.087  0.00  0.00    +0.159 A 
ATOM     17  C   UNL     1       7.431   1.234  22.942  0.00  0.00    +0.060 A 
BRANCH  15  18
ATOM     18  O   UNL     1      10.638   2.553  21.745  0.00  0.00    -0.503 OA
ATOM     19  H   UNL     1      10.658   3.530  21.796  0.00  0.00    +0.292 HD
ENDBRANCH  15  18
BRANCH  16  20
ATOM     20  O   UNL     1       8.399   1.412  20.732  0.00  0.00    -0.503 OA
ATOM     21  H   UNL     1       8.265   0.461  20.577  0.00  0.00    +0.292 HD
ENDBRANCH  16  20
ENDBRANCH  11  12
BRANCH   7  22
ATOM     22  O   UNL     1       1.077   3.441  26.655  0.00  0.00    -0.507 OA
ATOM     23  H   UNL     1       0.252   2.998  26.909  0.00  0.00    +0.292 HD
ENDBRANCH   7  22
BRANCH  10  24
ATOM     24  O   UNL     1       2.743  -0.618  28.372  0.00  0.00    -0.506 OA
ATOM     25  H   UNL     1       3.593  -0.995  28.651  0.00  0.00    +0.292 HD
ENDBRANCH  10  24
BRANCH   1  26
ATOM     26  O   UNL     1       7.576  -0.880  26.193  0.00  0.00    -0.453 OA
BRANCH  26  29
ATOM     27  C   UNL     1       8.476  -4.443  26.252  0.00  0.00    +0.192 C 
ATOM     28  O   UNL     1       8.434  -3.031  26.552  0.00  0.00    -0.330 OA
ATOM     29  C   UNL     1       7.446  -2.266  25.820  0.00  0.00    +0.341 C 
ATOM     30  C   UNL     1       7.587  -2.441  24.266  0.00  0.00    +0.226 C 
ATOM     31  C   UNL     1       7.609  -3.948  23.970  0.00  0.00    +0.242 C 
ATOM     32  C   UNL     1       8.765  -4.605  24.755  0.00  0.00    +0.190 C 
BRANCH  30  33
ATOM     33  O   UNL     1       8.757  -1.764  23.765  0.00  0.00    -0.382 OA
ATOM     34  H   UNL     1       8.986  -2.198  22.916  0.00  0.00    +0.210 HD
ENDBRANCH  30  33
BRANCH  32  35
ATOM     35  O   UNL     1      10.010  -3.946  24.427  0.00  0.00    -0.385 OA
ATOM     36  H   UNL     1       9.793  -3.038  24.133  0.00  0.00    +0.210 HD
ENDBRANCH  32  35
BRANCH  27  37
ATOM     37  C   UNL     1       7.242  -5.292  26.647  0.00  0.00    +0.266 C 
BRANCH  37  38
ATOM     38  O   UNL     1       7.356  -5.970  27.902  0.00  0.00    -0.462 OA
BRANCH  38  40
ATOM     39  C   UNL     1       5.428  -4.972  28.772  0.00  0.00    +0.136 C 
ATOM     40  C   UNL     1       6.177  -6.243  28.518  0.00  0.00    +0.304 C 
ATOM     41  O   UNL     1       5.745  -7.363  28.749  0.00  0.00    -0.251 OA
ENDBRANCH  38  40
ENDBRANCH  37  38
ENDBRANCH  27  37
BRANCH  31  42
ATOM     42  O   UNL     1       7.694  -4.261  22.568  0.00  0.00    -0.456 OA
BRANCH  42  43
ATOM     43  C   UNL     1       6.496  -4.678  22.054  0.00  0.00    +0.304 C 
ATOM     44  C   UNL     1       6.418  -6.164  21.957  0.00  0.00    +0.136 C 
ATOM     45  O   UNL     1       5.596  -3.926  21.674  0.00  0.00    -0.251 OA
ENDBRANCH  42  43
ENDBRANCH  31  42
ENDBRANCH  26  29
ENDBRANCH   1  26
TORSDOF 14
ENDMDL
MODEL 4
REMARK VINA RESULT:      -7.3      2.409      3.271
REMARK  Name = 
REMARK  16 active torsions:
REMARK  status: ('A' for Active; 'I' for Inactive)
REMARK    1  A    between atoms: C_1  and  C_2
REMARK    2  A    between atoms: C_2  and  O_4
REMARK    3  A    between atoms: O_4  and  C_5
REMARK    4  A    between atoms: C_5  and  C_6
REMARK    5  A    between atoms: C_7  and  O_41
REMARK    6  A    between atoms: C_9  and  O_37
REMARK    7  A    between atoms: C_10  and  O_36
REMARK    8  A    between atoms: C_11  and  O_14
REMARK    9  A    between atoms: O_14  and  C_15
REMARK   10  A    between atoms: C_16  and  C_28
REMARK   11  A    between atoms: C_20  and  O_27
REMARK   12  A    between atoms: C_22  and  O_26
REMARK   13  A    between atoms: C_30  and  O_35
REMARK   14  A    between atoms: C_31  and  O_34
REMARK   15  A    between atoms: O_37  and  C_38
REMARK   16  A    between atoms: C_38  and  C_40
REMARK                            x       y       z     vdW  Elec       q    Type
REMARK                         _______ _______ _______ _____ _____    ______ ____
ROOT
ATOM      1  C   UNL     1       6.206  -0.688  24.290  0.00  0.00    +0.214 A 
ATOM      2  C   UNL     1       7.199  -0.741  23.165  0.00  0.00    +0.238 A 
ATOM      3  O   UNL     1       7.186  -1.634  22.326  0.00  0.00    -0.283 OA
ATOM      4  C   UNL     1       8.217   0.308  23.086  0.00  0.00    +0.109 A 
ATOM      5  C   UNL     1       8.170   1.330  24.026  0.00  0.00    +0.147 A 
ATOM      6  C   UNL     1       9.082   2.388  23.948  0.00  0.00    +0.092 A 
ATOM      7  C   UNL     1      10.045   2.391  22.939  0.00  0.00    +0.124 A 
ATOM      8  C   UNL     1      10.121   1.359  22.015  0.00  0.00    +0.091 A 
ATOM      9  O   UNL     1       7.264   1.357  25.053  0.00  0.00    -0.451 OA
ATOM     10  C   UNL     1       9.208   0.314  22.089  0.00  0.00    +0.135 A 
ATOM     11  C   UNL     1       6.322   0.332  25.176  0.00  0.00    +0.181 A 
ENDROOT
BRANCH  11  12
ATOM     12  C   UNL     1       5.453   0.514  26.390  0.00  0.00    +0.025 A 
ATOM     13  C   UNL     1       5.735  -0.197  27.579  0.00  0.00    +0.015 A 
ATOM     14  C   UNL     1       4.921  -0.086  28.718  0.00  0.00    +0.050 A 
ATOM     15  C   UNL     1       3.819   0.748  28.685  0.00  0.00    +0.158 A 
ATOM     16  C   UNL     1       3.513   1.456  27.528  0.00  0.00    +0.159 A 
ATOM     17  C   UNL     1       4.303   1.328  26.385  0.00  0.00    +0.060 A 
BRANCH  15  18
ATOM     18  O   UNL     1       3.035   0.873  29.797  0.00  0.00    -0.503 OA
ATOM     19  H   UNL     1       3.036  -0.019  30.199  0.00  0.00    +0.292 HD
ENDBRANCH  15  18
BRANCH  16  20
ATOM     20  O   UNL     1       2.414   2.274  27.562  0.00  0.00    -0.503 OA
ATOM     21  H   UNL     1       1.832   1.957  28.275  0.00  0.00    +0.292 HD
ENDBRANCH  16  20
ENDBRANCH  11  12
BRANCH   7  22
ATOM     22  O   UNL     1      10.957   3.397  22.812  0.00  0.00    -0.507 OA
ATOM     23  H   UNL     1      11.809   3.022  22.536  0.00  0.00    +0.292 HD
ENDBRANCH   7  22
BRANCH  10  24
ATOM     24  O   UNL     1       9.310  -0.706  21.184  0.00  0.00    -0.506 OA
ATOM     25  H   UNL     1       8.457  -0.861  20.747  0.00  0.00    +0.292 HD
ENDBRANCH  10  24
BRANCH   1  26
ATOM     26  O   UNL     1       5.190  -1.636  24.399  0.00  0.00    -0.453 OA
BRANCH  26  29
ATOM     27  C   UNL     1       7.336  -4.193  25.938  0.00  0.00    +0.192 C 
ATOM     28  O   UNL     1       6.881  -2.963  25.333  0.00  0.00    -0.330 OA
ATOM     29  C   UNL     1       5.464  -2.895  25.046  0.00  0.00    +0.341 C 
ATOM     30  C   UNL     1       4.976  -4.096  24.160  0.00  0.00    +0.226 C 
ATOM     31  C   UNL     1       5.453  -5.392  24.831  0.00  0.00    +0.242 C 
ATOM     32  C   UNL     1       6.988  -5.348  24.991  0.00  0.00    +0.190 C 
BRANCH  30  33
ATOM     33  O   UNL     1       5.448  -3.972  22.802  0.00  0.00    -0.382 OA
ATOM     34  H   UNL     1       6.210  -3.356  22.829  0.00  0.00    +0.210 HD
ENDBRANCH  30  33
BRANCH  32  35
ATOM     35  O   UNL     1       7.603  -5.120  23.702  0.00  0.00    -0.385 OA
ATOM     36  H   UNL     1       8.444  -4.645  23.858  0.00  0.00    +0.210 HD
ENDBRANCH  32  35
BRANCH  27  37
ATOM     37  C   UNL     1       6.833  -4.512  27.368  0.00  0.00    +0.266 C 
BRANCH  37  38
ATOM     38  O   UNL     1       7.221  -5.795  27.868  0.00  0.00    -0.462 OA
BRANCH  38  40
ATOM     39  C   UNL     1       5.435  -5.272  29.286  0.00  0.00    +0.136 C 
ATOM     40  C   UNL     1       6.400  -6.316  28.817  0.00  0.00    +0.304 C 
ATOM     41  O   UNL     1       6.385  -7.486  29.169  0.00  0.00    -0.251 OA
ENDBRANCH  38  40
ENDBRANCH  37  38
ENDBRANCH  27  37
BRANCH  31  42
ATOM     42  O   UNL     1       5.040  -6.586  24.144  0.00  0.00    -0.456 OA
BRANCH  42  43
ATOM     43  C   UNL     1       3.994  -7.210  24.769  0.00  0.00    +0.304 C 
ATOM     44  C   UNL     1       3.962  -6.916  26.231  0.00  0.00    +0.136 C 
ATOM     45  O   UNL     1       3.191  -7.962  24.211  0.00  0.00    -0.251 OA
ENDBRANCH  42  43
ENDBRANCH  31  42
ENDBRANCH  26  29
ENDBRANCH   1  26
TORSDOF 14
ENDMDL
MODEL 5
REMARK VINA RESULT:      -7.1      2.522      7.843
REMARK  Name = 
REMARK  16 active torsions:
REMARK  status: ('A' for Active; 'I' for Inactive)
REMARK    1  A    between atoms: C_1  and  C_2
REMARK    2  A    between atoms: C_2  and  O_4
REMARK    3  A    between atoms: O_4  and  C_5
REMARK    4  A    between atoms: C_5  and  C_6
REMARK    5  A    between atoms: C_7  and  O_41
REMARK    6  A    between atoms: C_9  and  O_37
REMARK    7  A    between atoms: C_10  and  O_36
REMARK    8  A    between atoms: C_11  and  O_14
REMARK    9  A    between atoms: O_14  and  C_15
REMARK   10  A    between atoms: C_16  and  C_28
REMARK   11  A    between atoms: C_20  and  O_27
REMARK   12  A    between atoms: C_22  and  O_26
REMARK   13  A    between atoms: C_30  and  O_35
REMARK   14  A    between atoms: C_31  and  O_34
REMARK   15  A    between atoms: O_37  and  C_38
REMARK   16  A    between atoms: C_38  and  C_40
REMARK                            x       y       z     vdW  Elec       q    Type
REMARK                         _______ _______ _______ _____ _____    ______ ____
ROOT
ATOM      1  C   UNL     1       7.758  -2.027  24.259  0.00  0.00    +0.214 A 
ATOM      2  C   UNL     1       7.752  -3.163  23.277  0.00  0.00    +0.238 A 
ATOM      3  O   UNL     1       8.539  -3.217  22.340  0.00  0.00    -0.283 OA
ATOM      4  C   UNL     1       6.763  -4.228  23.452  0.00  0.00    +0.109 A 
ATOM      5  C   UNL     1       5.922  -4.158  24.555  0.00  0.00    +0.147 A 
ATOM      6  C   UNL     1       5.007  -5.188  24.797  0.00  0.00    +0.092 A 
ATOM      7  C   UNL     1       4.935  -6.264  23.913  0.00  0.00    +0.124 A 
ATOM      8  C   UNL     1       5.749  -6.328  22.792  0.00  0.00    +0.091 A 
ATOM      9  O   UNL     1       5.933  -3.107  25.434  0.00  0.00    -0.451 OA
ATOM     10  C   UNL     1       6.664  -5.308  22.558  0.00  0.00    +0.135 A 
ATOM     11  C   UNL     1       6.831  -2.054  25.249  0.00  0.00    +0.181 A 
ENDROOT
BRANCH  11  12
ATOM     12  C   UNL     1       6.654  -0.979  26.285  0.00  0.00    +0.025 A 
ATOM     13  C   UNL     1       5.478  -0.194  26.302  0.00  0.00    +0.015 A 
ATOM     14  C   UNL     1       5.296   0.847  27.226  0.00  0.00    +0.050 A 
ATOM     15  C   UNL     1       6.287   1.110  28.154  0.00  0.00    +0.158 A 
ATOM     16  C   UNL     1       7.457   0.360  28.159  0.00  0.00    +0.159 A 
ATOM     17  C   UNL     1       7.654  -0.659  27.225  0.00  0.00    +0.060 A 
BRANCH  15  18
ATOM     18  O   UNL     1       6.106   2.111  29.067  0.00  0.00    -0.503 OA
ATOM     19  H   UNL     1       5.170   2.028  29.338  0.00  0.00    +0.292 HD
ENDBRANCH  15  18
BRANCH  16  20
ATOM     20  O   UNL     1       8.396   0.662  29.110  0.00  0.00    -0.503 OA
ATOM     21  H   UNL     1       8.927  -0.139  29.265  0.00  0.00    +0.292 HD
ENDBRANCH  16  20
ENDBRANCH  11  12
BRANCH   7  22
ATOM     22  O   UNL     1       4.065  -7.298  24.101  0.00  0.00    -0.507 OA
ATOM     23  H   UNL     1       3.607  -7.179  24.948  0.00  0.00    +0.292 HD
ENDBRANCH   7  22
BRANCH  10  24
ATOM     24  O   UNL     1       7.443  -5.376  21.437  0.00  0.00    -0.506 OA
ATOM     25  H   UNL     1       7.147  -4.731  20.776  0.00  0.00    +0.292 HD
ENDBRANCH  10  24
BRANCH   1  26
ATOM     26  O   UNL     1       8.698  -1.002  24.168  0.00  0.00    -0.453 OA
BRANCH  26  29
ATOM     27  C   UNL     1       7.435   1.667  21.979  0.00  0.00    +0.192 C 
ATOM     28  O   UNL     1       7.855   0.376  22.470  0.00  0.00    -0.330 OA
ATOM     29  C   UNL     1       8.259   0.336  23.860  0.00  0.00    +0.341 C 
ATOM     30  C   UNL     1       9.384   1.382  24.184  0.00  0.00    +0.226 C 
ATOM     31  C   UNL     1       8.908   2.749  23.672  0.00  0.00    +0.242 C 
ATOM     32  C   UNL     1       8.599   2.648  22.162  0.00  0.00    +0.190 C 
BRANCH  30  33
ATOM     33  O   UNL     1      10.648   0.988  23.611  0.00  0.00    -0.382 OA
ATOM     34  H   UNL     1      10.570   1.132  22.644  0.00  0.00    +0.210 HD
ENDBRANCH  30  33
BRANCH  32  35
ATOM     35  O   UNL     1       9.764   2.157  21.461  0.00  0.00    -0.385 OA
ATOM     36  H   UNL     1      10.553   2.507  21.921  0.00  0.00    +0.210 HD
ENDBRANCH  32  35
BRANCH  27  37
ATOM     37  C   UNL     1       6.138   2.268  22.575  0.00  0.00    +0.266 C 
BRANCH  37  38
ATOM     38  O   UNL     1       5.880   3.625  22.206  0.00  0.00    -0.462 OA
BRANCH  38  40
ATOM     39  C   UNL     1       4.865   3.634  24.313  0.00  0.00    +0.136 C 
ATOM     40  C   UNL     1       5.507   4.439  23.227  0.00  0.00    +0.304 C 
ATOM     41  O   UNL     1       5.743   5.637  23.296  0.00  0.00    -0.251 OA
ENDBRANCH  38  40
ENDBRANCH  37  38
ENDBRANCH  27  37
BRANCH  31  42
ATOM     42  O   UNL     1       9.830   3.820  23.939  0.00  0.00    -0.456 OA
BRANCH  42  43
ATOM     43  C   UNL     1       9.195   5.019  24.123  0.00  0.00    +0.304 C 
ATOM     44  C   UNL     1       8.537   5.102  25.459  0.00  0.00    +0.136 C 
ATOM     45  O   UNL     1       9.132   5.916  23.279  0.00  0.00    -0.251 OA
ENDBRANCH  42  43
ENDBRANCH  31  42
ENDBRANCH  26  29
ENDBRANCH   1  26
TORSDOF 14
ENDMDL
MODEL 6
REMARK VINA RESULT:      -7.0      2.122      6.990
REMARK  Name = 
REMARK  16 active torsions:
REMARK  status: ('A' for Active; 'I' for Inactive)
REMARK    1  A    between atoms: C_1  and  C_2
REMARK    2  A    between atoms: C_2  and  O_4
REMARK    3  A    between atoms: O_4  and  C_5
REMARK    4  A    between atoms: C_5  and  C_6
REMARK    5  A    between atoms: C_7  and  O_41
REMARK    6  A    between atoms: C_9  and  O_37
REMARK    7  A    between atoms: C_10  and  O_36
REMARK    8  A    between atoms: C_11  and  O_14
REMARK    9  A    between atoms: O_14  and  C_15
REMARK   10  A    between atoms: C_16  and  C_28
REMARK   11  A    between atoms: C_20  and  O_27
REMARK   12  A    between atoms: C_22  and  O_26
REMARK   13  A    between atoms: C_30  and  O_35
REMARK   14  A    between atoms: C_31  and  O_34
REMARK   15  A    between atoms: O_37  and  C_38
REMARK   16  A    between atoms: C_38  and  C_40
REMARK                            x       y       z     vdW  Elec       q    Type
REMARK                         _______ _______ _______ _____ _____    ______ ____
ROOT
ATOM      1  C   UNL     1       7.293  -1.667  26.588  0.00  0.00    +0.214 A 
ATOM      2  C   UNL     1       7.623  -3.120  26.773  0.00  0.00    +0.238 A 
ATOM      3  O   UNL     1       8.746  -3.564  26.567  0.00  0.00    -0.283 OA
ATOM      4  C   UNL     1       6.556  -4.025  27.205  0.00  0.00    +0.109 A 
ATOM      5  C   UNL     1       5.310  -3.476  27.478  0.00  0.00    +0.147 A 
ATOM      6  C   UNL     1       4.280  -4.293  27.957  0.00  0.00    +0.092 A 
ATOM      7  C   UNL     1       4.513  -5.658  28.133  0.00  0.00    +0.124 A 
ATOM      8  C   UNL     1       5.744  -6.221  27.834  0.00  0.00    +0.091 A 
ATOM      9  O   UNL     1       5.023  -2.149  27.292  0.00  0.00    -0.451 OA
ATOM     10  C   UNL     1       6.769  -5.405  27.367  0.00  0.00    +0.135 A 
ATOM     11  C   UNL     1       6.015  -1.283  26.825  0.00  0.00    +0.181 A 
ENDROOT
BRANCH  11  12
ATOM     12  C   UNL     1       5.493   0.115  26.639  0.00  0.00    +0.025 A 
ATOM     13  C   UNL     1       5.387   0.989  27.745  0.00  0.00    +0.015 A 
ATOM     14  C   UNL     1       4.865   2.286  27.618  0.00  0.00    +0.050 A 
ATOM     15  C   UNL     1       4.450   2.730  26.376  0.00  0.00    +0.158 A 
ATOM     16  C   UNL     1       4.535   1.892  25.269  0.00  0.00    +0.159 A 
ATOM     17  C   UNL     1       5.029   0.593  25.396  0.00  0.00    +0.060 A 
BRANCH  15  18
ATOM     18  O   UNL     1       3.957   3.998  26.244  0.00  0.00    -0.503 OA
ATOM     19  H   UNL     1       3.814   4.106  25.282  0.00  0.00    +0.292 HD
ENDBRANCH  15  18
BRANCH  16  20
ATOM     20  O   UNL     1       4.118   2.395  24.065  0.00  0.00    -0.503 OA
ATOM     21  H   UNL     1       4.535   1.863  23.364  0.00  0.00    +0.292 HD
ENDBRANCH  16  20
ENDBRANCH  11  12
BRANCH   7  22
ATOM     22  O   UNL     1       3.548  -6.501  28.600  0.00  0.00    -0.507 OA
ATOM     23  H   UNL     1       3.968  -7.309  28.936  0.00  0.00    +0.292 HD
ENDBRANCH   7  22
BRANCH  10  24
ATOM     24  O   UNL     1       7.969  -5.980  27.056  0.00  0.00    -0.506 OA
ATOM     25  H   UNL     1       8.279  -5.675  26.189  0.00  0.00    +0.292 HD
ENDBRANCH  10  24
BRANCH   1  26
ATOM     26  O   UNL     1       8.273  -0.748  26.214  0.00  0.00    -0.453 OA
BRANCH  26  29
ATOM     27  C   UNL     1      10.298  -0.748  23.146  0.00  0.00    +0.192 C 
ATOM     28  O   UNL     1       9.864  -0.964  24.506  0.00  0.00    -0.330 OA
ATOM     29  C   UNL     1       8.524  -0.511  24.814  0.00  0.00    +0.341 C 
ATOM     30  C   UNL     1       8.309   1.003  24.458  0.00  0.00    +0.226 C 
ATOM     31  C   UNL     1       8.758   1.205  23.003  0.00  0.00    +0.242 C 
ATOM     32  C   UNL     1      10.228   0.756  22.856  0.00  0.00    +0.190 C 
BRANCH  30  33
ATOM     33  O   UNL     1       9.013   1.864  25.377  0.00  0.00    -0.382 OA
ATOM     34  H   UNL     1       8.985   1.419  26.250  0.00  0.00    +0.210 HD
ENDBRANCH  30  33
BRANCH  32  35
ATOM     35  O   UNL     1      11.051   1.472  23.805  0.00  0.00    -0.385 OA
ATOM     36  H   UNL     1      11.557   0.808  24.315  0.00  0.00    +0.210 HD
ENDBRANCH  32  35
BRANCH  27  37
ATOM     37  C   UNL     1       9.566  -1.536  22.032  0.00  0.00    +0.266 C 
BRANCH  37  38
ATOM     38  O   UNL     1       9.244  -2.889  22.366  0.00  0.00    -0.462 OA
BRANCH  38  40
ATOM     39  C   UNL     1       7.741  -4.429  23.284  0.00  0.00    +0.136 C 
ATOM     40  C   UNL     1       7.921  -3.139  22.547  0.00  0.00    +0.304 C 
ATOM     41  O   UNL     1       7.012  -2.381  22.239  0.00  0.00    -0.251 OA
ENDBRANCH  38  40
ENDBRANCH  37  38
ENDBRANCH  27  37
BRANCH  31  42
ATOM     42  O   UNL     1       8.578   2.549  22.524  0.00  0.00    -0.456 OA
BRANCH  42  43
ATOM     43  C   UNL     1       7.258   2.866  22.347  0.00  0.00    +0.304 C 
ATOM     44  C   UNL     1       7.007   4.326  22.523  0.00  0.00    +0.136 C 
ATOM     45  O   UNL     1       6.366   2.049  22.110  0.00  0.00    -0.251 OA
ENDBRANCH  42  43
ENDBRANCH  31  42
ENDBRANCH  26  29
ENDBRANCH   1  26
TORSDOF 14
ENDMDL
MODEL 7
REMARK VINA RESULT:      -6.9      2.700      7.824
REMARK  Name = 
REMARK  16 active torsions:
REMARK  status: ('A' for Active; 'I' for Inactive)
REMARK    1  A    between atoms: C_1  and  C_2
REMARK    2  A    between atoms: C_2  and  O_4
REMARK    3  A    between atoms: O_4  and  C_5
REMARK    4  A    between atoms: C_5  and  C_6
REMARK    5  A    between atoms: C_7  and  O_41
REMARK    6  A    between atoms: C_9  and  O_37
REMARK    7  A    between atoms: C_10  and  O_36
REMARK    8  A    between atoms: C_11  and  O_14
REMARK    9  A    between atoms: O_14  and  C_15
REMARK   10  A    between atoms: C_16  and  C_28
REMARK   11  A    between atoms: C_20  and  O_27
REMARK   12  A    between atoms: C_22  and  O_26
REMARK   13  A    between atoms: C_30  and  O_35
REMARK   14  A    between atoms: C_31  and  O_34
REMARK   15  A    between atoms: O_37  and  C_38
REMARK   16  A    between atoms: C_38  and  C_40
REMARK                            x       y       z     vdW  Elec       q    Type
REMARK                         _______ _______ _______ _____ _____    ______ ____
ROOT
ATOM      1  C   UNL     1       7.109  -1.677  24.670  0.00  0.00    +0.214 A 
ATOM      2  C   UNL     1       7.344  -2.818  23.723  0.00  0.00    +0.238 A 
ATOM      3  O   UNL     1       8.425  -2.996  23.173  0.00  0.00    -0.283 OA
ATOM      4  C   UNL     1       6.236  -3.734  23.448  0.00  0.00    +0.109 A 
ATOM      5  C   UNL     1       5.042  -3.530  24.129  0.00  0.00    +0.147 A 
ATOM      6  C   UNL     1       3.978  -4.420  23.948  0.00  0.00    +0.092 A 
ATOM      7  C   UNL     1       4.123  -5.491  23.066  0.00  0.00    +0.124 A 
ATOM      8  C   UNL     1       5.299  -5.685  22.358  0.00  0.00    +0.091 A 
ATOM      9  O   UNL     1       4.841  -2.476  24.981  0.00  0.00    -0.451 OA
ATOM     10  C   UNL     1       6.358  -4.805  22.547  0.00  0.00    +0.135 A 
ATOM     11  C   UNL     1       5.871  -1.560  25.209  0.00  0.00    +0.181 A 
ENDROOT
BRANCH  11  12
ATOM     12  C   UNL     1       5.440  -0.452  26.131  0.00  0.00    +0.025 A 
ATOM     13  C   UNL     1       5.413  -0.660  27.529  0.00  0.00    +0.015 A 
ATOM     14  C   UNL     1       4.975   0.335  28.417  0.00  0.00    +0.050 A 
ATOM     15  C   UNL     1       4.569   1.559  27.917  0.00  0.00    +0.158 A 
ATOM     16  C   UNL     1       4.579   1.792  26.546  0.00  0.00    +0.159 A 
ATOM     17  C   UNL     1       4.987   0.796  25.657  0.00  0.00    +0.060 A 
BRANCH  15  18
ATOM     18  O   UNL     1       4.160   2.537  28.779  0.00  0.00    -0.503 OA
ATOM     19  H   UNL     1       3.184   2.465  28.784  0.00  0.00    +0.292 HD
ENDBRANCH  15  18
BRANCH  16  20
ATOM     20  O   UNL     1       4.175   3.028  26.114  0.00  0.00    -0.503 OA
ATOM     21  H   UNL     1       4.235   3.034  25.143  0.00  0.00    +0.292 HD
ENDBRANCH  16  20
ENDBRANCH  11  12
BRANCH   7  22
ATOM     22  O   UNL     1       3.121  -6.392  22.852  0.00  0.00    -0.507 OA
ATOM     23  H   UNL     1       3.382  -6.996  22.138  0.00  0.00    +0.292 HD
ENDBRANCH   7  22
BRANCH  10  24
ATOM     24  O   UNL     1       7.503  -4.999  21.826  0.00  0.00    -0.506 OA
ATOM     25  H   UNL     1       7.946  -4.152  21.655  0.00  0.00    +0.292 HD
ENDBRANCH  10  24
BRANCH   1  26
ATOM     26  O   UNL     1       8.135  -0.792  25.000  0.00  0.00    -0.453 OA
BRANCH  26  29
ATOM     27  C   UNL     1       7.611   1.577  22.239  0.00  0.00    +0.192 C 
ATOM     28  O   UNL     1       7.587   0.380  23.046  0.00  0.00    -0.330 OA
ATOM     29  C   UNL     1       8.194   0.496  24.355  0.00  0.00    +0.341 C 
ATOM     30  C   UNL     1       9.673   1.017  24.283  0.00  0.00    +0.226 C 
ATOM     31  C   UNL     1       9.672   2.300  23.438  0.00  0.00    +0.242 C 
ATOM     32  C   UNL     1       9.075   1.993  22.048  0.00  0.00    +0.190 C 
BRANCH  30  33
ATOM     33  O   UNL     1      10.560   0.009  23.755  0.00  0.00    -0.382 OA
ATOM     34  H   UNL     1      11.355   0.483  23.431  0.00  0.00    +0.210 HD
ENDBRANCH  30  33
BRANCH  32  35
ATOM     35  O   UNL     1       9.811   0.912  21.432  0.00  0.00    -0.385 OA
ATOM     36  H   UNL     1      10.227   1.266  20.620  0.00  0.00    +0.210 HD
ENDBRANCH  32  35
BRANCH  27  37
ATOM     37  C   UNL     1       6.778   2.786  22.733  0.00  0.00    +0.266 C 
BRANCH  37  38
ATOM     38  O   UNL     1       6.948   3.984  21.970  0.00  0.00    -0.462 OA
BRANCH  38  40
ATOM     39  C   UNL     1       7.354   6.288  21.958  0.00  0.00    +0.136 C 
ATOM     40  C   UNL     1       6.685   5.136  22.641  0.00  0.00    +0.304 C 
ATOM     41  O   UNL     1       5.938   5.236  23.603  0.00  0.00    -0.251 OA
ENDBRANCH  38  40
ENDBRANCH  37  38
ENDBRANCH  27  37
BRANCH  31  42
ATOM     42  O   UNL     1      10.967   2.915  23.320  0.00  0.00    -0.456 OA
BRANCH  42  43
ATOM     43  C   UNL     1      10.927   4.261  23.565  0.00  0.00    +0.304 C 
ATOM     44  C   UNL     1      12.247   4.911  23.321  0.00  0.00    +0.136 C 
ATOM     45  O   UNL     1       9.938   4.870  23.979  0.00  0.00    -0.251 OA
ENDBRANCH  42  43
ENDBRANCH  31  42
ENDBRANCH  26  29
ENDBRANCH   1  26
TORSDOF 14
ENDMDL
MODEL 8
REMARK VINA RESULT:      -6.8      2.086      2.879
REMARK  Name = 
REMARK  16 active torsions:
REMARK  status: ('A' for Active; 'I' for Inactive)
REMARK    1  A    between atoms: C_1  and  C_2
REMARK    2  A    between atoms: C_2  and  O_4
REMARK    3  A    between atoms: O_4  and  C_5
REMARK    4  A    between atoms: C_5  and  C_6
REMARK    5  A    between atoms: C_7  and  O_41
REMARK    6  A    between atoms: C_9  and  O_37
REMARK    7  A    between atoms: C_10  and  O_36
REMARK    8  A    between atoms: C_11  and  O_14
REMARK    9  A    between atoms: O_14  and  C_15
REMARK   10  A    between atoms: C_16  and  C_28
REMARK   11  A    between atoms: C_20  and  O_27
REMARK   12  A    between atoms: C_22  and  O_26
REMARK   13  A    between atoms: C_30  and  O_35
REMARK   14  A    between atoms: C_31  and  O_34
REMARK   15  A    between atoms: O_37  and  C_38
REMARK   16  A    between atoms: C_38  and  C_40
REMARK                            x       y       z     vdW  Elec       q    Type
REMARK                         _______ _______ _______ _____ _____    ______ ____
ROOT
ATOM      1  C   UNL     1       6.916   0.863  24.129  0.00  0.00    +0.214 A 
ATOM      2  C   UNL     1       8.053   1.369  23.291  0.00  0.00    +0.238 A 
ATOM      3  O   UNL     1       8.439   0.777  22.290  0.00  0.00    -0.283 OA
ATOM      4  C   UNL     1       8.721   2.607  23.698  0.00  0.00    +0.109 A 
ATOM      5  C   UNL     1       8.223   3.276  24.809  0.00  0.00    +0.147 A 
ATOM      6  C   UNL     1       8.788   4.497  25.195  0.00  0.00    +0.092 A 
ATOM      7  C   UNL     1       9.862   5.015  24.471  0.00  0.00    +0.124 A 
ATOM      8  C   UNL     1      10.386   4.339  23.380  0.00  0.00    +0.091 A 
ATOM      9  O   UNL     1       7.191   2.793  25.570  0.00  0.00    -0.451 OA
ATOM     10  C   UNL     1       9.817   3.131  22.993  0.00  0.00    +0.135 A 
ATOM     11  C   UNL     1       6.581   1.584  25.227  0.00  0.00    +0.181 A 
ENDROOT
BRANCH  11  12
ATOM     12  C   UNL     1       5.508   1.201  26.209  0.00  0.00    +0.025 A 
ATOM     13  C   UNL     1       5.846   0.526  27.404  0.00  0.00    +0.015 A 
ATOM     14  C   UNL     1       4.868   0.114  28.324  0.00  0.00    +0.050 A 
ATOM     15  C   UNL     1       3.537   0.383  28.063  0.00  0.00    +0.158 A 
ATOM     16  C   UNL     1       3.173   1.040  26.893  0.00  0.00    +0.159 A 
ATOM     17  C   UNL     1       4.139   1.428  25.963  0.00  0.00    +0.060 A 
BRANCH  15  18
ATOM     18  O   UNL     1       2.583  -0.000  28.964  0.00  0.00    -0.503 OA
ATOM     19  H   UNL     1       1.873   0.665  28.865  0.00  0.00    +0.292 HD
ENDBRANCH  15  18
BRANCH  16  20
ATOM     20  O   UNL     1       1.839   1.287  26.698  0.00  0.00    -0.503 OA
ATOM     21  H   UNL     1       1.614   2.095  27.192  0.00  0.00    +0.292 HD
ENDBRANCH  16  20
ENDBRANCH  11  12
BRANCH   7  22
ATOM     22  O   UNL     1      10.449   6.202  24.799  0.00  0.00    -0.507 OA
ATOM     23  H   UNL     1      11.414   6.097  24.775  0.00  0.00    +0.292 HD
ENDBRANCH   7  22
BRANCH  10  24
ATOM     24  O   UNL     1      10.360   2.467  21.929  0.00  0.00    -0.506 OA
ATOM     25  H   UNL     1       9.703   2.359  21.223  0.00  0.00    +0.292 HD
ENDBRANCH  10  24
BRANCH   1  26
ATOM     26  O   UNL     1       6.216  -0.289  23.773  0.00  0.00    -0.453 OA
BRANCH  26  29
ATOM     27  C   UNL     1       8.331  -2.535  25.771  0.00  0.00    +0.192 C 
ATOM     28  O   UNL     1       7.770  -1.347  25.172  0.00  0.00    -0.330 OA
ATOM     29  C   UNL     1       6.610  -1.558  24.332  0.00  0.00    +0.341 C 
ATOM     30  C   UNL     1       6.880  -2.608  23.196  0.00  0.00    +0.226 C 
ATOM     31  C   UNL     1       7.456  -3.869  23.857  0.00  0.00    +0.242 C 
ATOM     32  C   UNL     1       8.731  -3.494  24.644  0.00  0.00    +0.190 C 
BRANCH  30  33
ATOM     33  O   UNL     1       7.752  -2.072  22.180  0.00  0.00    -0.382 OA
ATOM     34  H   UNL     1       7.372  -1.206  21.918  0.00  0.00    +0.210 HD
ENDBRANCH  30  33
BRANCH  32  35
ATOM     35  O   UNL     1       9.671  -2.840  23.760  0.00  0.00    -0.385 OA
ATOM     36  H   UNL     1       9.199  -2.639  22.927  0.00  0.00    +0.210 HD
ENDBRANCH  32  35
BRANCH  27  37
ATOM     37  C   UNL     1       7.467  -3.281  26.818  0.00  0.00    +0.266 C 
BRANCH  37  38
ATOM     38  O   UNL     1       7.934  -4.589  27.160  0.00  0.00    -0.462 OA
BRANCH  38  40
ATOM     39  C   UNL     1       5.693  -5.185  26.852  0.00  0.00    +0.136 C 
ATOM     40  C   UNL     1       6.973  -5.452  27.581  0.00  0.00    +0.304 C 
ATOM     41  O   UNL     1       7.148  -6.372  28.367  0.00  0.00    -0.251 OA
ENDBRANCH  38  40
ENDBRANCH  37  38
ENDBRANCH  27  37
BRANCH  31  42
ATOM     42  O   UNL     1       7.716  -4.940  22.933  0.00  0.00    -0.456 OA
BRANCH  42  43
ATOM     43  C   UNL     1       6.576  -5.612  22.582  0.00  0.00    +0.304 C 
ATOM     44  C   UNL     1       6.432  -5.729  21.103  0.00  0.00    +0.136 C 
ATOM     45  O   UNL     1       5.739  -6.039  23.381  0.00  0.00    -0.251 OA
ENDBRANCH  42  43
ENDBRANCH  31  42
ENDBRANCH  26  29
ENDBRANCH   1  26
TORSDOF 14
ENDMDL
MODEL 9
REMARK VINA RESULT:      -6.8      2.413      7.836
REMARK  Name = 
REMARK  16 active torsions:
REMARK  status: ('A' for Active; 'I' for Inactive)
REMARK    1  A    between atoms: C_1  and  C_2
REMARK    2  A    between atoms: C_2  and  O_4
REMARK    3  A    between atoms: O_4  and  C_5
REMARK    4  A    between atoms: C_5  and  C_6
REMARK    5  A    between atoms: C_7  and  O_41
REMARK    6  A    between atoms: C_9  and  O_37
REMARK    7  A    between atoms: C_10  and  O_36
REMARK    8  A    between atoms: C_11  and  O_14
REMARK    9  A    between atoms: O_14  and  C_15
REMARK   10  A    between atoms: C_16  and  C_28
REMARK   11  A    between atoms: C_20  and  O_27
REMARK   12  A    between atoms: C_22  and  O_26
REMARK   13  A    between atoms: C_30  and  O_35
REMARK   14  A    between atoms: C_31  and  O_34
REMARK   15  A    between atoms: O_37  and  C_38
REMARK   16  A    between atoms: C_38  and  C_40
REMARK                            x       y       z     vdW  Elec       q    Type
REMARK                         _______ _______ _______ _____ _____    ______ ____
ROOT
ATOM      1  C   UNL     1       6.963  -0.998  25.801  0.00  0.00    +0.214 A 
ATOM      2  C   UNL     1       6.574  -0.156  26.982  0.00  0.00    +0.238 A 
ATOM      3  O   UNL     1       7.249   0.797  27.352  0.00  0.00    -0.283 OA
ATOM      4  C   UNL     1       5.352  -0.502  27.711  0.00  0.00    +0.109 A 
ATOM      5  C   UNL     1       4.588  -1.557  27.231  0.00  0.00    +0.147 A 
ATOM      6  C   UNL     1       3.378  -1.880  27.857  0.00  0.00    +0.092 A 
ATOM      7  C   UNL     1       2.967  -1.150  28.972  0.00  0.00    +0.124 A 
ATOM      8  C   UNL     1       3.739  -0.115  29.477  0.00  0.00    +0.091 A 
ATOM      9  O   UNL     1       4.964  -2.323  26.159  0.00  0.00    -0.451 OA
ATOM     10  C   UNL     1       4.935   0.210  28.848  0.00  0.00    +0.135 A 
ATOM     11  C   UNL     1       6.156  -2.042  25.488  0.00  0.00    +0.181 A 
ENDROOT
BRANCH  11  12
ATOM     12  C   UNL     1       6.417  -3.022  24.377  0.00  0.00    +0.025 A 
ATOM     13  C   UNL     1       7.303  -4.105  24.577  0.00  0.00    +0.015 A 
ATOM     14  C   UNL     1       7.604  -5.015  23.550  0.00  0.00    +0.050 A 
ATOM     15  C   UNL     1       7.012  -4.857  22.310  0.00  0.00    +0.158 A 
ATOM     16  C   UNL     1       6.141  -3.798  22.081  0.00  0.00    +0.159 A 
ATOM     17  C   UNL     1       5.859  -2.876  23.091  0.00  0.00    +0.060 A 
BRANCH  15  18
ATOM     18  O   UNL     1       7.289  -5.750  21.313  0.00  0.00    -0.503 OA
ATOM     19  H   UNL     1       7.475  -5.193  20.531  0.00  0.00    +0.292 HD
ENDBRANCH  15  18
BRANCH  16  20
ATOM     20  O   UNL     1       5.578  -3.703  20.835  0.00  0.00    -0.503 OA
ATOM     21  H   UNL     1       5.425  -2.759  20.653  0.00  0.00    +0.292 HD
ENDBRANCH  16  20
ENDBRANCH  11  12
BRANCH   7  22
ATOM     22  O   UNL     1       1.797  -1.417  29.620  0.00  0.00    -0.507 OA
ATOM     23  H   UNL     1       1.652  -2.377  29.633  0.00  0.00    +0.292 HD
ENDBRANCH   7  22
BRANCH  10  24
ATOM     24  O   UNL     1       5.694   1.219  29.372  0.00  0.00    -0.506 OA
ATOM     25  H   UNL     1       6.351   0.865  29.993  0.00  0.00    +0.292 HD
ENDBRANCH  10  24
BRANCH   1  26
ATOM     26  O   UNL     1       8.094  -0.698  25.044  0.00  0.00    -0.453 OA
BRANCH  26  29
ATOM     27  C   UNL     1       7.604   1.573  22.195  0.00  0.00    +0.192 C 
ATOM     28  O   UNL     1       7.564   0.407  23.046  0.00  0.00    -0.330 OA
ATOM     29  C   UNL     1       8.168   0.565  24.352  0.00  0.00    +0.341 C 
ATOM     30  C   UNL     1       9.653   1.067  24.267  0.00  0.00    +0.226 C 
ATOM     31  C   UNL     1       9.668   2.318  23.375  0.00  0.00    +0.242 C 
ATOM     32  C   UNL     1       9.072   1.967  21.995  0.00  0.00    +0.190 C 
BRANCH  30  33
ATOM     33  O   UNL     1      10.531   0.032  23.779  0.00  0.00    -0.382 OA
ATOM     34  H   UNL     1      10.767  -0.519  24.555  0.00  0.00    +0.210 HD
ENDBRANCH  30  33
BRANCH  32  35
ATOM     35  O   UNL     1       9.799   0.856  21.421  0.00  0.00    -0.385 OA
ATOM     36  H   UNL     1      10.585   1.223  20.967  0.00  0.00    +0.210 HD
ENDBRANCH  32  35
BRANCH  27  37
ATOM     37  C   UNL     1       6.782   2.808  22.642  0.00  0.00    +0.266 C 
BRANCH  37  38
ATOM     38  O   UNL     1       7.113   4.025  21.968  0.00  0.00    -0.462 OA
BRANCH  38  40
ATOM     39  C   UNL     1       7.299   6.355  21.886  0.00  0.00    +0.136 C 
ATOM     40  C   UNL     1       6.842   5.160  22.663  0.00  0.00    +0.304 C 
ATOM     41  O   UNL     1       6.232   5.210  23.721  0.00  0.00    -0.251 OA
ENDBRANCH  38  40
ENDBRANCH  37  38
ENDBRANCH  27  37
BRANCH  31  42
ATOM     42  O   UNL     1      10.969   2.916  23.239  0.00  0.00    -0.456 OA
BRANCH  42  43
ATOM     43  C   UNL     1      10.964   4.250  23.548  0.00  0.00    +0.304 C 
ATOM     44  C   UNL     1      12.284   4.889  23.278  0.00  0.00    +0.136 C 
ATOM     45  O   UNL     1      10.004   4.854  24.032  0.00  0.00    -0.251 OA
ENDBRANCH  42  43
ENDBRANCH  31  42
ENDBRANCH  26  29
ENDBRANCH   1  26
TORSDOF 14
ENDMDL
