MODEL 1
REMARK VINA RESULT:      -7.6      0.000      0.000
REMARK  Name = 
REMARK  18 active torsions:
REMARK  status: ('A' for Active; 'I' for Inactive)
REMARK    1  A    between atoms: C_3  and  O_50
REMARK    2  A    between atoms: C_4  and  O_49
REMARK    3  A    between atoms: C_6  and  C_7
REMARK    4  A    between atoms: C_8  and  O_34
REMARK    5  A    between atoms: C_12  and  O_33
REMARK    6  A    between atoms: C_14  and  O_18
REMARK    7  A    between atoms: O_18  and  C_19
REMARK    8  A    between atoms: C_21  and  O_32
REMARK    9  A    between atoms: C_22  and  O_31
REMARK   10  A    between atoms: C_24  and  O_30
REMARK   11  A    between atoms: C_26  and  C_28
REMARK   12  A    between atoms: C_28  and  O_29
REMARK   13  A    between atoms: O_34  and  C_35
REMARK   14  A    between atoms: C_37  and  O_48
REMARK   15  A    between atoms: C_38  and  O_47
REMARK   16  A    between atoms: C_39  and  O_46
REMARK   17  A    between atoms: C_41  and  C_43
REMARK   18  A    between atoms: C_43  and  O_45
REMARK                            x       y       z     vdW  Elec       q    Type
REMARK                         _______ _______ _______ _____ _____    ______ ____
ROOT
ATOM      1  C   UNL     1       7.404   0.827  25.288  0.00  0.00    +0.181 A 
ATOM      2  O   UNL     1       6.675  -0.362  25.401  0.00  0.00    -0.451 OA
ATOM      3  C   UNL     1       7.250  -1.560  25.063  0.00  0.00    +0.147 A 
ATOM      4  C   UNL     1       8.544  -1.613  24.523  0.00  0.00    +0.109 A 
ATOM      5  C   UNL     1       9.068  -2.847  24.174  0.00  0.00    +0.135 A 
ATOM      6  C   UNL     1       8.332  -4.028  24.382  0.00  0.00    +0.092 A 
ATOM      7  C   UNL     1       7.030  -3.993  24.898  0.00  0.00    +0.131 A 
ATOM      8  C   UNL     1       9.310  -0.364  24.394  0.00  0.00    +0.238 A 
ATOM      9  O   UNL     1      10.444  -0.385  23.916  0.00  0.00    -0.283 OA
ATOM     10  C   UNL     1       6.496  -2.743  25.254  0.00  0.00    +0.093 A 
ATOM     11  C   UNL     1       8.691   0.904  24.867  0.00  0.00    +0.214 A 
ENDROOT
BRANCH   1  13
ATOM     12  C   UNL     1       5.548   2.584  25.224  0.00  0.00    +0.015 A 
ATOM     13  C   UNL     1       6.675   2.011  25.843  0.00  0.00    +0.025 A 
ATOM     14  C   UNL     1       7.194   2.686  26.954  0.00  0.00    +0.060 A 
ATOM     15  C   UNL     1       6.754   3.967  27.253  0.00  0.00    +0.159 A 
ATOM     16  C   UNL     1       5.804   4.604  26.462  0.00  0.00    +0.158 A 
ATOM     17  C   UNL     1       5.152   3.899  25.474  0.00  0.00    +0.050 A 
BRANCH  16  18
ATOM     18  O   UNL     1       5.557   5.927  26.685  0.00  0.00    -0.503 OA
ATOM     19  H   UNL     1       5.094   6.276  25.902  0.00  0.00    +0.292 HD
ENDBRANCH  16  18
BRANCH  15  20
ATOM     20  O   UNL     1       7.308   4.628  28.310  0.00  0.00    -0.503 OA
ATOM     21  H   UNL     1       8.117   5.035  27.942  0.00  0.00    +0.292 HD
ENDBRANCH  15  20
ENDBRANCH   1  13
BRANCH   5  22
ATOM     22  O   UNL     1      10.288  -3.029  23.582  0.00  0.00    -0.506 OA
ATOM     23  H   UNL     1      10.334  -2.447  22.796  0.00  0.00    +0.292 HD
ENDBRANCH   5  22
BRANCH  11  24
ATOM     24  O   UNL     1       9.342   2.108  24.659  0.00  0.00    -0.453 OA
BRANCH  24  25
ATOM     25  C   UNL     1       9.729   2.580  23.351  0.00  0.00    +0.340 C 
ATOM     26  O   UNL     1      11.031   3.232  23.361  0.00  0.00    -0.322 OA
ATOM     27  C   UNL     1      11.148   4.507  24.054  0.00  0.00    +0.261 C 
ATOM     28  C   UNL     1       9.919   5.437  24.084  0.00  0.00    +0.185 C 
ATOM     29  C   UNL     1       8.605   4.667  24.010  0.00  0.00    +0.180 C 
ATOM     30  C   UNL     1       8.730   3.644  22.862  0.00  0.00    +0.214 C 
BRANCH  30  31
ATOM     31  O   UNL     1       7.464   3.161  22.442  0.00  0.00    -0.383 OA
ATOM     32  H   UNL     1       7.469   2.180  22.437  0.00  0.00    +0.210 HD
ENDBRANCH  30  31
BRANCH  29  33
ATOM     33  O   UNL     1       7.546   5.609  23.805  0.00  0.00    -0.386 OA
ATOM     34  H   UNL     1       7.475   6.125  24.630  0.00  0.00    +0.210 HD
ENDBRANCH  29  33
BRANCH  28  35
ATOM     35  O   UNL     1       9.911   6.346  22.968  0.00  0.00    -0.386 OA
ATOM     36  H   UNL     1      10.606   6.005  22.365  0.00  0.00    +0.210 HD
ENDBRANCH  28  35
BRANCH  27  37
ATOM     37  C   UNL     1      12.343   5.272  23.468  0.00  0.00    +0.337 C 
ATOM     38  O   UNL     1      12.750   5.167  22.315  0.00  0.00    -0.248 OA
BRANCH  37  39
ATOM     39  O   UNL     1      12.914   6.122  24.364  0.00  0.00    -0.479 OA
ATOM     40  H   UNL     1      12.718   5.809  25.274  0.00  0.00    +0.295 HD
ENDBRANCH  37  39
ENDBRANCH  27  37
ENDBRANCH  24  25
ENDBRANCH  11  24
BRANCH   7  41
ATOM     41  O   UNL     1       6.224  -5.122  25.059  0.00  0.00    -0.461 OA
BRANCH  41  42
ATOM     42  C   UNL     1       4.835  -4.802  25.322  0.00  0.00    +0.339 C 
ATOM     43  O   UNL     1       4.492  -5.249  26.634  0.00  0.00    -0.331 OA
ATOM     44  C   UNL     1       4.380  -6.680  26.712  0.00  0.00    +0.179 C 
ATOM     45  C   UNL     1       3.107  -7.089  25.958  0.00  0.00    +0.177 C 
ATOM     46  C   UNL     1       3.286  -6.728  24.473  0.00  0.00    +0.180 C 
ATOM     47  C   UNL     1       3.777  -5.283  24.285  0.00  0.00    +0.214 C 
BRANCH  47  48
ATOM     48  O   UNL     1       4.167  -5.037  22.930  0.00  0.00    -0.383 OA
ATOM     49  H   UNL     1       4.830  -5.710  22.689  0.00  0.00    +0.210 HD
ENDBRANCH  47  48
BRANCH  46  50
ATOM     50  O   UNL     1       4.162  -7.644  23.809  0.00  0.00    -0.386 OA
ATOM     51  H   UNL     1       4.448  -8.323  24.446  0.00  0.00    +0.210 HD
ENDBRANCH  46  50
BRANCH  45  52
ATOM     52  O   UNL     1       1.994  -6.387  26.522  0.00  0.00    -0.386 OA
ATOM     53  H   UNL     1       2.322  -5.666  27.086  0.00  0.00    +0.210 HD
ENDBRANCH  45  52
BRANCH  44  54
ATOM     54  C   UNL     1       4.365  -7.093  28.186  0.00  0.00    +0.190 C 
BRANCH  54  55
ATOM     55  O   UNL     1       5.646  -7.591  28.594  0.00  0.00    -0.392 OA
ATOM     56  H   UNL     1       5.840  -7.245  29.481  0.00  0.00    +0.210 HD
ENDBRANCH  54  55
ENDBRANCH  44  54
ENDBRANCH  41  42
ENDBRANCH   7  41
TORSDOF 18
ENDMDL
MODEL 2
REMARK VINA RESULT:      -7.0      2.120     10.456
REMARK  Name = 
REMARK  18 active torsions:
REMARK  status: ('A' for Active; 'I' for Inactive)
REMARK    1  A    between atoms: C_3  and  O_50
REMARK    2  A    between atoms: C_4  and  O_49
REMARK    3  A    between atoms: C_6  and  C_7
REMARK    4  A    between atoms: C_8  and  O_34
REMARK    5  A    between atoms: C_12  and  O_33
REMARK    6  A    between atoms: C_14  and  O_18
REMARK    7  A    between atoms: O_18  and  C_19
REMARK    8  A    between atoms: C_21  and  O_32
REMARK    9  A    between atoms: C_22  and  O_31
REMARK   10  A    between atoms: C_24  and  O_30
REMARK   11  A    between atoms: C_26  and  C_28
REMARK   12  A    between atoms: C_28  and  O_29
REMARK   13  A    between atoms: O_34  and  C_35
REMARK   14  A    between atoms: C_37  and  O_48
REMARK   15  A    between atoms: C_38  and  O_47
REMARK   16  A    between atoms: C_39  and  O_46
REMARK   17  A    between atoms: C_41  and  C_43
REMARK   18  A    between atoms: C_43  and  O_45
REMARK                            x       y       z     vdW  Elec       q    Type
REMARK                         _______ _______ _______ _____ _____    ______ ____
ROOT
ATOM      1  C   UNL     1       6.020  -1.539  24.610  0.00  0.00    +0.181 A 
ATOM      2  O   UNL     1       6.848  -0.413  24.546  0.00  0.00    -0.451 OA
ATOM      3  C   UNL     1       6.670   0.628  25.419  0.00  0.00    +0.147 A 
ATOM      4  C   UNL     1       5.608   0.626  26.337  0.00  0.00    +0.109 A 
ATOM      5  C   UNL     1       5.457   1.716  27.179  0.00  0.00    +0.135 A 
ATOM      6  C   UNL     1       6.363   2.791  27.138  0.00  0.00    +0.092 A 
ATOM      7  C   UNL     1       7.415   2.821  26.213  0.00  0.00    +0.131 A 
ATOM      8  C   UNL     1       4.729  -0.551  26.402  0.00  0.00    +0.238 A 
ATOM      9  O   UNL     1       3.787  -0.572  27.194  0.00  0.00    -0.283 OA
ATOM     10  C   UNL     1       7.572   1.718  25.357  0.00  0.00    +0.093 A 
ATOM     11  C   UNL     1       5.017  -1.706  25.508  0.00  0.00    +0.214 A 
ENDROOT
BRANCH   1  13
ATOM     12  C   UNL     1       5.755  -2.985  22.519  0.00  0.00    +0.015 A 
ATOM     13  C   UNL     1       6.455  -2.636  23.689  0.00  0.00    +0.025 A 
ATOM     14  C   UNL     1       7.527  -3.460  24.050  0.00  0.00    +0.060 A 
ATOM     15  C   UNL     1       7.709  -4.678  23.411  0.00  0.00    +0.159 A 
ATOM     16  C   UNL     1       6.839  -5.104  22.415  0.00  0.00    +0.158 A 
ATOM     17  C   UNL     1       5.888  -4.239  21.921  0.00  0.00    +0.050 A 
BRANCH  16  18
ATOM     18  O   UNL     1       6.949  -6.387  21.964  0.00  0.00    -0.503 OA
ATOM     19  H   UNL     1       6.756  -6.380  21.008  0.00  0.00    +0.292 HD
ENDBRANCH  16  18
BRANCH  15  20
ATOM     20  O   UNL     1       8.729  -5.490  23.813  0.00  0.00    -0.503 OA
ATOM     21  H   UNL     1       9.444  -5.314  23.169  0.00  0.00    +0.292 HD
ENDBRANCH  15  20
ENDBRANCH   1  13
BRANCH   5  22
ATOM     22  O   UNL     1       4.431   1.866  28.072  0.00  0.00    -0.506 OA
ATOM     23  H   UNL     1       3.787   2.497  27.691  0.00  0.00    +0.292 HD
ENDBRANCH   5  22
BRANCH  11  24
ATOM     24  O   UNL     1       4.145  -2.781  25.469  0.00  0.00    -0.453 OA
BRANCH  24  25
ATOM     25  C   UNL     1       3.811  -3.569  26.630  0.00  0.00    +0.340 C 
ATOM     26  O   UNL     1       4.987  -3.932  27.409  0.00  0.00    -0.322 OA
ATOM     27  C   UNL     1       5.930  -4.871  26.819  0.00  0.00    +0.261 C 
ATOM     28  C   UNL     1       5.384  -5.951  25.864  0.00  0.00    +0.185 C 
ATOM     29  C   UNL     1       4.121  -5.501  25.138  0.00  0.00    +0.180 C 
ATOM     30  C   UNL     1       3.169  -4.898  26.194  0.00  0.00    +0.214 C 
BRANCH  30  31
ATOM     31  O   UNL     1       1.834  -4.818  25.719  0.00  0.00    -0.383 OA
ATOM     32  H   UNL     1       1.253  -5.383  26.272  0.00  0.00    +0.210 HD
ENDBRANCH  30  31
BRANCH  29  33
ATOM     33  O   UNL     1       3.562  -6.637  24.468  0.00  0.00    -0.386 OA
ATOM     34  H   UNL     1       2.954  -7.059  25.104  0.00  0.00    +0.210 HD
ENDBRANCH  29  33
BRANCH  28  35
ATOM     35  O   UNL     1       5.032  -7.156  26.567  0.00  0.00    -0.386 OA
ATOM     36  H   UNL     1       5.337  -7.884  25.983  0.00  0.00    +0.210 HD
ENDBRANCH  28  35
BRANCH  27  37
ATOM     37  C   UNL     1       6.712  -5.552  27.951  0.00  0.00    +0.337 C 
ATOM     38  O   UNL     1       6.298  -5.715  29.095  0.00  0.00    -0.248 OA
BRANCH  37  39
ATOM     39  O   UNL     1       7.936  -5.993  27.553  0.00  0.00    -0.479 OA
ATOM     40  H   UNL     1       8.570  -5.899  28.297  0.00  0.00    +0.295 HD
ENDBRANCH  37  39
ENDBRANCH  27  37
ENDBRANCH  24  25
ENDBRANCH  11  24
BRANCH   7  41
ATOM     41  O   UNL     1       8.302   3.891  26.074  0.00  0.00    -0.461 OA
BRANCH  41  42
ATOM     42  C   UNL     1       7.658   5.121  25.660  0.00  0.00    +0.339 C 
ATOM     43  O   UNL     1       6.995   4.905  24.413  0.00  0.00    -0.331 OA
ATOM     44  C   UNL     1       7.919   4.791  23.317  0.00  0.00    +0.179 C 
ATOM     45  C   UNL     1       8.510   6.184  23.059  0.00  0.00    +0.177 C 
ATOM     46  C   UNL     1       9.324   6.602  24.296  0.00  0.00    +0.180 C 
ATOM     47  C   UNL     1       8.533   6.407  25.600  0.00  0.00    +0.214 C 
BRANCH  47  48
ATOM     48  O   UNL     1       9.373   6.568  26.748  0.00  0.00    -0.383 OA
ATOM     49  H   UNL     1       9.526   7.524  26.867  0.00  0.00    +0.210 HD
ENDBRANCH  47  48
BRANCH  46  50
ATOM     50  O   UNL     1      10.576   5.910  24.363  0.00  0.00    -0.386 OA
ATOM     51  H   UNL     1      10.468   5.121  24.922  0.00  0.00    +0.210 HD
ENDBRANCH  46  50
BRANCH  45  52
ATOM     52  O   UNL     1       7.437   7.101  22.822  0.00  0.00    -0.386 OA
ATOM     53  H   UNL     1       6.958   6.834  22.020  0.00  0.00    +0.210 HD
ENDBRANCH  45  52
BRANCH  44  54
ATOM     54  C   UNL     1       7.177   4.220  22.106  0.00  0.00    +0.190 C 
BRANCH  54  55
ATOM     55  O   UNL     1       5.798   4.613  22.116  0.00  0.00    -0.392 OA
ATOM     56  H   UNL     1       5.587   5.011  21.255  0.00  0.00    +0.210 HD
ENDBRANCH  54  55
ENDBRANCH  44  54
ENDBRANCH  41  42
ENDBRANCH   7  41
TORSDOF 18
ENDMDL
MODEL 3
REMARK VINA RESULT:      -7.0      1.585      2.963
REMARK  Name = 
REMARK  18 active torsions:
REMARK  status: ('A' for Active; 'I' for Inactive)
REMARK    1  A    between atoms: C_3  and  O_50
REMARK    2  A    between atoms: C_4  and  O_49
REMARK    3  A    between atoms: C_6  and  C_7
REMARK    4  A    between atoms: C_8  and  O_34
REMARK    5  A    between atoms: C_12  and  O_33
REMARK    6  A    between atoms: C_14  and  O_18
REMARK    7  A    between atoms: O_18  and  C_19
REMARK    8  A    between atoms: C_21  and  O_32
REMARK    9  A    between atoms: C_22  and  O_31
REMARK   10  A    between atoms: C_24  and  O_30
REMARK   11  A    between atoms: C_26  and  C_28
REMARK   12  A    between atoms: C_28  and  O_29
REMARK   13  A    between atoms: O_34  and  C_35
REMARK   14  A    between atoms: C_37  and  O_48
REMARK   15  A    between atoms: C_38  and  O_47
REMARK   16  A    between atoms: C_39  and  O_46
REMARK   17  A    between atoms: C_41  and  C_43
REMARK   18  A    between atoms: C_43  and  O_45
REMARK                            x       y       z     vdW  Elec       q    Type
REMARK                         _______ _______ _______ _____ _____    ______ ____
ROOT
ATOM      1  C   UNL     1       6.403   1.074  23.885  0.00  0.00    +0.181 A 
ATOM      2  O   UNL     1       5.785  -0.175  24.011  0.00  0.00    -0.451 OA
ATOM      3  C   UNL     1       6.540  -1.317  24.081  0.00  0.00    +0.147 A 
ATOM      4  C   UNL     1       7.937  -1.268  23.945  0.00  0.00    +0.109 A 
ATOM      5  C   UNL     1       8.651  -2.455  23.997  0.00  0.00    +0.135 A 
ATOM      6  C   UNL     1       7.996  -3.681  24.210  0.00  0.00    +0.092 A 
ATOM      7  C   UNL     1       6.601  -3.753  24.325  0.00  0.00    +0.131 A 
ATOM      8  C   UNL     1       8.590   0.042  23.802  0.00  0.00    +0.238 A 
ATOM      9  O   UNL     1       9.812   0.108  23.674  0.00  0.00    -0.283 OA
ATOM     10  C   UNL     1       5.874  -2.551  24.273  0.00  0.00    +0.093 A 
ATOM     11  C   UNL     1       7.745   1.267  23.834  0.00  0.00    +0.214 A 
ENDROOT
BRANCH   1  13
ATOM     12  C   UNL     1       4.637   2.457  25.110  0.00  0.00    +0.015 A 
ATOM     13  C   UNL     1       5.438   2.214  23.978  0.00  0.00    +0.025 A 
ATOM     14  C   UNL     1       5.198   3.013  22.855  0.00  0.00    +0.060 A 
ATOM     15  C   UNL     1       4.071   3.820  22.807  0.00  0.00    +0.159 A 
ATOM     16  C   UNL     1       3.162   3.846  23.858  0.00  0.00    +0.158 A 
ATOM     17  C   UNL     1       3.464   3.209  25.041  0.00  0.00    +0.050 A 
BRANCH  16  18
ATOM     18  O   UNL     1       1.978   4.501  23.674  0.00  0.00    -0.503 OA
ATOM     19  H   UNL     1       1.375   4.224  24.388  0.00  0.00    +0.292 HD
ENDBRANCH  16  18
BRANCH  15  20
ATOM     20  O   UNL     1       3.828   4.552  21.682  0.00  0.00    -0.503 OA
ATOM     21  H   UNL     1       4.182   5.439  21.892  0.00  0.00    +0.292 HD
ENDBRANCH  15  20
ENDBRANCH   1  13
BRANCH   5  22
ATOM     22  O   UNL     1      10.003  -2.551  23.815  0.00  0.00    -0.506 OA
ATOM     23  H   UNL     1      10.196  -3.426  23.423  0.00  0.00    +0.292 HD
ENDBRANCH   5  22
BRANCH  11  24
ATOM     24  O   UNL     1       8.317   2.504  23.592  0.00  0.00    -0.453 OA
BRANCH  24  25
ATOM     25  C   UNL     1       9.077   3.229  24.582  0.00  0.00    +0.340 C 
ATOM     26  O   UNL     1       8.261   3.637  25.717  0.00  0.00    -0.322 OA
ATOM     27  C   UNL     1       7.242   4.652  25.493  0.00  0.00    +0.261 C 
ATOM     28  C   UNL     1       7.509   5.730  24.422  0.00  0.00    +0.185 C 
ATOM     29  C   UNL     1       8.419   5.228  23.307  0.00  0.00    +0.180 C 
ATOM     30  C   UNL     1       9.626   4.531  23.971  0.00  0.00    +0.214 C 
BRANCH  30  31
ATOM     31  O   UNL     1      10.714   4.385  23.071  0.00  0.00    -0.383 OA
ATOM     32  H   UNL     1      10.977   5.266  22.726  0.00  0.00    +0.210 HD
ENDBRANCH  30  31
BRANCH  29  33
ATOM     33  O   UNL     1       8.798   6.350  22.501  0.00  0.00    -0.386 OA
ATOM     34  H   UNL     1       9.346   6.923  23.070  0.00  0.00    +0.210 HD
ENDBRANCH  29  33
BRANCH  28  35
ATOM     35  O   UNL     1       8.161   6.885  24.980  0.00  0.00    -0.386 OA
ATOM     36  H   UNL     1       8.193   7.533  24.243  0.00  0.00    +0.210 HD
ENDBRANCH  28  35
BRANCH  27  37
ATOM     37  C   UNL     1       6.936   5.340  26.831  0.00  0.00    +0.337 C 
ATOM     38  O   UNL     1       7.717   5.424  27.774  0.00  0.00    -0.248 OA
BRANCH  37  39
ATOM     39  O   UNL     1       5.690   5.884  26.869  0.00  0.00    -0.479 OA
ATOM     40  H   UNL     1       5.592   6.407  27.693  0.00  0.00    +0.295 HD
ENDBRANCH  37  39
ENDBRANCH  27  37
ENDBRANCH  24  25
ENDBRANCH  11  24
BRANCH   7  41
ATOM     41  O   UNL     1       5.889  -4.946  24.464  0.00  0.00    -0.461 OA
BRANCH  41  42
ATOM     42  C   UNL     1       4.571  -4.763  25.036  0.00  0.00    +0.339 C 
ATOM     43  O   UNL     1       4.614  -5.089  26.426  0.00  0.00    -0.331 OA
ATOM     44  C   UNL     1       4.731  -6.504  26.653  0.00  0.00    +0.179 C 
ATOM     45  C   UNL     1       3.388  -7.146  26.278  0.00  0.00    +0.177 C 
ATOM     46  C   UNL     1       3.158  -6.946  24.770  0.00  0.00    +0.180 C 
ATOM     47  C   UNL     1       3.379  -5.485  24.342  0.00  0.00    +0.214 C 
BRANCH  47  48
ATOM     48  O   UNL     1       3.399  -5.358  22.917  0.00  0.00    -0.383 OA
ATOM     49  H   UNL     1       2.794  -4.631  22.679  0.00  0.00    +0.210 HD
ENDBRANCH  47  48
BRANCH  46  50
ATOM     50  O   UNL     1       3.976  -7.825  23.990  0.00  0.00    -0.386 OA
ATOM     51  H   UNL     1       3.398  -8.427  23.489  0.00  0.00    +0.210 HD
ENDBRANCH  46  50
BRANCH  45  52
ATOM     52  O   UNL     1       2.350  -6.519  27.039  0.00  0.00    -0.386 OA
ATOM     53  H   UNL     1       1.657  -7.172  27.236  0.00  0.00    +0.210 HD
ENDBRANCH  45  52
BRANCH  44  54
ATOM     54  C   UNL     1       5.122  -6.737  28.114  0.00  0.00    +0.190 C 
BRANCH  54  55
ATOM     55  O   UNL     1       4.183  -7.604  28.766  0.00  0.00    -0.392 OA
ATOM     56  H   UNL     1       4.500  -7.775  29.668  0.00  0.00    +0.210 HD
ENDBRANCH  54  55
ENDBRANCH  44  54
ENDBRANCH  41  42
ENDBRANCH   7  41
TORSDOF 18
ENDMDL
MODEL 4
REMARK VINA RESULT:      -6.8      1.039      2.233
REMARK  Name = 
REMARK  18 active torsions:
REMARK  status: ('A' for Active; 'I' for Inactive)
REMARK    1  A    between atoms: C_3  and  O_50
REMARK    2  A    between atoms: C_4  and  O_49
REMARK    3  A    between atoms: C_6  and  C_7
REMARK    4  A    between atoms: C_8  and  O_34
REMARK    5  A    between atoms: C_12  and  O_33
REMARK    6  A    between atoms: C_14  and  O_18
REMARK    7  A    between atoms: O_18  and  C_19
REMARK    8  A    between atoms: C_21  and  O_32
REMARK    9  A    between atoms: C_22  and  O_31
REMARK   10  A    between atoms: C_24  and  O_30
REMARK   11  A    between atoms: C_26  and  C_28
REMARK   12  A    between atoms: C_28  and  O_29
REMARK   13  A    between atoms: O_34  and  C_35
REMARK   14  A    between atoms: C_37  and  O_48
REMARK   15  A    between atoms: C_38  and  O_47
REMARK   16  A    between atoms: C_39  and  O_46
REMARK   17  A    between atoms: C_41  and  C_43
REMARK   18  A    between atoms: C_43  and  O_45
REMARK                            x       y       z     vdW  Elec       q    Type
REMARK                         _______ _______ _______ _____ _____    ______ ____
ROOT
ATOM      1  C   UNL     1       7.268   0.877  25.854  0.00  0.00    +0.181 A 
ATOM      2  O   UNL     1       6.557  -0.295  26.137  0.00  0.00    -0.451 OA
ATOM      3  C   UNL     1       7.101  -1.520  25.852  0.00  0.00    +0.147 A 
ATOM      4  C   UNL     1       8.339  -1.626  25.200  0.00  0.00    +0.109 A 
ATOM      5  C   UNL     1       8.833  -2.889  24.912  0.00  0.00    +0.135 A 
ATOM      6  C   UNL     1       8.123  -4.043  25.290  0.00  0.00    +0.092 A 
ATOM      7  C   UNL     1       6.875  -3.957  25.920  0.00  0.00    +0.131 A 
ATOM      8  C   UNL     1       9.086  -0.397  24.891  0.00  0.00    +0.238 A 
ATOM      9  O   UNL     1      10.170  -0.465  24.313  0.00  0.00    -0.283 OA
ATOM     10  C   UNL     1       6.373  -2.678  26.215  0.00  0.00    +0.093 A 
ATOM     11  C   UNL     1       8.510   0.911  25.308  0.00  0.00    +0.214 A 
ENDROOT
BRANCH   1  13
ATOM     12  C   UNL     1       5.503   2.721  25.719  0.00  0.00    +0.015 A 
ATOM     13  C   UNL     1       6.591   2.108  26.369  0.00  0.00    +0.025 A 
ATOM     14  C   UNL     1       7.125   2.783  27.472  0.00  0.00    +0.060 A 
ATOM     15  C   UNL     1       6.745   4.091  27.735  0.00  0.00    +0.159 A 
ATOM     16  C   UNL     1       5.840   4.754  26.914  0.00  0.00    +0.158 A 
ATOM     17  C   UNL     1       5.169   4.059  25.932  0.00  0.00    +0.050 A 
BRANCH  16  18
ATOM     18  O   UNL     1       5.655   6.093  27.103  0.00  0.00    -0.503 OA
ATOM     19  H   UNL     1       4.702   6.275  27.008  0.00  0.00    +0.292 HD
ENDBRANCH  16  18
BRANCH  15  20
ATOM     20  O   UNL     1       7.315   4.749  28.785  0.00  0.00    -0.503 OA
ATOM     21  H   UNL     1       7.223   4.130  29.536  0.00  0.00    +0.292 HD
ENDBRANCH  15  20
ENDBRANCH   1  13
BRANCH   5  22
ATOM     22  O   UNL     1       9.992  -3.127  24.226  0.00  0.00    -0.506 OA
ATOM     23  H   UNL     1      10.738  -3.052  24.854  0.00  0.00    +0.292 HD
ENDBRANCH   5  22
BRANCH  11  24
ATOM     24  O   UNL     1       9.134   2.089  24.936  0.00  0.00    -0.453 OA
BRANCH  24  25
ATOM     25  C   UNL     1       9.500   2.392  23.574  0.00  0.00    +0.340 C 
ATOM     26  O   UNL     1      10.774   3.092  23.485  0.00  0.00    -0.322 OA
ATOM     27  C   UNL     1      10.839   4.453  23.995  0.00  0.00    +0.261 C 
ATOM     28  C   UNL     1       9.572   5.328  23.906  0.00  0.00    +0.185 C 
ATOM     29  C   UNL     1       8.291   4.502  23.948  0.00  0.00    +0.180 C 
ATOM     30  C   UNL     1       8.457   3.337  22.950  0.00  0.00    +0.214 C 
BRANCH  30  31
ATOM     31  O   UNL     1       7.211   2.749  22.609  0.00  0.00    -0.383 OA
ATOM     32  H   UNL     1       7.309   2.221  21.787  0.00  0.00    +0.210 HD
ENDBRANCH  30  31
BRANCH  29  33
ATOM     33  O   UNL     1       7.193   5.363  23.622  0.00  0.00    -0.386 OA
ATOM     34  H   UNL     1       7.289   5.582  22.676  0.00  0.00    +0.210 HD
ENDBRANCH  29  33
BRANCH  28  35
ATOM     35  O   UNL     1       9.525   6.074  22.675  0.00  0.00    -0.386 OA
ATOM     36  H   UNL     1       8.763   5.697  22.185  0.00  0.00    +0.210 HD
ENDBRANCH  28  35
BRANCH  27  37
ATOM     37  C   UNL     1      11.999   5.179  23.301  0.00  0.00    +0.337 C 
ATOM     38  O   UNL     1      12.644   6.104  23.787  0.00  0.00    -0.248 OA
BRANCH  37  39
ATOM     39  O   UNL     1      12.272   4.674  22.067  0.00  0.00    -0.479 OA
ATOM     40  H   UNL     1      12.366   3.699  22.132  0.00  0.00    +0.295 HD
ENDBRANCH  37  39
ENDBRANCH  27  37
ENDBRANCH  24  25
ENDBRANCH  11  24
BRANCH   7  41
ATOM     41  O   UNL     1       6.091  -5.064  26.254  0.00  0.00    -0.461 OA
BRANCH  41  42
ATOM     42  C   UNL     1       5.898  -5.983  25.151  0.00  0.00    +0.339 C 
ATOM     43  O   UNL     1       5.988  -5.264  23.920  0.00  0.00    -0.331 OA
ATOM     44  C   UNL     1       4.836  -4.435  23.687  0.00  0.00    +0.179 C 
ATOM     45  C   UNL     1       3.656  -5.362  23.360  0.00  0.00    +0.177 C 
ATOM     46  C   UNL     1       3.354  -6.218  24.602  0.00  0.00    +0.180 C 
ATOM     47  C   UNL     1       4.622  -6.875  25.173  0.00  0.00    +0.214 C 
BRANCH  47  48
ATOM     48  O   UNL     1       4.373  -7.467  26.451  0.00  0.00    -0.383 OA
ATOM     49  H   UNL     1       4.213  -8.418  26.309  0.00  0.00    +0.210 HD
ENDBRANCH  47  48
BRANCH  46  50
ATOM     50  O   UNL     1       2.684  -5.462  25.616  0.00  0.00    -0.386 OA
ATOM     51  H   UNL     1       1.960  -6.000  25.981  0.00  0.00    +0.210 HD
ENDBRANCH  46  50
BRANCH  45  52
ATOM     52  O   UNL     1       4.014  -6.187  22.247  0.00  0.00    -0.386 OA
ATOM     53  H   UNL     1       3.992  -5.656  21.433  0.00  0.00    +0.210 HD
ENDBRANCH  45  52
BRANCH  44  54
ATOM     54  C   UNL     1       5.158  -3.452  22.559  0.00  0.00    +0.190 C 
BRANCH  54  55
ATOM     55  O   UNL     1       5.586  -4.146  21.379  0.00  0.00    -0.392 OA
ATOM     56  H   UNL     1       6.528  -4.361  21.475  0.00  0.00    +0.210 HD
ENDBRANCH  54  55
ENDBRANCH  44  54
ENDBRANCH  41  42
ENDBRANCH   7  41
TORSDOF 18
ENDMDL
MODEL 5
REMARK VINA RESULT:      -6.8      2.268      9.816
REMARK  Name = 
REMARK  18 active torsions:
REMARK  status: ('A' for Active; 'I' for Inactive)
REMARK    1  A    between atoms: C_3  and  O_50
REMARK    2  A    between atoms: C_4  and  O_49
REMARK    3  A    between atoms: C_6  and  C_7
REMARK    4  A    between atoms: C_8  and  O_34
REMARK    5  A    between atoms: C_12  and  O_33
REMARK    6  A    between atoms: C_14  and  O_18
REMARK    7  A    between atoms: O_18  and  C_19
REMARK    8  A    between atoms: C_21  and  O_32
REMARK    9  A    between atoms: C_22  and  O_31
REMARK   10  A    between atoms: C_24  and  O_30
REMARK   11  A    between atoms: C_26  and  C_28
REMARK   12  A    between atoms: C_28  and  O_29
REMARK   13  A    between atoms: O_34  and  C_35
REMARK   14  A    between atoms: C_37  and  O_48
REMARK   15  A    between atoms: C_38  and  O_47
REMARK   16  A    between atoms: C_39  and  O_46
REMARK   17  A    between atoms: C_41  and  C_43
REMARK   18  A    between atoms: C_43  and  O_45
REMARK                            x       y       z     vdW  Elec       q    Type
REMARK                         _______ _______ _______ _____ _____    ______ ____
ROOT
ATOM      1  C   UNL     1       6.187  -1.176  25.211  0.00  0.00    +0.181 A 
ATOM      2  O   UNL     1       5.933   0.136  24.797  0.00  0.00    -0.451 OA
ATOM      3  C   UNL     1       6.713   0.722  23.834  0.00  0.00    +0.147 A 
ATOM      4  C   UNL     1       7.829   0.054  23.305  0.00  0.00    +0.109 A 
ATOM      5  C   UNL     1       8.600   0.702  22.353  0.00  0.00    +0.135 A 
ATOM      6  C   UNL     1       8.259   1.990  21.904  0.00  0.00    +0.092 A 
ATOM      7  C   UNL     1       7.164   2.682  22.437  0.00  0.00    +0.131 A 
ATOM      8  C   UNL     1       8.106  -1.322  23.745  0.00  0.00    +0.238 A 
ATOM      9  O   UNL     1       9.083  -1.924  23.299  0.00  0.00    -0.283 OA
ATOM     10  C   UNL     1       6.379   2.028  23.402  0.00  0.00    +0.093 A 
ATOM     11  C   UNL     1       7.176  -1.962  24.715  0.00  0.00    +0.214 A 
ENDROOT
BRANCH   1  13
ATOM     12  C   UNL     1       5.403  -1.983  27.506  0.00  0.00    +0.015 A 
ATOM     13  C   UNL     1       5.148  -1.702  26.150  0.00  0.00    +0.025 A 
ATOM     14  C   UNL     1       3.891  -2.071  25.657  0.00  0.00    +0.060 A 
ATOM     15  C   UNL     1       3.061  -2.883  26.416  0.00  0.00    +0.159 A 
ATOM     16  C   UNL     1       3.456  -3.348  27.665  0.00  0.00    +0.158 A 
ATOM     17  C   UNL     1       4.606  -2.858  28.245  0.00  0.00    +0.050 A 
BRANCH  16  18
ATOM     18  O   UNL     1       2.689  -4.297  28.276  0.00  0.00    -0.503 OA
ATOM     19  H   UNL     1       2.333  -3.905  29.094  0.00  0.00    +0.292 HD
ENDBRANCH  16  18
BRANCH  15  20
ATOM     20  O   UNL     1       1.861  -3.273  25.897  0.00  0.00    -0.503 OA
ATOM     21  H   UNL     1       2.085  -4.022  25.310  0.00  0.00    +0.292 HD
ENDBRANCH  15  20
ENDBRANCH   1  13
BRANCH   5  22
ATOM     22  O   UNL     1       9.745   0.188  21.807  0.00  0.00    -0.506 OA
ATOM     23  H   UNL     1      10.507   0.650  22.210  0.00  0.00    +0.292 HD
ENDBRANCH   5  22
BRANCH  11  24
ATOM     24  O   UNL     1       7.470  -3.213  25.229  0.00  0.00    -0.453 OA
BRANCH  24  25
ATOM     25  C   UNL     1       7.578  -4.397  24.412  0.00  0.00    +0.340 C 
ATOM     26  O   UNL     1       6.482  -4.513  23.460  0.00  0.00    -0.322 OA
ATOM     27  C   UNL     1       5.150  -4.777  23.985  0.00  0.00    +0.261 C 
ATOM     28  C   UNL     1       5.026  -5.614  25.274  0.00  0.00    +0.185 C 
ATOM     29  C   UNL     1       6.245  -5.473  26.178  0.00  0.00    +0.180 C 
ATOM     30  C   UNL     1       7.500  -5.653  25.298  0.00  0.00    +0.214 C 
BRANCH  30  31
ATOM     31  O   UNL     1       8.654  -5.941  26.072  0.00  0.00    -0.383 OA
ATOM     32  H   UNL     1       9.076  -5.102  26.359  0.00  0.00    +0.210 HD
ENDBRANCH  30  31
BRANCH  29  33
ATOM     33  O   UNL     1       6.147  -6.455  27.217  0.00  0.00    -0.386 OA
ATOM     34  H   UNL     1       5.447  -6.144  27.822  0.00  0.00    +0.210 HD
ENDBRANCH  29  33
BRANCH  28  35
ATOM     35  O   UNL     1       4.903  -7.019  24.987  0.00  0.00    -0.386 OA
ATOM     36  H   UNL     1       3.955  -7.222  25.140  0.00  0.00    +0.210 HD
ENDBRANCH  28  35
BRANCH  27  37
ATOM     37  C   UNL     1       4.311  -5.432  22.878  0.00  0.00    +0.337 C 
ATOM     38  O   UNL     1       3.085  -5.428  22.828  0.00  0.00    -0.248 OA
BRANCH  37  39
ATOM     39  O   UNL     1       5.076  -6.017  21.916  0.00  0.00    -0.479 OA
ATOM     40  H   UNL     1       4.674  -5.844  21.037  0.00  0.00    +0.295 HD
ENDBRANCH  37  39
ENDBRANCH  27  37
ENDBRANCH  24  25
ENDBRANCH  11  24
BRANCH   7  41
ATOM     41  O   UNL     1       6.818   3.988  22.085  0.00  0.00    -0.461 OA
BRANCH  41  42
ATOM     42  C   UNL     1       7.851   4.957  22.391  0.00  0.00    +0.339 C 
ATOM     43  O   UNL     1       8.363   4.698  23.699  0.00  0.00    -0.331 OA
ATOM     44  C   UNL     1       7.435   5.070  24.732  0.00  0.00    +0.179 C 
ATOM     45  C   UNL     1       7.378   6.604  24.775  0.00  0.00    +0.177 C 
ATOM     46  C   UNL     1       6.796   7.105  23.442  0.00  0.00    +0.180 C 
ATOM     47  C   UNL     1       7.495   6.464  22.230  0.00  0.00    +0.214 C 
BRANCH  47  48
ATOM     48  O   UNL     1       6.795   6.749  21.015  0.00  0.00    -0.383 OA
ATOM     49  H   UNL     1       5.907   6.353  21.088  0.00  0.00    +0.210 HD
ENDBRANCH  47  48
BRANCH  46  50
ATOM     50  O   UNL     1       5.382   6.897  23.370  0.00  0.00    -0.386 OA
ATOM     51  H   UNL     1       5.012   6.951  24.269  0.00  0.00    +0.210 HD
ENDBRANCH  46  50
BRANCH  45  52
ATOM     52  O   UNL     1       8.703   7.108  24.974  0.00  0.00    -0.386 OA
ATOM     53  H   UNL     1       8.804   7.388  25.899  0.00  0.00    +0.210 HD
ENDBRANCH  45  52
BRANCH  44  54
ATOM     54  C   UNL     1       7.896   4.449  26.053  0.00  0.00    +0.190 C 
BRANCH  54  55
ATOM     55  O   UNL     1       7.906   5.425  27.104  0.00  0.00    -0.392 OA
ATOM     56  H   UNL     1       8.626   5.206  27.718  0.00  0.00    +0.210 HD
ENDBRANCH  54  55
ENDBRANCH  44  54
ENDBRANCH  41  42
ENDBRANCH   7  41
TORSDOF 18
ENDMDL
MODEL 6
REMARK VINA RESULT:      -6.8      2.071      4.560
REMARK  Name = 
REMARK  18 active torsions:
REMARK  status: ('A' for Active; 'I' for Inactive)
REMARK    1  A    between atoms: C_3  and  O_50
REMARK    2  A    between atoms: C_4  and  O_49
REMARK    3  A    between atoms: C_6  and  C_7
REMARK    4  A    between atoms: C_8  and  O_34
REMARK    5  A    between atoms: C_12  and  O_33
REMARK    6  A    between atoms: C_14  and  O_18
REMARK    7  A    between atoms: O_18  and  C_19
REMARK    8  A    between atoms: C_21  and  O_32
REMARK    9  A    between atoms: C_22  and  O_31
REMARK   10  A    between atoms: C_24  and  O_30
REMARK   11  A    between atoms: C_26  and  C_28
REMARK   12  A    between atoms: C_28  and  O_29
REMARK   13  A    between atoms: O_34  and  C_35
REMARK   14  A    between atoms: C_37  and  O_48
REMARK   15  A    between atoms: C_38  and  O_47
REMARK   16  A    between atoms: C_39  and  O_46
REMARK   17  A    between atoms: C_41  and  C_43
REMARK   18  A    between atoms: C_43  and  O_45
REMARK                            x       y       z     vdW  Elec       q    Type
REMARK                         _______ _______ _______ _____ _____    ______ ____
ROOT
ATOM      1  C   UNL     1       6.973   0.413  25.201  0.00  0.00    +0.181 A 
ATOM      2  O   UNL     1       6.549  -0.921  25.187  0.00  0.00    -0.451 OA
ATOM      3  C   UNL     1       5.430  -1.298  25.882  0.00  0.00    +0.147 A 
ATOM      4  C   UNL     1       4.735  -0.380  26.685  0.00  0.00    +0.109 A 
ATOM      5  C   UNL     1       3.625  -0.819  27.388  0.00  0.00    +0.135 A 
ATOM      6  C   UNL     1       3.183  -2.150  27.280  0.00  0.00    +0.092 A 
ATOM      7  C   UNL     1       3.877  -3.087  26.502  0.00  0.00    +0.131 A 
ATOM      8  C   UNL     1       5.183   1.021  26.711  0.00  0.00    +0.238 A 
ATOM      9  O   UNL     1       4.594   1.842  27.413  0.00  0.00    -0.283 OA
ATOM     10  C   UNL     1       5.003  -2.644  25.787  0.00  0.00    +0.093 A 
ATOM     11  C   UNL     1       6.341   1.415  25.861  0.00  0.00    +0.214 A 
ENDROOT
BRANCH   1  13
ATOM     12  C   UNL     1       9.412   0.998  24.707  0.00  0.00    +0.015 A 
ATOM     13  C   UNL     1       8.115   0.670  24.268  0.00  0.00    +0.025 A 
ATOM     14  C   UNL     1       7.885   0.729  22.889  0.00  0.00    +0.060 A 
ATOM     15  C   UNL     1       8.825   1.315  22.054  0.00  0.00    +0.159 A 
ATOM     16  C   UNL     1      10.000   1.856  22.563  0.00  0.00    +0.158 A 
ATOM     17  C   UNL     1      10.330   1.653  23.885  0.00  0.00    +0.050 A 
BRANCH  16  18
ATOM     18  O   UNL     1      10.790   2.590  21.728  0.00  0.00    -0.503 OA
ATOM     19  H   UNL     1      10.245   2.856  20.965  0.00  0.00    +0.292 HD
ENDBRANCH  16  18
BRANCH  15  20
ATOM     20  O   UNL     1       8.559   1.408  20.719  0.00  0.00    -0.503 OA
ATOM     21  H   UNL     1       8.853   2.308  20.477  0.00  0.00    +0.292 HD
ENDBRANCH  15  20
ENDBRANCH   1  13
BRANCH   5  22
ATOM     22  O   UNL     1       2.901  -0.044  28.252  0.00  0.00    -0.506 OA
ATOM     23  H   UNL     1       1.961  -0.086  27.984  0.00  0.00    +0.292 HD
ENDBRANCH   5  22
BRANCH  11  24
ATOM     24  O   UNL     1       6.853   2.698  25.947  0.00  0.00    -0.453 OA
BRANCH  24  25
ATOM     25  C   UNL     1       6.419   3.779  25.096  0.00  0.00    +0.340 C 
ATOM     26  O   UNL     1       7.445   4.178  24.142  0.00  0.00    -0.322 OA
ATOM     27  C   UNL     1       8.640   4.826  24.660  0.00  0.00    +0.261 C 
ATOM     28  C   UNL     1       8.509   5.699  25.924  0.00  0.00    +0.185 C 
ATOM     29  C   UNL     1       7.372   5.239  26.831  0.00  0.00    +0.180 C 
ATOM     30  C   UNL     1       6.127   5.029  25.945  0.00  0.00    +0.214 C 
BRANCH  30  31
ATOM     31  O   UNL     1       4.932   4.996  26.710  0.00  0.00    -0.383 OA
ATOM     32  H   UNL     1       4.156   4.977  26.109  0.00  0.00    +0.210 HD
ENDBRANCH  30  31
BRANCH  29  33
ATOM     33  O   UNL     1       7.176   6.237  27.841  0.00  0.00    -0.386 OA
ATOM     34  H   UNL     1       6.435   5.924  28.394  0.00  0.00    +0.210 HD
ENDBRANCH  29  33
BRANCH  28  35
ATOM     35  O   UNL     1       8.228   7.072  25.597  0.00  0.00    -0.386 OA
ATOM     36  H   UNL     1       9.069   7.417  25.228  0.00  0.00    +0.210 HD
ENDBRANCH  28  35
BRANCH  27  37
ATOM     37  C   UNL     1       9.267   5.663  23.536  0.00  0.00    +0.337 C 
ATOM     38  O   UNL     1       8.702   6.573  22.936  0.00  0.00    -0.248 OA
BRANCH  37  39
ATOM     39  O   UNL     1      10.554   5.308  23.271  0.00  0.00    -0.479 OA
ATOM     40  H   UNL     1      10.716   4.404  23.616  0.00  0.00    +0.295 HD
ENDBRANCH  37  39
ENDBRANCH  27  37
ENDBRANCH  24  25
ENDBRANCH  11  24
BRANCH   7  41
ATOM     41  O   UNL     1       3.531  -4.437  26.412  0.00  0.00    -0.461 OA
BRANCH  41  42
ATOM     42  C   UNL     1       3.944  -5.054  25.168  0.00  0.00    +0.339 C 
ATOM     43  O   UNL     1       2.892  -4.927  24.210  0.00  0.00    -0.331 OA
ATOM     44  C   UNL     1       1.783  -5.795  24.499  0.00  0.00    +0.179 C 
ATOM     45  C   UNL     1       2.231  -7.234  24.204  0.00  0.00    +0.177 C 
ATOM     46  C   UNL     1       3.360  -7.601  25.182  0.00  0.00    +0.180 C 
ATOM     47  C   UNL     1       4.456  -6.523  25.229  0.00  0.00    +0.214 C 
BRANCH  47  48
ATOM     48  O   UNL     1       5.370  -6.755  26.305  0.00  0.00    -0.383 OA
ATOM     49  H   UNL     1       6.036  -6.044  26.283  0.00  0.00    +0.210 HD
ENDBRANCH  47  48
BRANCH  46  50
ATOM     50  O   UNL     1       2.857  -7.859  26.497  0.00  0.00    -0.386 OA
ATOM     51  H   UNL     1       3.452  -7.445  27.147  0.00  0.00    +0.210 HD
ENDBRANCH  46  50
BRANCH  45  52
ATOM     52  O   UNL     1       2.687  -7.305  22.850  0.00  0.00    -0.386 OA
ATOM     53  H   UNL     1       1.995  -7.707  22.298  0.00  0.00    +0.210 HD
ENDBRANCH  45  52
BRANCH  44  54
ATOM     54  C   UNL     1       0.582  -5.355  23.659  0.00  0.00    +0.190 C 
BRANCH  54  55
ATOM     55  O   UNL     1       0.914  -5.327  22.264  0.00  0.00    -0.392 OA
ATOM     56  H   UNL     1       1.880  -5.284  22.179  0.00  0.00    +0.210 HD
ENDBRANCH  54  55
ENDBRANCH  44  54
ENDBRANCH  41  42
ENDBRANCH   7  41
TORSDOF 18
ENDMDL
MODEL 7
REMARK VINA RESULT:      -6.7      2.397     10.444
REMARK  Name = 
REMARK  18 active torsions:
REMARK  status: ('A' for Active; 'I' for Inactive)
REMARK    1  A    between atoms: C_3  and  O_50
REMARK    2  A    between atoms: C_4  and  O_49
REMARK    3  A    between atoms: C_6  and  C_7
REMARK    4  A    between atoms: C_8  and  O_34
REMARK    5  A    between atoms: C_12  and  O_33
REMARK    6  A    between atoms: C_14  and  O_18
REMARK    7  A    between atoms: O_18  and  C_19
REMARK    8  A    between atoms: C_21  and  O_32
REMARK    9  A    between atoms: C_22  and  O_31
REMARK   10  A    between atoms: C_24  and  O_30
REMARK   11  A    between atoms: C_26  and  C_28
REMARK   12  A    between atoms: C_28  and  O_29
REMARK   13  A    between atoms: O_34  and  C_35
REMARK   14  A    between atoms: C_37  and  O_48
REMARK   15  A    between atoms: C_38  and  O_47
REMARK   16  A    between atoms: C_39  and  O_46
REMARK   17  A    between atoms: C_41  and  C_43
REMARK   18  A    between atoms: C_43  and  O_45
REMARK                            x       y       z     vdW  Elec       q    Type
REMARK                         _______ _______ _______ _____ _____    ______ ____
ROOT
ATOM      1  C   UNL     1       6.981  -1.822  24.140  0.00  0.00    +0.181 A 
ATOM      2  O   UNL     1       7.195  -0.577  23.539  0.00  0.00    -0.451 OA
ATOM      3  C   UNL     1       7.384   0.540  24.310  0.00  0.00    +0.147 A 
ATOM      4  C   UNL     1       7.286   0.477  25.708  0.00  0.00    +0.109 A 
ATOM      5  C   UNL     1       7.459   1.642  26.439  0.00  0.00    +0.135 A 
ATOM      6  C   UNL     1       7.757   2.858  25.798  0.00  0.00    +0.092 A 
ATOM      7  C   UNL     1       7.836   2.945  24.402  0.00  0.00    +0.131 A 
ATOM      8  C   UNL     1       7.050  -0.828  26.345  0.00  0.00    +0.238 A 
ATOM      9  O   UNL     1       6.953  -0.906  27.569  0.00  0.00    -0.283 OA
ATOM     10  C   UNL     1       7.661   1.766  23.658  0.00  0.00    +0.093 A 
ATOM     11  C   UNL     1       6.953  -2.035  25.480  0.00  0.00    +0.214 A 
ENDROOT
BRANCH   1  13
ATOM     12  C   UNL     1       5.995  -3.046  22.125  0.00  0.00    +0.015 A 
ATOM     13  C   UNL     1       6.949  -2.948  23.154  0.00  0.00    +0.025 A 
ATOM     14  C   UNL     1       7.811  -4.039  23.319  0.00  0.00    +0.060 A 
ATOM     15  C   UNL     1       7.555  -5.229  22.655  0.00  0.00    +0.159 A 
ATOM     16  C   UNL     1       6.448  -5.366  21.826  0.00  0.00    +0.158 A 
ATOM     17  C   UNL     1       5.689  -4.261  21.509  0.00  0.00    +0.050 A 
BRANCH  16  18
ATOM     18  O   UNL     1       6.138  -6.610  21.359  0.00  0.00    -0.503 OA
ATOM     19  H   UNL     1       6.597  -6.727  20.507  0.00  0.00    +0.292 HD
ENDBRANCH  16  18
BRANCH  15  20
ATOM     20  O   UNL     1       8.378  -6.296  22.868  0.00  0.00    -0.503 OA
ATOM     21  H   UNL     1       8.273  -6.845  22.066  0.00  0.00    +0.292 HD
ENDBRANCH  15  20
ENDBRANCH   1  13
BRANCH   5  22
ATOM     22  O   UNL     1       7.326   1.728  27.798  0.00  0.00    -0.506 OA
ATOM     23  H   UNL     1       8.222   1.752  28.190  0.00  0.00    +0.292 HD
ENDBRANCH   5  22
BRANCH  11  24
ATOM     24  O   UNL     1       6.624  -3.258  26.039  0.00  0.00    -0.453 OA
BRANCH  24  25
ATOM     25  C   UNL     1       5.373  -3.507  26.713  0.00  0.00    +0.340 C 
ATOM     26  O   UNL     1       5.562  -4.088  28.035  0.00  0.00    -0.322 OA
ATOM     27  C   UNL     1       6.080  -5.446  28.112  0.00  0.00    +0.261 C 
ATOM     28  C   UNL     1       5.726  -6.429  26.979  0.00  0.00    +0.185 C 
ATOM     29  C   UNL     1       5.489  -5.722  25.649  0.00  0.00    +0.180 C 
ATOM     30  C   UNL     1       4.544  -4.532  25.918  0.00  0.00    +0.214 C 
BRANCH  30  31
ATOM     31  O   UNL     1       3.942  -4.053  24.725  0.00  0.00    -0.383 OA
ATOM     32  H   UNL     1       4.388  -4.454  23.947  0.00  0.00    +0.210 HD
ENDBRANCH  30  31
BRANCH  29  33
ATOM     33  O   UNL     1       4.940  -6.673  24.729  0.00  0.00    -0.386 OA
ATOM     34  H   UNL     1       4.384  -6.164  24.109  0.00  0.00    +0.210 HD
ENDBRANCH  29  33
BRANCH  28  35
ATOM     35  O   UNL     1       4.517  -7.157  27.264  0.00  0.00    -0.386 OA
ATOM     36  H   UNL     1       4.177  -6.760  28.094  0.00  0.00    +0.210 HD
ENDBRANCH  28  35
BRANCH  27  37
ATOM     37  C   UNL     1       5.653  -6.054  29.456  0.00  0.00    +0.337 C 
ATOM     38  O   UNL     1       4.709  -5.666  30.137  0.00  0.00    -0.248 OA
BRANCH  37  39
ATOM     39  O   UNL     1       6.429  -7.110  29.824  0.00  0.00    -0.479 OA
ATOM     40  H   UNL     1       6.189  -7.382  30.736  0.00  0.00    +0.295 HD
ENDBRANCH  37  39
ENDBRANCH  27  37
ENDBRANCH  24  25
ENDBRANCH  11  24
BRANCH   7  41
ATOM     41  O   UNL     1       8.055   4.135  23.705  0.00  0.00    -0.461 OA
BRANCH  41  42
ATOM     42  C   UNL     1       7.261   5.243  24.197  0.00  0.00    +0.339 C 
ATOM     43  O   UNL     1       5.877   4.903  24.107  0.00  0.00    -0.331 OA
ATOM     44  C   UNL     1       5.400   4.909  22.750  0.00  0.00    +0.179 C 
ATOM     45  C   UNL     1       5.339   6.371  22.286  0.00  0.00    +0.177 C 
ATOM     46  C   UNL     1       6.770   6.934  22.266  0.00  0.00    +0.180 C 
ATOM     47  C   UNL     1       7.522   6.647  23.577  0.00  0.00    +0.214 C 
BRANCH  47  48
ATOM     48  O   UNL     1       8.914   6.958  23.458  0.00  0.00    -0.383 OA
ATOM     49  H   UNL     1       9.415   6.165  23.725  0.00  0.00    +0.210 HD
ENDBRANCH  47  48
BRANCH  46  50
ATOM     50  O   UNL     1       7.515   6.444  21.146  0.00  0.00    -0.386 OA
ATOM     51  H   UNL     1       7.117   5.608  20.846  0.00  0.00    +0.210 HD
ENDBRANCH  46  50
BRANCH  45  52
ATOM     52  O   UNL     1       4.515   7.108  23.195  0.00  0.00    -0.386 OA
ATOM     53  H   UNL     1       3.584   6.864  23.055  0.00  0.00    +0.210 HD
ENDBRANCH  45  52
BRANCH  44  54
ATOM     54  C   UNL     1       4.041   4.206  22.704  0.00  0.00    +0.190 C 
BRANCH  54  55
ATOM     55  O   UNL     1       3.217   4.749  21.663  0.00  0.00    -0.392 OA
ATOM     56  H   UNL     1       3.786   5.234  21.043  0.00  0.00    +0.210 HD
ENDBRANCH  54  55
ENDBRANCH  44  54
ENDBRANCH  41  42
ENDBRANCH   7  41
TORSDOF 18
ENDMDL
MODEL 8
REMARK VINA RESULT:      -6.6      2.533      5.034
REMARK  Name = 
REMARK  18 active torsions:
REMARK  status: ('A' for Active; 'I' for Inactive)
REMARK    1  A    between atoms: C_3  and  O_50
REMARK    2  A    between atoms: C_4  and  O_49
REMARK    3  A    between atoms: C_6  and  C_7
REMARK    4  A    between atoms: C_8  and  O_34
REMARK    5  A    between atoms: C_12  and  O_33
REMARK    6  A    between atoms: C_14  and  O_18
REMARK    7  A    between atoms: O_18  and  C_19
REMARK    8  A    between atoms: C_21  and  O_32
REMARK    9  A    between atoms: C_22  and  O_31
REMARK   10  A    between atoms: C_24  and  O_30
REMARK   11  A    between atoms: C_26  and  C_28
REMARK   12  A    between atoms: C_28  and  O_29
REMARK   13  A    between atoms: O_34  and  C_35
REMARK   14  A    between atoms: C_37  and  O_48
REMARK   15  A    between atoms: C_38  and  O_47
REMARK   16  A    between atoms: C_39  and  O_46
REMARK   17  A    between atoms: C_41  and  C_43
REMARK   18  A    between atoms: C_43  and  O_45
REMARK                            x       y       z     vdW  Elec       q    Type
REMARK                         _______ _______ _______ _____ _____    ______ ____
ROOT
ATOM      1  C   UNL     1       7.388   0.933  25.881  0.00  0.00    +0.181 A 
ATOM      2  O   UNL     1       6.812  -0.333  26.043  0.00  0.00    -0.451 OA
ATOM      3  C   UNL     1       5.836  -0.533  26.984  0.00  0.00    +0.147 A 
ATOM      4  C   UNL     1       5.453   0.497  27.857  0.00  0.00    +0.109 A 
ATOM      5  C   UNL     1       4.479   0.233  28.808  0.00  0.00    +0.135 A 
ATOM      6  C   UNL     1       3.866  -1.031  28.881  0.00  0.00    +0.092 A 
ATOM      7  C   UNL     1       4.252  -2.078  28.034  0.00  0.00    +0.131 A 
ATOM      8  C   UNL     1       6.062   1.825  27.697  0.00  0.00    +0.238 A 
ATOM      9  O   UNL     1       5.746   2.742  28.456  0.00  0.00    -0.283 OA
ATOM     10  C   UNL     1       5.238  -1.814  27.068  0.00  0.00    +0.093 A 
ATOM     11  C   UNL     1       7.043   2.032  26.597  0.00  0.00    +0.214 A 
ENDROOT
BRANCH   1  13
ATOM     12  C   UNL     1       9.717   1.112  24.842  0.00  0.00    +0.015 A 
ATOM     13  C   UNL     1       8.319   1.004  24.712  0.00  0.00    +0.025 A 
ATOM     14  C   UNL     1       7.799   1.106  23.416  0.00  0.00    +0.060 A 
ATOM     15  C   UNL     1       8.612   1.533  22.376  0.00  0.00    +0.159 A 
ATOM     16  C   UNL     1       9.942   1.871  22.596  0.00  0.00    +0.158 A 
ATOM     17  C   UNL     1      10.522   1.611  23.818  0.00  0.00    +0.050 A 
BRANCH  16  18
ATOM     18  O   UNL     1      10.634   2.470  21.583  0.00  0.00    -0.503 OA
ATOM     19  H   UNL     1      11.579   2.273  21.716  0.00  0.00    +0.292 HD
ENDBRANCH  16  18
BRANCH  15  20
ATOM     20  O   UNL     1       8.073   1.676  21.131  0.00  0.00    -0.503 OA
ATOM     21  H   UNL     1       8.243   0.817  20.695  0.00  0.00    +0.292 HD
ENDBRANCH  15  20
ENDBRANCH   1  13
BRANCH   5  22
ATOM     22  O   UNL     1       4.063   1.128  29.755  0.00  0.00    -0.506 OA
ATOM     23  H   UNL     1       4.848   1.615  30.078  0.00  0.00    +0.292 HD
ENDBRANCH   5  22
BRANCH  11  24
ATOM     24  O   UNL     1       7.714   3.239  26.490  0.00  0.00    -0.453 OA
BRANCH  24  25
ATOM     25  C   UNL     1       7.043   4.499  26.279  0.00  0.00    +0.340 C 
ATOM     26  O   UNL     1       6.077   4.436  25.191  0.00  0.00    -0.322 OA
ATOM     27  C   UNL     1       6.587   4.275  23.838  0.00  0.00    +0.261 C 
ATOM     28  C   UNL     1       7.960   4.889  23.496  0.00  0.00    +0.185 C 
ATOM     29  C   UNL     1       8.879   4.966  24.711  0.00  0.00    +0.180 C 
ATOM     30  C   UNL     1       8.065   5.575  25.872  0.00  0.00    +0.214 C 
BRANCH  30  31
ATOM     31  O   UNL     1       8.904   6.060  26.909  0.00  0.00    -0.383 OA
ATOM     32  H   UNL     1       9.509   5.347  27.206  0.00  0.00    +0.210 HD
ENDBRANCH  30  31
BRANCH  29  33
ATOM     33  O   UNL     1      10.021   5.756  24.357  0.00  0.00    -0.386 OA
ATOM     34  H   UNL     1      10.721   5.126  24.099  0.00  0.00    +0.210 HD
ENDBRANCH  29  33
BRANCH  28  35
ATOM     35  O   UNL     1       7.834   6.236  23.006  0.00  0.00    -0.386 OA
ATOM     36  H   UNL     1       7.123   6.190  22.331  0.00  0.00    +0.210 HD
ENDBRANCH  28  35
BRANCH  27  37
ATOM     37  C   UNL     1       5.539   4.815  22.854  0.00  0.00    +0.337 C 
ATOM     38  O   UNL     1       4.991   5.910  22.939  0.00  0.00    -0.248 OA
BRANCH  37  39
ATOM     39  O   UNL     1       5.280   3.950  21.836  0.00  0.00    -0.479 OA
ATOM     40  H   UNL     1       4.443   4.214  21.395  0.00  0.00    +0.295 HD
ENDBRANCH  37  39
ENDBRANCH  27  37
ENDBRANCH  24  25
ENDBRANCH  11  24
BRANCH   7  41
ATOM     41  O   UNL     1       3.734  -3.372  28.106  0.00  0.00    -0.461 OA
BRANCH  41  42
ATOM     42  C   UNL     1       4.450  -4.227  29.031  0.00  0.00    +0.339 C 
ATOM     43  O   UNL     1       5.690  -4.619  28.442  0.00  0.00    -0.331 OA
ATOM     44  C   UNL     1       5.515  -5.579  27.386  0.00  0.00    +0.179 C 
ATOM     45  C   UNL     1       5.103  -6.910  28.032  0.00  0.00    +0.177 C 
ATOM     46  C   UNL     1       3.732  -6.718  28.704  0.00  0.00    +0.180 C 
ATOM     47  C   UNL     1       3.696  -5.466  29.596  0.00  0.00    +0.214 C 
BRANCH  47  48
ATOM     48  O   UNL     1       2.363  -5.167  30.021  0.00  0.00    -0.383 OA
ATOM     49  H   UNL     1       1.986  -5.982  30.401  0.00  0.00    +0.210 HD
ENDBRANCH  47  48
BRANCH  46  50
ATOM     50  O   UNL     1       2.673  -6.676  27.742  0.00  0.00    -0.386 OA
ATOM     51  H   UNL     1       2.039  -7.388  27.942  0.00  0.00    +0.210 HD
ENDBRANCH  46  50
BRANCH  45  52
ATOM     52  O   UNL     1       6.094  -7.279  28.995  0.00  0.00    -0.386 OA
ATOM     53  H   UNL     1       6.859  -6.684  28.913  0.00  0.00    +0.210 HD
ENDBRANCH  45  52
BRANCH  44  54
ATOM     54  C   UNL     1       6.817  -5.676  26.588  0.00  0.00    +0.190 C 
BRANCH  54  55
ATOM     55  O   UNL     1       7.945  -5.826  27.461  0.00  0.00    -0.392 OA
ATOM     56  H   UNL     1       8.743  -5.551  26.980  0.00  0.00    +0.210 HD
ENDBRANCH  54  55
ENDBRANCH  44  54
ENDBRANCH  41  42
ENDBRANCH   7  41
TORSDOF 18
ENDMDL
MODEL 9
REMARK VINA RESULT:      -6.5      1.194      2.305
REMARK  Name = 
REMARK  18 active torsions:
REMARK  status: ('A' for Active; 'I' for Inactive)
REMARK    1  A    between atoms: C_3  and  O_50
REMARK    2  A    between atoms: C_4  and  O_49
REMARK    3  A    between atoms: C_6  and  C_7
REMARK    4  A    between atoms: C_8  and  O_34
REMARK    5  A    between atoms: C_12  and  O_33
REMARK    6  A    between atoms: C_14  and  O_18
REMARK    7  A    between atoms: O_18  and  C_19
REMARK    8  A    between atoms: C_21  and  O_32
REMARK    9  A    between atoms: C_22  and  O_31
REMARK   10  A    between atoms: C_24  and  O_30
REMARK   11  A    between atoms: C_26  and  C_28
REMARK   12  A    between atoms: C_28  and  O_29
REMARK   13  A    between atoms: O_34  and  C_35
REMARK   14  A    between atoms: C_37  and  O_48
REMARK   15  A    between atoms: C_38  and  O_47
REMARK   16  A    between atoms: C_39  and  O_46
REMARK   17  A    between atoms: C_41  and  C_43
REMARK   18  A    between atoms: C_43  and  O_45
REMARK                            x       y       z     vdW  Elec       q    Type
REMARK                         _______ _______ _______ _____ _____    ______ ____
ROOT
ATOM      1  C   UNL     1       6.904   1.216  25.174  0.00  0.00    +0.181 A 
ATOM      2  O   UNL     1       5.892   0.252  25.251  0.00  0.00    -0.451 OA
ATOM      3  C   UNL     1       6.096  -1.007  24.748  0.00  0.00    +0.147 A 
ATOM      4  C   UNL     1       7.283  -1.332  24.075  0.00  0.00    +0.109 A 
ATOM      5  C   UNL     1       7.427  -2.611  23.562  0.00  0.00    +0.135 A 
ATOM      6  C   UNL     1       6.418  -3.575  23.736  0.00  0.00    +0.092 A 
ATOM      7  C   UNL     1       5.216  -3.263  24.385  0.00  0.00    +0.131 A 
ATOM      8  C   UNL     1       8.346  -0.319  23.982  0.00  0.00    +0.238 A 
ATOM      9  O   UNL     1       9.393  -0.579  23.390  0.00  0.00    -0.283 OA
ATOM     10  C   UNL     1       5.067  -1.967  24.906  0.00  0.00    +0.093 A 
ATOM     11  C   UNL     1       8.129   1.003  24.631  0.00  0.00    +0.214 A 
ENDROOT
BRANCH   1  13
ATOM     12  C   UNL     1       7.160   2.844  27.128  0.00  0.00    +0.015 A 
ATOM     13  C   UNL     1       6.566   2.476  25.906  0.00  0.00    +0.025 A 
ATOM     14  C   UNL     1       5.515   3.282  25.451  0.00  0.00    +0.060 A 
ATOM     15  C   UNL     1       4.956   4.231  26.293  0.00  0.00    +0.159 A 
ATOM     16  C   UNL     1       5.416   4.397  27.594  0.00  0.00    +0.158 A 
ATOM     17  C   UNL     1       6.557   3.745  28.006  0.00  0.00    +0.050 A 
BRANCH  16  18
ATOM     18  O   UNL     1       4.703   5.201  28.435  0.00  0.00    -0.503 OA
ATOM     19  H   UNL     1       4.052   4.641  28.897  0.00  0.00    +0.292 HD
ENDBRANCH  16  18
BRANCH  15  20
ATOM     20  O   UNL     1       3.900   4.971  25.848  0.00  0.00    -0.503 OA
ATOM     21  H   UNL     1       4.176   5.898  25.996  0.00  0.00    +0.292 HD
ENDBRANCH  15  20
ENDBRANCH   1  13
BRANCH   5  22
ATOM     22  O   UNL     1       8.505  -3.034  22.833  0.00  0.00    -0.506 OA
ATOM     23  H   UNL     1       9.316  -2.827  23.341  0.00  0.00    +0.292 HD
ENDBRANCH   5  22
BRANCH  11  24
ATOM     24  O   UNL     1       9.063   2.012  24.467  0.00  0.00    -0.453 OA
BRANCH  24  25
ATOM     25  C   UNL     1       9.454   2.524  23.176  0.00  0.00    +0.340 C 
ATOM     26  O   UNL     1      10.798   3.083  23.186  0.00  0.00    -0.322 OA
ATOM     27  C   UNL     1      11.019   4.309  23.939  0.00  0.00    +0.261 C 
ATOM     28  C   UNL     1       9.859   5.319  24.048  0.00  0.00    +0.185 C 
ATOM     29  C   UNL     1       8.493   4.646  23.968  0.00  0.00    +0.180 C 
ATOM     30  C   UNL     1       8.522   3.678  22.766  0.00  0.00    +0.214 C 
BRANCH  30  31
ATOM     31  O   UNL     1       7.215   3.307  22.355  0.00  0.00    -0.383 OA
ATOM     32  H   UNL     1       7.251   2.919  21.454  0.00  0.00    +0.210 HD
ENDBRANCH  30  31
BRANCH  29  33
ATOM     33  O   UNL     1       7.498   5.669  23.838  0.00  0.00    -0.386 OA
ATOM     34  H   UNL     1       6.635   5.222  23.924  0.00  0.00    +0.210 HD
ENDBRANCH  29  33
BRANCH  28  35
ATOM     35  O   UNL     1       9.891   6.283  22.980  0.00  0.00    -0.386 OA
ATOM     36  H   UNL     1      10.605   5.971  22.384  0.00  0.00    +0.210 HD
ENDBRANCH  28  35
BRANCH  27  37
ATOM     37  C   UNL     1      12.251   5.020  23.363  0.00  0.00    +0.337 C 
ATOM     38  O   UNL     1      12.677   4.877  22.221  0.00  0.00    -0.248 OA
BRANCH  37  39
ATOM     39  O   UNL     1      12.834   5.868  24.254  0.00  0.00    -0.479 OA
ATOM     40  H   UNL     1      12.927   6.753  23.842  0.00  0.00    +0.295 HD
ENDBRANCH  37  39
ENDBRANCH  27  37
ENDBRANCH  24  25
ENDBRANCH  11  24
BRANCH   7  41
ATOM     41  O   UNL     1       4.150  -4.153  24.524  0.00  0.00    -0.461 OA
BRANCH  41  42
ATOM     42  C   UNL     1       4.563  -5.542  24.554  0.00  0.00    +0.339 C 
ATOM     43  O   UNL     1       3.683  -6.310  23.731  0.00  0.00    -0.331 OA
ATOM     44  C   UNL     1       2.386  -6.479  24.327  0.00  0.00    +0.179 C 
ATOM     45  C   UNL     1       2.541  -7.445  25.510  0.00  0.00    +0.177 C 
ATOM     46  C   UNL     1       3.440  -6.778  26.565  0.00  0.00    +0.180 C 
ATOM     47  C   UNL     1       4.732  -6.213  25.949  0.00  0.00    +0.214 C 
BRANCH  47  48
ATOM     48  O   UNL     1       5.440  -5.393  26.884  0.00  0.00    -0.383 OA
ATOM     49  H   UNL     1       5.620  -5.937  27.673  0.00  0.00    +0.210 HD
ENDBRANCH  47  48
BRANCH  46  50
ATOM     50  O   UNL     1       2.743  -5.756  27.286  0.00  0.00    -0.386 OA
ATOM     51  H   UNL     1       3.383  -5.082  27.572  0.00  0.00    +0.210 HD
ENDBRANCH  46  50
BRANCH  45  52
ATOM     52  O   UNL     1       3.127  -8.661  25.037  0.00  0.00    -0.386 OA
ATOM     53  H   UNL     1       3.682  -9.044  25.738  0.00  0.00    +0.210 HD
ENDBRANCH  45  52
BRANCH  44  54
ATOM     54  C   UNL     1       1.417  -6.990  23.258  0.00  0.00    +0.190 C 
BRANCH  54  55
ATOM     55  O   UNL     1       2.038  -7.987  22.435  0.00  0.00    -0.392 OA
ATOM     56  H   UNL     1       1.969  -7.706  21.508  0.00  0.00    +0.210 HD
ENDBRANCH  54  55
ENDBRANCH  44  54
ENDBRANCH  41  42
ENDBRANCH   7  41
TORSDOF 18
ENDMDL
