MODEL 1
REMARK VINA RESULT:      -7.5      0.000      0.000
REMARK  Name = 
REMARK  12 active torsions:
REMARK  status: ('A' for Active; 'I' for Inactive)
REMARK    1  A    between atoms: C_3  and  O_37
REMARK    2  A    between atoms: C_4  and  O_36
REMARK    3  A    between atoms: C_6  and  C_7
REMARK    4  A    between atoms: C_8  and  O_20
REMARK    5  A    between atoms: C_12  and  O_19
REMARK    6  A    between atoms: C_14  and  O_18
REMARK    7  A    between atoms: O_20  and  C_21
REMARK    8  A    between atoms: C_22  and  O_35
REMARK    9  A    between atoms: C_24  and  O_34
REMARK   10  A    between atoms: C_26  and  O_33
REMARK   11  A    between atoms: C_28  and  C_31
REMARK   12  A    between atoms: C_31  and  O_32
REMARK                            x       y       z     vdW  Elec       q    Type
REMARK                         _______ _______ _______ _____ _____    ______ ____
ROOT
ATOM      1  C   UNL     1       8.061  -1.947  24.817  0.00  0.00    +0.181 A 
ATOM      2  O   UNL     1       8.330  -0.691  25.375  0.00  0.00    -0.451 OA
ATOM      3  C   UNL     1       8.439   0.396  24.538  0.00  0.00    +0.147 A 
ATOM      4  C   UNL     1       8.595   0.247  23.168  0.00  0.00    +0.109 A 
ATOM      5  C   UNL     1       8.758   1.358  22.329  0.00  0.00    +0.135 A 
ATOM      6  C   UNL     1       8.734   2.638  22.857  0.00  0.00    +0.091 A 
ATOM      7  C   UNL     1       8.565   2.789  24.232  0.00  0.00    +0.124 A 
ATOM      8  C   UNL     1       8.603  -1.099  22.623  0.00  0.00    +0.238 A 
ATOM      9  O   UNL     1       9.056  -1.245  21.492  0.00  0.00    -0.283 OA
ATOM     10  C   UNL     1       8.425   1.681  25.078  0.00  0.00    +0.092 A 
ATOM     11  C   UNL     1       8.108  -2.212  23.482  0.00  0.00    +0.214 A 
ENDROOT
BRANCH   1  13
ATOM     12  C   UNL     1       8.760  -4.095  25.952  0.00  0.00    +0.015 A 
ATOM     13  C   UNL     1       7.854  -3.015  25.831  0.00  0.00    +0.025 A 
ATOM     14  C   UNL     1       6.715  -3.022  26.646  0.00  0.00    +0.060 A 
ATOM     15  C   UNL     1       6.436  -4.116  27.455  0.00  0.00    +0.159 A 
ATOM     16  C   UNL     1       7.294  -5.213  27.505  0.00  0.00    +0.158 A 
ATOM     17  C   UNL     1       8.479  -5.195  26.784  0.00  0.00    +0.050 A 
BRANCH  15  18
ATOM     18  O   UNL     1       5.281  -4.122  28.183  0.00  0.00    -0.503 OA
ATOM     19  H   UNL     1       4.742  -4.841  27.797  0.00  0.00    +0.292 HD
ENDBRANCH  15  18
BRANCH  16  20
ATOM     20  O   UNL     1       6.908  -6.285  28.261  0.00  0.00    -0.503 OA
ATOM     21  H   UNL     1       7.703  -6.723  28.608  0.00  0.00    +0.292 HD
ENDBRANCH  16  20
ENDBRANCH   1  13
BRANCH   5  22
ATOM     22  O   UNL     1       8.944   1.257  20.977  0.00  0.00    -0.506 OA
ATOM     23  H   UNL     1       9.899   1.398  20.785  0.00  0.00    +0.292 HD
ENDBRANCH   5  22
BRANCH   7  24
ATOM     24  O   UNL     1       8.532   4.035  24.789  0.00  0.00    -0.507 OA
ATOM     25  H   UNL     1       7.900   4.585  24.293  0.00  0.00    +0.292 HD
ENDBRANCH   7  24
BRANCH  11  26
ATOM     26  O   UNL     1       7.759  -3.459  22.953  0.00  0.00    -0.453 OA
BRANCH  26  27
ATOM     27  C   UNL     1       6.698  -3.505  21.983  0.00  0.00    +0.340 C 
ATOM     28  O   UNL     1       5.421  -3.155  22.531  0.00  0.00    -0.331 OA
ATOM     29  C   UNL     1       4.508  -4.145  23.011  0.00  0.00    +0.179 C 
ATOM     30  C   UNL     1       4.759  -5.619  22.615  0.00  0.00    +0.177 C 
ATOM     31  C   UNL     1       6.237  -5.871  22.363  0.00  0.00    +0.180 C 
ATOM     32  C   UNL     1       6.704  -4.878  21.297  0.00  0.00    +0.214 C 
BRANCH  30  33
ATOM     33  O   UNL     1       4.276  -6.554  23.592  0.00  0.00    -0.386 OA
ATOM     34  H   UNL     1       4.346  -6.069  24.442  0.00  0.00    +0.210 HD
ENDBRANCH  30  33
BRANCH  31  35
ATOM     35  O   UNL     1       6.425  -7.237  21.971  0.00  0.00    -0.386 OA
ATOM     36  H   UNL     1       6.421  -7.250  20.997  0.00  0.00    +0.210 HD
ENDBRANCH  31  35
BRANCH  32  37
ATOM     37  O   UNL     1       5.847  -4.917  20.147  0.00  0.00    -0.383 OA
ATOM     38  H   UNL     1       5.244  -4.151  20.181  0.00  0.00    +0.210 HD
ENDBRANCH  32  37
BRANCH  29  39
ATOM     39  C   UNL     1       4.305  -3.924  24.516  0.00  0.00    +0.190 C 
BRANCH  39  40
ATOM     40  O   UNL     1       3.000  -4.309  24.935  0.00  0.00    -0.392 OA
ATOM     41  H   UNL     1       2.624  -4.823  24.186  0.00  0.00    +0.210 HD
ENDBRANCH  39  40
ENDBRANCH  29  39
ENDBRANCH  26  27
ENDBRANCH  11  26
TORSDOF 12
ENDMDL
MODEL 2
REMARK VINA RESULT:      -7.1      1.699      2.583
REMARK  Name = 
REMARK  12 active torsions:
REMARK  status: ('A' for Active; 'I' for Inactive)
REMARK    1  A    between atoms: C_3  and  O_37
REMARK    2  A    between atoms: C_4  and  O_36
REMARK    3  A    between atoms: C_6  and  C_7
REMARK    4  A    between atoms: C_8  and  O_20
REMARK    5  A    between atoms: C_12  and  O_19
REMARK    6  A    between atoms: C_14  and  O_18
REMARK    7  A    between atoms: O_20  and  C_21
REMARK    8  A    between atoms: C_22  and  O_35
REMARK    9  A    between atoms: C_24  and  O_34
REMARK   10  A    between atoms: C_26  and  O_33
REMARK   11  A    between atoms: C_28  and  C_31
REMARK   12  A    between atoms: C_31  and  O_32
REMARK                            x       y       z     vdW  Elec       q    Type
REMARK                         _______ _______ _______ _____ _____    ______ ____
ROOT
ATOM      1  C   UNL     1       7.274  -3.437  25.940  0.00  0.00    +0.181 A 
ATOM      2  O   UNL     1       7.280  -2.137  26.462  0.00  0.00    -0.451 OA
ATOM      3  C   UNL     1       7.976  -1.157  25.793  0.00  0.00    +0.147 A 
ATOM      4  C   UNL     1       8.904  -1.466  24.809  0.00  0.00    +0.109 A 
ATOM      5  C   UNL     1       9.647  -0.464  24.169  0.00  0.00    +0.135 A 
ATOM      6  C   UNL     1       9.440   0.867  24.490  0.00  0.00    +0.091 A 
ATOM      7  C   UNL     1       8.499   1.179  25.469  0.00  0.00    +0.124 A 
ATOM      8  C   UNL     1       9.102  -2.864  24.470  0.00  0.00    +0.238 A 
ATOM      9  O   UNL     1      10.123  -3.155  23.857  0.00  0.00    -0.283 OA
ATOM     10  C   UNL     1       7.771   0.181  26.128  0.00  0.00    +0.092 A 
ATOM     11  C   UNL     1       8.083  -3.853  24.926  0.00  0.00    +0.214 A 
ENDROOT
BRANCH   1  13
ATOM     12  C   UNL     1       4.989  -4.227  26.677  0.00  0.00    +0.015 A 
ATOM     13  C   UNL     1       6.396  -4.374  26.689  0.00  0.00    +0.025 A 
ATOM     14  C   UNL     1       6.942  -5.387  27.489  0.00  0.00    +0.060 A 
ATOM     15  C   UNL     1       6.127  -6.136  28.328  0.00  0.00    +0.159 A 
ATOM     16  C   UNL     1       4.750  -5.926  28.370  0.00  0.00    +0.158 A 
ATOM     17  C   UNL     1       4.167  -4.998  27.520  0.00  0.00    +0.050 A 
BRANCH  15  18
ATOM     18  O   UNL     1       6.699  -7.066  29.147  0.00  0.00    -0.503 OA
ATOM     19  H   UNL     1       6.243  -7.904  28.937  0.00  0.00    +0.292 HD
ENDBRANCH  15  18
BRANCH  16  20
ATOM     20  O   UNL     1       4.027  -6.645  29.282  0.00  0.00    -0.503 OA
ATOM     21  H   UNL     1       4.414  -6.508  30.163  0.00  0.00    +0.292 HD
ENDBRANCH  16  20
ENDBRANCH   1  13
BRANCH   5  22
ATOM     22  O   UNL     1      10.594  -0.725  23.216  0.00  0.00    -0.506 OA
ATOM     23  H   UNL     1      11.467  -0.805  23.661  0.00  0.00    +0.292 HD
ENDBRANCH   5  22
BRANCH   7  24
ATOM     24  O   UNL     1       8.264   2.481  25.809  0.00  0.00    -0.507 OA
ATOM     25  H   UNL     1       7.608   2.504  26.528  0.00  0.00    +0.292 HD
ENDBRANCH   7  24
BRANCH  11  26
ATOM     26  O   UNL     1       7.997  -5.136  24.377  0.00  0.00    -0.453 OA
BRANCH  26  27
ATOM     27  C   UNL     1       7.616  -5.253  22.995  0.00  0.00    +0.340 C 
ATOM     28  O   UNL     1       7.045  -4.049  22.467  0.00  0.00    -0.331 OA
ATOM     29  C   UNL     1       5.632  -3.830  22.442  0.00  0.00    +0.179 C 
ATOM     30  C   UNL     1       4.703  -5.047  22.666  0.00  0.00    +0.177 C 
ATOM     31  C   UNL     1       5.389  -6.105  23.517  0.00  0.00    +0.180 C 
ATOM     32  C   UNL     1       6.704  -6.475  22.828  0.00  0.00    +0.214 C 
BRANCH  30  33
ATOM     33  O   UNL     1       3.448  -4.692  23.267  0.00  0.00    -0.386 OA
ATOM     34  H   UNL     1       3.221  -5.469  23.823  0.00  0.00    +0.210 HD
ENDBRANCH  30  33
BRANCH  31  35
ATOM     35  O   UNL     1       4.510  -7.226  23.678  0.00  0.00    -0.386 OA
ATOM     36  H   UNL     1       3.715  -7.035  23.148  0.00  0.00    +0.210 HD
ENDBRANCH  31  35
BRANCH  32  37
ATOM     37  O   UNL     1       6.486  -6.810  21.450  0.00  0.00    -0.383 OA
ATOM     38  H   UNL     1       6.776  -6.059  20.898  0.00  0.00    +0.210 HD
ENDBRANCH  32  37
BRANCH  29  39
ATOM     39  C   UNL     1       5.315  -2.623  23.335  0.00  0.00    +0.190 C 
BRANCH  39  40
ATOM     40  O   UNL     1       6.019  -1.458  22.919  0.00  0.00    -0.392 OA
ATOM     41  H   UNL     1       6.288  -1.003  23.748  0.00  0.00    +0.210 HD
ENDBRANCH  39  40
ENDBRANCH  29  39
ENDBRANCH  26  27
ENDBRANCH  11  26
TORSDOF 12
ENDMDL
MODEL 3
REMARK VINA RESULT:      -7.1      2.138      6.783
REMARK  Name = 
REMARK  12 active torsions:
REMARK  status: ('A' for Active; 'I' for Inactive)
REMARK    1  A    between atoms: C_3  and  O_37
REMARK    2  A    between atoms: C_4  and  O_36
REMARK    3  A    between atoms: C_6  and  C_7
REMARK    4  A    between atoms: C_8  and  O_20
REMARK    5  A    between atoms: C_12  and  O_19
REMARK    6  A    between atoms: C_14  and  O_18
REMARK    7  A    between atoms: O_20  and  C_21
REMARK    8  A    between atoms: C_22  and  O_35
REMARK    9  A    between atoms: C_24  and  O_34
REMARK   10  A    between atoms: C_26  and  O_33
REMARK   11  A    between atoms: C_28  and  C_31
REMARK   12  A    between atoms: C_31  and  O_32
REMARK                            x       y       z     vdW  Elec       q    Type
REMARK                         _______ _______ _______ _____ _____    ______ ____
ROOT
ATOM      1  C   UNL     1       5.892  -2.086  25.309  0.00  0.00    +0.181 A 
ATOM      2  O   UNL     1       5.155  -3.084  25.959  0.00  0.00    -0.451 OA
ATOM      3  C   UNL     1       4.968  -4.290  25.322  0.00  0.00    +0.147 A 
ATOM      4  C   UNL     1       5.214  -4.444  23.966  0.00  0.00    +0.109 A 
ATOM      5  C   UNL     1       4.971  -5.662  23.316  0.00  0.00    +0.135 A 
ATOM      6  C   UNL     1       4.507  -6.752  24.032  0.00  0.00    +0.091 A 
ATOM      7  C   UNL     1       4.271  -6.603  25.397  0.00  0.00    +0.124 A 
ATOM      8  C   UNL     1       5.716  -3.298  23.228  0.00  0.00    +0.238 A 
ATOM      9  O   UNL     1       5.623  -3.333  22.005  0.00  0.00    -0.283 OA
ATOM     10  C   UNL     1       4.490  -5.381  26.048  0.00  0.00    +0.092 A 
ATOM     11  C   UNL     1       6.262  -2.145  23.999  0.00  0.00    +0.214 A 
ENDROOT
BRANCH   1  13
ATOM     12  C   UNL     1       5.359   0.300  25.949  0.00  0.00    +0.015 A 
ATOM     13  C   UNL     1       6.119  -0.877  26.143  0.00  0.00    +0.025 A 
ATOM     14  C   UNL     1       7.144  -0.845  27.098  0.00  0.00    +0.060 A 
ATOM     15  C   UNL     1       7.470   0.344  27.739  0.00  0.00    +0.159 A 
ATOM     16  C   UNL     1       6.768   1.519  27.478  0.00  0.00    +0.158 A 
ATOM     17  C   UNL     1       5.685   1.498  26.611  0.00  0.00    +0.050 A 
BRANCH  15  18
ATOM     18  O   UNL     1       8.521   0.358  28.610  0.00  0.00    -0.503 OA
ATOM     19  H   UNL     1       8.631   1.297  28.859  0.00  0.00    +0.292 HD
ENDBRANCH  15  18
BRANCH  16  20
ATOM     20  O   UNL     1       7.202   2.664  28.087  0.00  0.00    -0.503 OA
ATOM     21  H   UNL     1       6.444   3.096  28.515  0.00  0.00    +0.292 HD
ENDBRANCH  16  20
ENDBRANCH   1  13
BRANCH   5  22
ATOM     22  O   UNL     1       5.170  -5.849  21.975  0.00  0.00    -0.506 OA
ATOM     23  H   UNL     1       5.079  -6.809  21.780  0.00  0.00    +0.292 HD
ENDBRANCH   5  22
BRANCH   7  24
ATOM     24  O   UNL     1       3.818  -7.656  26.138  0.00  0.00    -0.507 OA
ATOM     25  H   UNL     1       2.924  -7.894  25.832  0.00  0.00    +0.292 HD
ENDBRANCH   7  24
BRANCH  11  26
ATOM     26  O   UNL     1       7.062  -1.166  23.401  0.00  0.00    -0.453 OA
BRANCH  26  27
ATOM     27  C   UNL     1       8.488  -1.353  23.432  0.00  0.00    +0.340 C 
ATOM     28  O   UNL     1       9.168  -0.361  24.211  0.00  0.00    -0.331 OA
ATOM     29  C   UNL     1       9.720   0.818  23.617  0.00  0.00    +0.179 C 
ATOM     30  C   UNL     1       9.887   0.848  22.080  0.00  0.00    +0.177 C 
ATOM     31  C   UNL     1       8.862  -0.049  21.403  0.00  0.00    +0.180 C 
ATOM     32  C   UNL     1       9.012  -1.453  21.993  0.00  0.00    +0.214 C 
BRANCH  30  33
ATOM     33  O   UNL     1       9.797   2.172  21.531  0.00  0.00    -0.386 OA
ATOM     34  H   UNL     1       8.867   2.437  21.697  0.00  0.00    +0.210 HD
ENDBRANCH  30  33
BRANCH  31  35
ATOM     35  O   UNL     1       9.068  -0.017  19.985  0.00  0.00    -0.386 OA
ATOM     36  H   UNL     1       9.155  -0.943  19.695  0.00  0.00    +0.210 HD
ENDBRANCH  31  35
BRANCH  32  37
ATOM     37  O   UNL     1      10.377  -1.892  21.938  0.00  0.00    -0.383 OA
ATOM     38  H   UNL     1      10.628  -2.237  22.815  0.00  0.00    +0.210 HD
ENDBRANCH  32  37
BRANCH  29  39
ATOM     39  C   UNL     1       8.989   2.036  24.195  0.00  0.00    +0.190 C 
BRANCH  39  40
ATOM     40  O   UNL     1       7.627   2.080  23.782  0.00  0.00    -0.392 OA
ATOM     41  H   UNL     1       7.306   2.976  24.028  0.00  0.00    +0.210 HD
ENDBRANCH  39  40
ENDBRANCH  29  39
ENDBRANCH  26  27
ENDBRANCH  11  26
TORSDOF 12
ENDMDL
MODEL 4
REMARK VINA RESULT:      -7.0      2.430      7.624
REMARK  Name = 
REMARK  12 active torsions:
REMARK  status: ('A' for Active; 'I' for Inactive)
REMARK    1  A    between atoms: C_3  and  O_37
REMARK    2  A    between atoms: C_4  and  O_36
REMARK    3  A    between atoms: C_6  and  C_7
REMARK    4  A    between atoms: C_8  and  O_20
REMARK    5  A    between atoms: C_12  and  O_19
REMARK    6  A    between atoms: C_14  and  O_18
REMARK    7  A    between atoms: O_20  and  C_21
REMARK    8  A    between atoms: C_22  and  O_35
REMARK    9  A    between atoms: C_24  and  O_34
REMARK   10  A    between atoms: C_26  and  O_33
REMARK   11  A    between atoms: C_28  and  C_31
REMARK   12  A    between atoms: C_31  and  O_32
REMARK                            x       y       z     vdW  Elec       q    Type
REMARK                         _______ _______ _______ _____ _____    ______ ____
ROOT
ATOM      1  C   UNL     1       7.541  -1.420  23.671  0.00  0.00    +0.181 A 
ATOM      2  O   UNL     1       7.897  -2.727  23.320  0.00  0.00    -0.451 OA
ATOM      3  C   UNL     1       6.910  -3.683  23.238  0.00  0.00    +0.147 A 
ATOM      4  C   UNL     1       5.649  -3.477  23.778  0.00  0.00    +0.109 A 
ATOM      5  C   UNL     1       4.667  -4.475  23.736  0.00  0.00    +0.135 A 
ATOM      6  C   UNL     1       4.933  -5.687  23.120  0.00  0.00    +0.091 A 
ATOM      7  C   UNL     1       6.195  -5.892  22.567  0.00  0.00    +0.124 A 
ATOM      8  C   UNL     1       5.377  -2.196  24.407  0.00  0.00    +0.238 A 
ATOM      9  O   UNL     1       4.405  -2.132  25.152  0.00  0.00    -0.283 OA
ATOM     10  C   UNL     1       7.188  -4.905  22.626  0.00  0.00    +0.092 A 
ATOM     11  C   UNL     1       6.314  -1.067  24.146  0.00  0.00    +0.214 A 
ENDROOT
BRANCH   1  13
ATOM     12  C   UNL     1       9.594  -0.347  24.683  0.00  0.00    +0.015 A 
ATOM     13  C   UNL     1       8.675  -0.459  23.614  0.00  0.00    +0.025 A 
ATOM     14  C   UNL     1       8.823   0.415  22.528  0.00  0.00    +0.060 A 
ATOM     15  C   UNL     1       9.769   1.430  22.568  0.00  0.00    +0.159 A 
ATOM     16  C   UNL     1      10.616   1.584  23.664  0.00  0.00    +0.158 A 
ATOM     17  C   UNL     1      10.560   0.676  24.712  0.00  0.00    +0.050 A 
BRANCH  15  18
ATOM     18  O   UNL     1       9.839   2.309  21.526  0.00  0.00    -0.503 OA
ATOM     19  H   UNL     1       9.101   2.061  20.935  0.00  0.00    +0.292 HD
ENDBRANCH  15  18
BRANCH  16  20
ATOM     20  O   UNL     1      11.463   2.657  23.665  0.00  0.00    -0.503 OA
ATOM     21  H   UNL     1      11.394   3.109  22.806  0.00  0.00    +0.292 HD
ENDBRANCH  16  20
ENDBRANCH   1  13
BRANCH   5  22
ATOM     22  O   UNL     1       3.421  -4.326  24.282  0.00  0.00    -0.506 OA
ATOM     23  H   UNL     1       2.895  -5.132  24.077  0.00  0.00    +0.292 HD
ENDBRANCH   5  22
BRANCH   7  24
ATOM     24  O   UNL     1       6.493  -7.071  21.948  0.00  0.00    -0.507 OA
ATOM     25  H   UNL     1       6.338  -6.973  20.991  0.00  0.00    +0.292 HD
ENDBRANCH   7  24
BRANCH  11  26
ATOM     26  O   UNL     1       5.968   0.261  24.416  0.00  0.00    -0.453 OA
BRANCH  26  27
ATOM     27  C   UNL     1       5.929   0.680  25.791  0.00  0.00    +0.340 C 
ATOM     28  O   UNL     1       4.693   1.307  26.153  0.00  0.00    -0.331 OA
ATOM     29  C   UNL     1       4.526   2.727  26.116  0.00  0.00    +0.179 C 
ATOM     30  C   UNL     1       5.796   3.606  26.019  0.00  0.00    +0.177 C 
ATOM     31  C   UNL     1       6.923   2.859  25.323  0.00  0.00    +0.180 C 
ATOM     32  C   UNL     1       7.156   1.553  26.085  0.00  0.00    +0.214 C 
BRANCH  30  33
ATOM     33  O   UNL     1       5.566   4.854  25.348  0.00  0.00    -0.386 OA
ATOM     34  H   UNL     1       5.449   5.500  26.077  0.00  0.00    +0.210 HD
ENDBRANCH  30  33
BRANCH  31  35
ATOM     35  O   UNL     1       8.088   3.693  25.279  0.00  0.00    -0.386 OA
ATOM     36  H   UNL     1       7.832   4.550  25.665  0.00  0.00    +0.210 HD
ENDBRANCH  31  35
BRANCH  32  37
ATOM     37  O   UNL     1       7.328   1.799  27.488  0.00  0.00    -0.383 OA
ATOM     38  H   UNL     1       6.908   2.652  27.708  0.00  0.00    +0.210 HD
ENDBRANCH  32  37
BRANCH  29  39
ATOM     39  C   UNL     1       3.451   3.059  25.073  0.00  0.00    +0.190 C 
BRANCH  39  40
ATOM     40  O   UNL     1       3.791   2.559  23.784  0.00  0.00    -0.392 OA
ATOM     41  H   UNL     1       3.116   2.927  23.173  0.00  0.00    +0.210 HD
ENDBRANCH  39  40
ENDBRANCH  29  39
ENDBRANCH  26  27
ENDBRANCH  11  26
TORSDOF 12
ENDMDL
MODEL 5
REMARK VINA RESULT:      -7.0      2.379      7.485
REMARK  Name = 
REMARK  12 active torsions:
REMARK  status: ('A' for Active; 'I' for Inactive)
REMARK    1  A    between atoms: C_3  and  O_37
REMARK    2  A    between atoms: C_4  and  O_36
REMARK    3  A    between atoms: C_6  and  C_7
REMARK    4  A    between atoms: C_8  and  O_20
REMARK    5  A    between atoms: C_12  and  O_19
REMARK    6  A    between atoms: C_14  and  O_18
REMARK    7  A    between atoms: O_20  and  C_21
REMARK    8  A    between atoms: C_22  and  O_35
REMARK    9  A    between atoms: C_24  and  O_34
REMARK   10  A    between atoms: C_26  and  O_33
REMARK   11  A    between atoms: C_28  and  C_31
REMARK   12  A    between atoms: C_31  and  O_32
REMARK                            x       y       z     vdW  Elec       q    Type
REMARK                         _______ _______ _______ _____ _____    ______ ____
ROOT
ATOM      1  C   UNL     1       8.193  -1.734  24.082  0.00  0.00    +0.181 A 
ATOM      2  O   UNL     1       8.137  -2.651  23.025  0.00  0.00    -0.451 OA
ATOM      3  C   UNL     1       7.294  -3.733  23.130  0.00  0.00    +0.147 A 
ATOM      4  C   UNL     1       6.738  -4.108  24.345  0.00  0.00    +0.109 A 
ATOM      5  C   UNL     1       5.923  -5.243  24.453  0.00  0.00    +0.135 A 
ATOM      6  C   UNL     1       5.629  -5.998  23.330  0.00  0.00    +0.091 A 
ATOM      7  C   UNL     1       6.176  -5.615  22.107  0.00  0.00    +0.124 A 
ATOM      8  C   UNL     1       7.041  -3.300  25.513  0.00  0.00    +0.238 A 
ATOM      9  O   UNL     1       6.828  -3.800  26.613  0.00  0.00    -0.283 OA
ATOM     10  C   UNL     1       7.011  -4.496  21.997  0.00  0.00    +0.092 A 
ATOM     11  C   UNL     1       7.628  -1.946  25.303  0.00  0.00    +0.214 A 
ENDROOT
BRANCH   1  13
ATOM     12  C   UNL     1      10.112  -0.196  24.664  0.00  0.00    +0.015 A 
ATOM     13  C   UNL     1       9.051  -0.553  23.799  0.00  0.00    +0.025 A 
ATOM     14  C   UNL     1       8.787   0.283  22.706  0.00  0.00    +0.060 A 
ATOM     15  C   UNL     1       9.474   1.481  22.556  0.00  0.00    +0.159 A 
ATOM     16  C   UNL     1      10.461   1.864  23.462  0.00  0.00    +0.158 A 
ATOM     17  C   UNL     1      10.813   1.013  24.500  0.00  0.00    +0.050 A 
BRANCH  15  18
ATOM     18  O   UNL     1       9.142   2.307  21.521  0.00  0.00    -0.503 OA
ATOM     19  H   UNL     1       8.293   1.962  21.183  0.00  0.00    +0.292 HD
ENDBRANCH  15  18
BRANCH  16  20
ATOM     20  O   UNL     1      11.032   3.095  23.294  0.00  0.00    -0.503 OA
ATOM     21  H   UNL     1      10.329   3.742  23.111  0.00  0.00    +0.292 HD
ENDBRANCH  16  20
ENDBRANCH   1  13
BRANCH   5  22
ATOM     22  O   UNL     1       5.379  -5.666  25.636  0.00  0.00    -0.506 OA
ATOM     23  H   UNL     1       5.408  -4.918  26.274  0.00  0.00    +0.292 HD
ENDBRANCH   5  22
BRANCH   7  24
ATOM     24  O   UNL     1       5.906  -6.332  20.977  0.00  0.00    -0.507 OA
ATOM     25  H   UNL     1       6.718  -6.395  20.442  0.00  0.00    +0.292 HD
ENDBRANCH   7  24
BRANCH  11  26
ATOM     26  O   UNL     1       7.637  -0.977  26.311  0.00  0.00    -0.453 OA
BRANCH  26  27
ATOM     27  C   UNL     1       6.383  -0.634  26.926  0.00  0.00    +0.340 C 
ATOM     28  O   UNL     1       5.396  -0.198  25.983  0.00  0.00    -0.331 OA
ATOM     29  C   UNL     1       5.193   1.187  25.688  0.00  0.00    +0.179 C 
ATOM     30  C   UNL     1       5.802   2.233  26.652  0.00  0.00    +0.177 C 
ATOM     31  C   UNL     1       7.038   1.679  27.344  0.00  0.00    +0.180 C 
ATOM     32  C   UNL     1       6.635   0.382  28.048  0.00  0.00    +0.214 C 
BRANCH  30  33
ATOM     33  O   UNL     1       6.134   3.469  26.002  0.00  0.00    -0.386 OA
ATOM     34  H   UNL     1       6.425   4.054  26.734  0.00  0.00    +0.210 HD
ENDBRANCH  30  33
BRANCH  31  35
ATOM     35  O   UNL     1       7.555   2.664  28.248  0.00  0.00    -0.386 OA
ATOM     36  H   UNL     1       8.308   3.088  27.798  0.00  0.00    +0.210 HD
ENDBRANCH  31  35
BRANCH  32  37
ATOM     37  O   UNL     1       5.478   0.582  28.874  0.00  0.00    -0.383 OA
ATOM     38  H   UNL     1       4.910   1.255  28.455  0.00  0.00    +0.210 HD
ENDBRANCH  32  37
BRANCH  29  39
ATOM     39  C   UNL     1       5.531   1.420  24.210  0.00  0.00    +0.190 C 
BRANCH  39  40
ATOM     40  O   UNL     1       4.552   2.227  23.564  0.00  0.00    -0.392 OA
ATOM     41  H   UNL     1       3.918   1.596  23.159  0.00  0.00    +0.210 HD
ENDBRANCH  39  40
ENDBRANCH  29  39
ENDBRANCH  26  27
ENDBRANCH  11  26
TORSDOF 12
ENDMDL
MODEL 6
REMARK VINA RESULT:      -6.9      2.539      7.365
REMARK  Name = 
REMARK  12 active torsions:
REMARK  status: ('A' for Active; 'I' for Inactive)
REMARK    1  A    between atoms: C_3  and  O_37
REMARK    2  A    between atoms: C_4  and  O_36
REMARK    3  A    between atoms: C_6  and  C_7
REMARK    4  A    between atoms: C_8  and  O_20
REMARK    5  A    between atoms: C_12  and  O_19
REMARK    6  A    between atoms: C_14  and  O_18
REMARK    7  A    between atoms: O_20  and  C_21
REMARK    8  A    between atoms: C_22  and  O_35
REMARK    9  A    between atoms: C_24  and  O_34
REMARK   10  A    between atoms: C_26  and  O_33
REMARK   11  A    between atoms: C_28  and  C_31
REMARK   12  A    between atoms: C_31  and  O_32
REMARK                            x       y       z     vdW  Elec       q    Type
REMARK                         _______ _______ _______ _____ _____    ______ ____
ROOT
ATOM      1  C   UNL     1       8.191  -1.548  24.141  0.00  0.00    +0.181 A 
ATOM      2  O   UNL     1       8.124  -2.524  23.139  0.00  0.00    -0.451 OA
ATOM      3  C   UNL     1       7.314  -3.619  23.334  0.00  0.00    +0.147 A 
ATOM      4  C   UNL     1       6.810  -3.939  24.586  0.00  0.00    +0.109 A 
ATOM      5  C   UNL     1       6.030  -5.086  24.786  0.00  0.00    +0.135 A 
ATOM      6  C   UNL     1       5.718  -5.910  23.717  0.00  0.00    +0.091 A 
ATOM      7  C   UNL     1       6.213  -5.583  22.456  0.00  0.00    +0.124 A 
ATOM      8  C   UNL     1       7.130  -3.059  25.697  0.00  0.00    +0.238 A 
ATOM      9  O   UNL     1       6.968  -3.502  26.829  0.00  0.00    -0.283 OA
ATOM     10  C   UNL     1       7.014  -4.451  22.256  0.00  0.00    +0.092 A 
ATOM     11  C   UNL     1       7.673  -1.705  25.392  0.00  0.00    +0.214 A 
ENDROOT
BRANCH   1  13
ATOM     12  C   UNL     1      10.163  -0.007  24.499  0.00  0.00    +0.015 A 
ATOM     13  C   UNL     1       9.007  -0.364  23.764  0.00  0.00    +0.025 A 
ATOM     14  C   UNL     1       8.614   0.476  22.714  0.00  0.00    +0.060 A 
ATOM     15  C   UNL     1       9.275   1.677  22.489  0.00  0.00    +0.159 A 
ATOM     16  C   UNL     1      10.362   2.058  23.273  0.00  0.00    +0.158 A 
ATOM     17  C   UNL     1      10.837   1.204  24.257  0.00  0.00    +0.050 A 
BRANCH  15  18
ATOM     18  O   UNL     1       8.821   2.506  21.504  0.00  0.00    -0.503 OA
ATOM     19  H   UNL     1       8.057   2.040  21.111  0.00  0.00    +0.292 HD
ENDBRANCH  15  18
BRANCH  16  20
ATOM     20  O   UNL     1      10.906   3.291  23.043  0.00  0.00    -0.503 OA
ATOM     21  H   UNL     1      11.875   3.214  23.067  0.00  0.00    +0.292 HD
ENDBRANCH  16  20
ENDBRANCH   1  13
BRANCH   5  22
ATOM     22  O   UNL     1       5.537  -5.455  26.008  0.00  0.00    -0.506 OA
ATOM     23  H   UNL     1       5.080  -4.680  26.405  0.00  0.00    +0.292 HD
ENDBRANCH   5  22
BRANCH   7  24
ATOM     24  O   UNL     1       5.924  -6.368  21.378  0.00  0.00    -0.507 OA
ATOM     25  H   UNL     1       5.080  -6.075  20.992  0.00  0.00    +0.292 HD
ENDBRANCH   7  24
BRANCH  11  26
ATOM     26  O   UNL     1       7.691  -0.681  26.344  0.00  0.00    -0.453 OA
BRANCH  26  27
ATOM     27  C   UNL     1       6.731   0.381  26.207  0.00  0.00    +0.340 C 
ATOM     28  O   UNL     1       6.957   1.464  27.119  0.00  0.00    -0.331 OA
ATOM     29  C   UNL     1       6.290   1.540  28.382  0.00  0.00    +0.179 C 
ATOM     30  C   UNL     1       5.059   0.632  28.610  0.00  0.00    +0.177 C 
ATOM     31  C   UNL     1       5.151  -0.632  27.768  0.00  0.00    +0.180 C 
ATOM     32  C   UNL     1       5.316  -0.206  26.308  0.00  0.00    +0.214 C 
BRANCH  30  33
ATOM     33  O   UNL     1       4.874   0.272  29.988  0.00  0.00    -0.386 OA
ATOM     34  H   UNL     1       3.899   0.248  30.101  0.00  0.00    +0.210 HD
ENDBRANCH  30  33
BRANCH  31  35
ATOM     35  O   UNL     1       3.981  -1.431  27.985  0.00  0.00    -0.386 OA
ATOM     36  H   UNL     1       4.169  -1.998  28.754  0.00  0.00    +0.210 HD
ENDBRANCH  31  35
BRANCH  32  37
ATOM     37  O   UNL     1       4.305   0.740  25.929  0.00  0.00    -0.383 OA
ATOM     38  H   UNL     1       3.566   0.256  25.515  0.00  0.00    +0.210 HD
ENDBRANCH  32  37
BRANCH  29  39
ATOM     39  C   UNL     1       7.347   1.458  29.491  0.00  0.00    +0.190 C 
BRANCH  39  40
ATOM     40  O   UNL     1       8.437   0.621  29.121  0.00  0.00    -0.392 OA
ATOM     41  H   UNL     1       8.455  -0.098  29.791  0.00  0.00    +0.210 HD
ENDBRANCH  39  40
ENDBRANCH  29  39
ENDBRANCH  26  27
ENDBRANCH  11  26
TORSDOF 12
ENDMDL
MODEL 7
REMARK VINA RESULT:      -6.8      2.458      6.378
REMARK  Name = 
REMARK  12 active torsions:
REMARK  status: ('A' for Active; 'I' for Inactive)
REMARK    1  A    between atoms: C_3  and  O_37
REMARK    2  A    between atoms: C_4  and  O_36
REMARK    3  A    between atoms: C_6  and  C_7
REMARK    4  A    between atoms: C_8  and  O_20
REMARK    5  A    between atoms: C_12  and  O_19
REMARK    6  A    between atoms: C_14  and  O_18
REMARK    7  A    between atoms: O_20  and  C_21
REMARK    8  A    between atoms: C_22  and  O_35
REMARK    9  A    between atoms: C_24  and  O_34
REMARK   10  A    between atoms: C_26  and  O_33
REMARK   11  A    between atoms: C_28  and  C_31
REMARK   12  A    between atoms: C_31  and  O_32
REMARK                            x       y       z     vdW  Elec       q    Type
REMARK                         _______ _______ _______ _____ _____    ______ ____
ROOT
ATOM      1  C   UNL     1       6.154  -2.221  25.478  0.00  0.00    +0.181 A 
ATOM      2  O   UNL     1       5.377  -2.659  26.557  0.00  0.00    -0.451 OA
ATOM      3  C   UNL     1       5.024  -1.752  27.530  0.00  0.00    +0.147 A 
ATOM      4  C   UNL     1       5.650  -0.519  27.639  0.00  0.00    +0.109 A 
ATOM      5  C   UNL     1       5.321   0.377  28.665  0.00  0.00    +0.135 A 
ATOM      6  C   UNL     1       4.330   0.055  29.578  0.00  0.00    +0.091 A 
ATOM      7  C   UNL     1       3.691  -1.178  29.462  0.00  0.00    +0.124 A 
ATOM      8  C   UNL     1       6.677  -0.186  26.667  0.00  0.00    +0.238 A 
ATOM      9  O   UNL     1       7.439   0.733  26.948  0.00  0.00    -0.283 OA
ATOM     10  C   UNL     1       4.033  -2.087  28.453  0.00  0.00    +0.092 A 
ATOM     11  C   UNL     1       6.766  -1.005  25.425  0.00  0.00    +0.214 A 
ENDROOT
BRANCH   1  13
ATOM     12  C   UNL     1       7.245  -4.353  24.669  0.00  0.00    +0.015 A 
ATOM     13  C   UNL     1       6.371  -3.264  24.440  0.00  0.00    +0.025 A 
ATOM     14  C   UNL     1       5.772  -3.158  23.178  0.00  0.00    +0.060 A 
ATOM     15  C   UNL     1       6.126  -4.032  22.157  0.00  0.00    +0.159 A 
ATOM     16  C   UNL     1       7.052  -5.051  22.370  0.00  0.00    +0.158 A 
ATOM     17  C   UNL     1       7.589  -5.243  23.635  0.00  0.00    +0.050 A 
BRANCH  15  18
ATOM     18  O   UNL     1       5.579  -3.857  20.919  0.00  0.00    -0.503 OA
ATOM     19  H   UNL     1       6.300  -3.486  20.373  0.00  0.00    +0.292 HD
ENDBRANCH  15  18
BRANCH  16  20
ATOM     20  O   UNL     1       7.409  -5.817  21.295  0.00  0.00    -0.503 OA
ATOM     21  H   UNL     1       7.706  -5.229  20.579  0.00  0.00    +0.292 HD
ENDBRANCH  16  20
ENDBRANCH   1  13
BRANCH   5  22
ATOM     22  O   UNL     1       5.934   1.589  28.828  0.00  0.00    -0.506 OA
ATOM     23  H   UNL     1       6.907   1.454  28.773  0.00  0.00    +0.292 HD
ENDBRANCH   5  22
BRANCH   7  24
ATOM     24  O   UNL     1       2.706  -1.529  30.341  0.00  0.00    -0.507 OA
ATOM     25  H   UNL     1       2.357  -2.402  30.089  0.00  0.00    +0.292 HD
ENDBRANCH   7  24
BRANCH  11  26
ATOM     26  O   UNL     1       7.472  -0.570  24.299  0.00  0.00    -0.453 OA
BRANCH  26  27
ATOM     27  C   UNL     1       8.878  -0.864  24.231  0.00  0.00    +0.340 C 
ATOM     28  O   UNL     1       9.699   0.204  24.718  0.00  0.00    -0.331 OA
ATOM     29  C   UNL     1      10.255   1.190  23.843  0.00  0.00    +0.179 C 
ATOM     30  C   UNL     1      10.253   0.897  22.324  0.00  0.00    +0.177 C 
ATOM     31  C   UNL     1       9.106  -0.029  21.949  0.00  0.00    +0.180 C 
ATOM     32  C   UNL     1       9.233  -1.294  22.802  0.00  0.00    +0.214 C 
BRANCH  30  33
ATOM     33  O   UNL     1      10.184   2.087  21.522  0.00  0.00    -0.386 OA
ATOM     34  H   UNL     1       9.819   1.777  20.666  0.00  0.00    +0.210 HD
ENDBRANCH  30  33
BRANCH  31  35
ATOM     35  O   UNL     1       9.156  -0.300  20.543  0.00  0.00    -0.386 OA
ATOM     36  H   UNL     1       8.280  -0.071  20.184  0.00  0.00    +0.210 HD
ENDBRANCH  31  35
BRANCH  32  37
ATOM     37  O   UNL     1      10.554  -1.847  22.709  0.00  0.00    -0.383 OA
ATOM     38  H   UNL     1      10.606  -2.397  21.905  0.00  0.00    +0.210 HD
ENDBRANCH  32  37
BRANCH  29  39
ATOM     39  C   UNL     1       9.667   2.556  24.221  0.00  0.00    +0.190 C 
BRANCH  39  40
ATOM     40  O   UNL     1       8.297   2.457  24.595  0.00  0.00    -0.392 OA
ATOM     41  H   UNL     1       7.788   2.576  23.763  0.00  0.00    +0.210 HD
ENDBRANCH  39  40
ENDBRANCH  29  39
ENDBRANCH  26  27
ENDBRANCH  11  26
TORSDOF 12
ENDMDL
MODEL 8
REMARK VINA RESULT:      -6.8      1.933      3.299
REMARK  Name = 
REMARK  12 active torsions:
REMARK  status: ('A' for Active; 'I' for Inactive)
REMARK    1  A    between atoms: C_3  and  O_37
REMARK    2  A    between atoms: C_4  and  O_36
REMARK    3  A    between atoms: C_6  and  C_7
REMARK    4  A    between atoms: C_8  and  O_20
REMARK    5  A    between atoms: C_12  and  O_19
REMARK    6  A    between atoms: C_14  and  O_18
REMARK    7  A    between atoms: O_20  and  C_21
REMARK    8  A    between atoms: C_22  and  O_35
REMARK    9  A    between atoms: C_24  and  O_34
REMARK   10  A    between atoms: C_26  and  O_33
REMARK   11  A    between atoms: C_28  and  C_31
REMARK   12  A    between atoms: C_31  and  O_32
REMARK                            x       y       z     vdW  Elec       q    Type
REMARK                         _______ _______ _______ _____ _____    ______ ____
ROOT
ATOM      1  C   UNL     1       6.486  -0.763  25.252  0.00  0.00    +0.181 A 
ATOM      2  O   UNL     1       5.963   0.400  24.673  0.00  0.00    -0.451 OA
ATOM      3  C   UNL     1       6.783   1.173  23.883  0.00  0.00    +0.147 A 
ATOM      4  C   UNL     1       8.161   1.012  23.887  0.00  0.00    +0.109 A 
ATOM      5  C   UNL     1       8.992   1.839  23.118  0.00  0.00    +0.135 A 
ATOM      6  C   UNL     1       8.442   2.819  22.309  0.00  0.00    +0.091 A 
ATOM      7  C   UNL     1       7.058   2.973  22.294  0.00  0.00    +0.124 A 
ATOM      8  C   UNL     1       8.725  -0.029  24.727  0.00  0.00    +0.238 A 
ATOM      9  O   UNL     1       9.924   0.040  24.979  0.00  0.00    -0.283 OA
ATOM     10  C   UNL     1       6.224   2.165  23.078  0.00  0.00    +0.092 A 
ATOM     11  C   UNL     1       7.811  -1.078  25.263  0.00  0.00    +0.214 A 
ENDROOT
BRANCH   1  13
ATOM     12  C   UNL     1       5.279  -1.405  27.378  0.00  0.00    +0.015 A 
ATOM     13  C   UNL     1       5.474  -1.568  25.986  0.00  0.00    +0.025 A 
ATOM     14  C   UNL     1       4.735  -2.563  25.333  0.00  0.00    +0.060 A 
ATOM     15  C   UNL     1       3.931  -3.432  26.060  0.00  0.00    +0.159 A 
ATOM     16  C   UNL     1       3.811  -3.315  27.443  0.00  0.00    +0.158 A 
ATOM     17  C   UNL     1       4.453  -2.280  28.107  0.00  0.00    +0.050 A 
BRANCH  15  18
ATOM     18  O   UNL     1       3.281  -4.436  25.402  0.00  0.00    -0.503 OA
ATOM     19  H   UNL     1       2.809  -3.995  24.668  0.00  0.00    +0.292 HD
ENDBRANCH  15  18
BRANCH  16  20
ATOM     20  O   UNL     1       3.067  -4.259  28.096  0.00  0.00    -0.503 OA
ATOM     21  H   UNL     1       3.438  -5.137  27.902  0.00  0.00    +0.292 HD
ENDBRANCH  16  20
ENDBRANCH   1  13
BRANCH   5  22
ATOM     22  O   UNL     1      10.357   1.735  23.115  0.00  0.00    -0.506 OA
ATOM     23  H   UNL     1      10.729   2.545  23.531  0.00  0.00    +0.292 HD
ENDBRANCH   5  22
BRANCH   7  24
ATOM     24  O   UNL     1       6.479   3.925  21.506  0.00  0.00    -0.507 OA
ATOM     25  H   UNL     1       7.165   4.548  21.209  0.00  0.00    +0.292 HD
ENDBRANCH   7  24
BRANCH  11  26
ATOM     26  O   UNL     1       8.291  -2.284  25.783  0.00  0.00    -0.453 OA
BRANCH  26  27
ATOM     27  C   UNL     1       8.940  -3.196  24.879  0.00  0.00    +0.340 C 
ATOM     28  O   UNL     1       8.511  -3.040  23.521  0.00  0.00    -0.331 OA
ATOM     29  C   UNL     1       7.461  -3.837  22.964  0.00  0.00    +0.179 C 
ATOM     30  C   UNL     1       7.029  -5.109  23.730  0.00  0.00    +0.177 C 
ATOM     31  C   UNL     1       7.289  -4.961  25.221  0.00  0.00    +0.180 C 
ATOM     32  C   UNL     1       8.771  -4.628  25.404  0.00  0.00    +0.214 C 
BRANCH  30  33
ATOM     33  O   UNL     1       5.650  -5.450  23.520  0.00  0.00    -0.386 OA
ATOM     34  H   UNL     1       5.590  -5.620  22.555  0.00  0.00    +0.210 HD
ENDBRANCH  30  33
BRANCH  31  35
ATOM     35  O   UNL     1       6.904  -6.168  25.891  0.00  0.00    -0.386 OA
ATOM     36  H   UNL     1       6.623  -5.911  26.788  0.00  0.00    +0.210 HD
ENDBRANCH  31  35
BRANCH  32  37
ATOM     37  O   UNL     1       9.600  -5.567  24.703  0.00  0.00    -0.383 OA
ATOM     38  H   UNL     1      10.032  -5.106  23.959  0.00  0.00    +0.210 HD
ENDBRANCH  32  37
BRANCH  29  39
ATOM     39  C   UNL     1       6.301  -2.908  22.582  0.00  0.00    +0.190 C 
BRANCH  39  40
ATOM     40  O   UNL     1       5.520  -3.446  21.520  0.00  0.00    -0.392 OA
ATOM     41  H   UNL     1       5.986  -4.265  21.240  0.00  0.00    +0.210 HD
ENDBRANCH  39  40
ENDBRANCH  29  39
ENDBRANCH  26  27
ENDBRANCH  11  26
TORSDOF 12
ENDMDL
MODEL 9
REMARK VINA RESULT:      -6.6      1.814      4.637
REMARK  Name = 
REMARK  12 active torsions:
REMARK  status: ('A' for Active; 'I' for Inactive)
REMARK    1  A    between atoms: C_3  and  O_37
REMARK    2  A    between atoms: C_4  and  O_36
REMARK    3  A    between atoms: C_6  and  C_7
REMARK    4  A    between atoms: C_8  and  O_20
REMARK    5  A    between atoms: C_12  and  O_19
REMARK    6  A    between atoms: C_14  and  O_18
REMARK    7  A    between atoms: O_20  and  C_21
REMARK    8  A    between atoms: C_22  and  O_35
REMARK    9  A    between atoms: C_24  and  O_34
REMARK   10  A    between atoms: C_26  and  O_33
REMARK   11  A    between atoms: C_28  and  C_31
REMARK   12  A    between atoms: C_31  and  O_32
REMARK                            x       y       z     vdW  Elec       q    Type
REMARK                         _______ _______ _______ _____ _____    ______ ____
ROOT
ATOM      1  C   UNL     1       6.804  -1.769  23.502  0.00  0.00    +0.181 A 
ATOM      2  O   UNL     1       7.735  -1.141  22.665  0.00  0.00    -0.451 OA
ATOM      3  C   UNL     1       8.047   0.179  22.894  0.00  0.00    +0.147 A 
ATOM      4  C   UNL     1       7.264   0.982  23.711  0.00  0.00    +0.109 A 
ATOM      5  C   UNL     1       7.560   2.339  23.897  0.00  0.00    +0.135 A 
ATOM      6  C   UNL     1       8.669   2.899  23.287  0.00  0.00    +0.091 A 
ATOM      7  C   UNL     1       9.464   2.092  22.475  0.00  0.00    +0.124 A 
ATOM      8  C   UNL     1       6.112   0.379  24.359  0.00  0.00    +0.238 A 
ATOM      9  O   UNL     1       5.257   1.138  24.803  0.00  0.00    -0.283 OA
ATOM     10  C   UNL     1       9.160   0.740  22.267  0.00  0.00    +0.092 A 
ATOM     11  C   UNL     1       6.022  -1.108  24.401  0.00  0.00    +0.214 A 
ENDROOT
BRANCH   1  13
ATOM     12  C   UNL     1       7.755  -4.042  22.937  0.00  0.00    +0.015 A 
ATOM     13  C   UNL     1       6.639  -3.220  23.224  0.00  0.00    +0.025 A 
ATOM     14  C   UNL     1       5.366  -3.801  23.166  0.00  0.00    +0.060 A 
ATOM     15  C   UNL     1       5.209  -5.109  22.724  0.00  0.00    +0.159 A 
ATOM     16  C   UNL     1       6.310  -5.884  22.364  0.00  0.00    +0.158 A 
ATOM     17  C   UNL     1       7.591  -5.371  22.503  0.00  0.00    +0.050 A 
BRANCH  15  18
ATOM     18  O   UNL     1       3.949  -5.622  22.610  0.00  0.00    -0.503 OA
ATOM     19  H   UNL     1       3.955  -6.432  23.156  0.00  0.00    +0.292 HD
ENDBRANCH  15  18
BRANCH  16  20
ATOM     20  O   UNL     1       6.068  -7.132  21.860  0.00  0.00    -0.503 OA
ATOM     21  H   UNL     1       6.913  -7.606  21.782  0.00  0.00    +0.292 HD
ENDBRANCH  16  20
ENDBRANCH   1  13
BRANCH   5  22
ATOM     22  O   UNL     1       6.798   3.174  24.670  0.00  0.00    -0.506 OA
ATOM     23  H   UNL     1       6.051   3.505  24.123  0.00  0.00    +0.292 HD
ENDBRANCH   5  22
BRANCH   7  24
ATOM     24  O   UNL     1      10.568   2.607  21.860  0.00  0.00    -0.507 OA
ATOM     25  H   UNL     1      10.751   3.490  22.229  0.00  0.00    +0.292 HD
ENDBRANCH   7  24
BRANCH  11  26
ATOM     26  O   UNL     1       5.157  -1.775  25.274  0.00  0.00    -0.453 OA
BRANCH  26  27
ATOM     27  C   UNL     1       5.483  -1.774  26.675  0.00  0.00    +0.340 C 
ATOM     28  O   UNL     1       6.588  -2.629  26.994  0.00  0.00    -0.331 OA
ATOM     29  C   UNL     1       6.398  -3.978  27.431  0.00  0.00    +0.179 C 
ATOM     30  C   UNL     1       4.984  -4.400  27.894  0.00  0.00    +0.177 C 
ATOM     31  C   UNL     1       3.914  -3.567  27.205  0.00  0.00    +0.180 C 
ATOM     32  C   UNL     1       4.220  -2.094  27.484  0.00  0.00    +0.214 C 
BRANCH  30  33
ATOM     33  O   UNL     1       4.714  -5.793  27.677  0.00  0.00    -0.386 OA
ATOM     34  H   UNL     1       5.527  -6.246  27.989  0.00  0.00    +0.210 HD
ENDBRANCH  30  33
BRANCH  31  35
ATOM     35  O   UNL     1       2.622  -3.966  27.680  0.00  0.00    -0.386 OA
ATOM     36  H   UNL     1       2.690  -4.032  28.650  0.00  0.00    +0.210 HD
ENDBRANCH  31  35
BRANCH  32  37
ATOM     37  O   UNL     1       4.399  -1.863  28.889  0.00  0.00    -0.383 OA
ATOM     38  H   UNL     1       3.668  -2.295  29.371  0.00  0.00    +0.210 HD
ENDBRANCH  32  37
BRANCH  29  39
ATOM     39  C   UNL     1       7.025  -4.915  26.391  0.00  0.00    +0.190 C 
BRANCH  39  40
ATOM     40  O   UNL     1       7.687  -6.017  27.002  0.00  0.00    -0.392 OA
ATOM     41  H   UNL     1       7.626  -5.856  27.970  0.00  0.00    +0.210 HD
ENDBRANCH  39  40
ENDBRANCH  29  39
ENDBRANCH  26  27
ENDBRANCH  11  26
TORSDOF 12
ENDMDL
