MODEL 1
REMARK VINA RESULT:      -7.4      0.000      0.000
REMARK  Name = 
REMARK  12 active torsions:
REMARK  status: ('A' for Active; 'I' for Inactive)
REMARK    1  A    between atoms: C_3  and  O_34
REMARK    2  A    between atoms: C_4  and  O_29
REMARK    3  A    between atoms: C_6  and  C_7
REMARK    4  A    between atoms: C_8  and  O_24
REMARK    5  A    between atoms: C_12  and  O_23
REMARK    6  A    between atoms: C_14  and  O_18
REMARK    7  A    between atoms: O_18  and  S_19
REMARK    8  A    between atoms: S_19  and  O_22
REMARK    9  A    between atoms: O_24  and  S_25
REMARK   10  A    between atoms: S_25  and  O_28
REMARK   11  A    between atoms: O_29  and  S_30
REMARK   12  A    between atoms: S_30  and  O_33
REMARK                            x       y       z     vdW  Elec       q    Type
REMARK                         _______ _______ _______ _____ _____    ______ ____
ROOT
ATOM      1  C   UNL     1       8.158  -0.346  25.245  0.00  0.00    +0.184 A 
ATOM      2  O   UNL     1       7.529  -1.195  26.157  0.00  0.00    -0.451 OA
ATOM      3  C   UNL     1       7.816  -2.534  26.143  0.00  0.00    +0.147 A 
ATOM      4  C   UNL     1       8.798  -3.072  25.319  0.00  0.00    +0.109 A 
ATOM      5  C   UNL     1       9.060  -4.446  25.372  0.00  0.00    +0.135 A 
ATOM      6  C   UNL     1       8.349  -5.278  26.236  0.00  0.00    +0.095 A 
ATOM      7  C   UNL     1       7.373  -4.734  27.070  0.00  0.00    +0.166 A 
ATOM      8  C   UNL     1       9.509  -2.176  24.413  0.00  0.00    +0.241 A 
ATOM      9  O   UNL     1      10.409  -2.620  23.702  0.00  0.00    -0.283 OA
ATOM     10  C   UNL     1       7.092  -3.363  27.008  0.00  0.00    +0.096 A 
ATOM     11  C   UNL     1       9.107  -0.745  24.369  0.00  0.00    +0.248 A 
ENDROOT
BRANCH   1  13
ATOM     12  C   UNL     1       6.217   1.184  25.391  0.00  0.00    +0.015 A 
ATOM     13  C   UNL     1       7.611   1.016  25.388  0.00  0.00    +0.025 A 
ATOM     14  C   UNL     1       8.438   2.145  25.315  0.00  0.00    +0.064 A 
ATOM     15  C   UNL     1       7.871   3.420  25.191  0.00  0.00    +0.201 A 
ATOM     16  C   UNL     1       6.486   3.554  25.078  0.00  0.00    +0.161 A 
ATOM     17  C   UNL     1       5.653   2.449  25.222  0.00  0.00    +0.050 A 
BRANCH  16  18
ATOM     18  O   UNL     1       5.953   4.781  24.797  0.00  0.00    -0.503 OA
ATOM     19  H   UNL     1       5.600   4.758  23.889  0.00  0.00    +0.292 HD
ENDBRANCH  16  18
BRANCH  15  20
ATOM     20  O   UNL     1       8.623   4.561  25.072  0.00  0.00    -0.321 OA
BRANCH  20  21
ATOM     21  S   UNL     1       9.391   4.892  23.677  0.00  0.00    +0.251 S 
ATOM     22  O   UNL     1      10.565   4.054  23.577  0.00  0.00    -0.108 OA
ATOM     23  O   UNL     1       9.462   6.327  23.493  0.00  0.00    -0.108 OA
BRANCH  21  24
ATOM     24  O   UNL     1       8.338   4.392  22.563  0.00  0.00    -0.222 OA
ATOM     25  H   UNL     1       8.359   3.413  22.569  0.00  0.00    +0.248 HD
ENDBRANCH  21  24
ENDBRANCH  20  21
ENDBRANCH  15  20
ENDBRANCH   1  13
BRANCH   5  26
ATOM     26  O   UNL     1      10.011  -5.047  24.593  0.00  0.00    -0.506 OA
ATOM     27  H   UNL     1      10.738  -5.363  25.177  0.00  0.00    +0.292 HD
ENDBRANCH   5  26
BRANCH   7  28
ATOM     28  O   UNL     1       6.626  -5.462  27.965  0.00  0.00    -0.325 OA
BRANCH  28  29
ATOM     29  S   UNL     1       5.275  -6.250  27.504  0.00  0.00    +0.251 S 
ATOM     30  O   UNL     1       5.417  -6.708  26.141  0.00  0.00    -0.108 OA
ATOM     31  O   UNL     1       4.123  -5.493  27.945  0.00  0.00    -0.108 OA
BRANCH  29  32
ATOM     32  O   UNL     1       5.291  -7.558  28.450  0.00  0.00    -0.222 OA
ATOM     33  H   UNL     1       6.223  -7.854  28.519  0.00  0.00    +0.248 HD
ENDBRANCH  29  32
ENDBRANCH  28  29
ENDBRANCH   7  28
BRANCH  11  34
ATOM     34  O   UNL     1       9.696  -0.029  23.350  0.00  0.00    -0.317 OA
BRANCH  34  35
ATOM     35  S   UNL     1       8.977   0.408  21.967  0.00  0.00    +0.252 S 
ATOM     36  O   UNL     1       7.589   0.726  22.208  0.00  0.00    -0.108 OA
ATOM     37  O   UNL     1       9.390  -0.520  20.939  0.00  0.00    -0.108 OA
BRANCH  35  38
ATOM     38  O   UNL     1       9.725   1.788  21.593  0.00  0.00    -0.222 OA
ATOM     39  H   UNL     1       9.155   2.273  20.961  0.00  0.00    +0.248 HD
ENDBRANCH  35  38
ENDBRANCH  34  35
ENDBRANCH  11  34
TORSDOF 12
ENDMDL
MODEL 2
REMARK VINA RESULT:      -7.3      2.488      8.579
REMARK  Name = 
REMARK  12 active torsions:
REMARK  status: ('A' for Active; 'I' for Inactive)
REMARK    1  A    between atoms: C_3  and  O_34
REMARK    2  A    between atoms: C_4  and  O_29
REMARK    3  A    between atoms: C_6  and  C_7
REMARK    4  A    between atoms: C_8  and  O_24
REMARK    5  A    between atoms: C_12  and  O_23
REMARK    6  A    between atoms: C_14  and  O_18
REMARK    7  A    between atoms: O_18  and  S_19
REMARK    8  A    between atoms: S_19  and  O_22
REMARK    9  A    between atoms: O_24  and  S_25
REMARK   10  A    between atoms: S_25  and  O_28
REMARK   11  A    between atoms: O_29  and  S_30
REMARK   12  A    between atoms: S_30  and  O_33
REMARK                            x       y       z     vdW  Elec       q    Type
REMARK                         _______ _______ _______ _____ _____    ______ ____
ROOT
ATOM      1  C   UNL     1       6.389  -2.290  24.192  0.00  0.00    +0.184 A 
ATOM      2  O   UNL     1       6.144  -0.983  23.772  0.00  0.00    -0.451 OA
ATOM      3  C   UNL     1       7.089  -0.321  23.035  0.00  0.00    +0.147 A 
ATOM      4  C   UNL     1       8.252  -0.940  22.593  0.00  0.00    +0.109 A 
ATOM      5  C   UNL     1       9.166  -0.214  21.822  0.00  0.00    +0.135 A 
ATOM      6  C   UNL     1       8.926   1.120  21.495  0.00  0.00    +0.095 A 
ATOM      7  C   UNL     1       7.753   1.737  21.929  0.00  0.00    +0.166 A 
ATOM      8  C   UNL     1       8.481  -2.331  22.971  0.00  0.00    +0.241 A 
ATOM      9  O   UNL     1       9.483  -2.914  22.561  0.00  0.00    -0.283 OA
ATOM     10  C   UNL     1       6.843   1.021  22.717  0.00  0.00    +0.096 A 
ATOM     11  C   UNL     1       7.493  -2.997  23.861  0.00  0.00    +0.248 A 
ENDROOT
BRANCH   1  13
ATOM     12  C   UNL     1       5.037  -2.066  26.254  0.00  0.00    +0.015 A 
ATOM     13  C   UNL     1       5.279  -2.745  25.049  0.00  0.00    +0.025 A 
ATOM     14  C   UNL     1       4.605  -3.947  24.791  0.00  0.00    +0.064 A 
ATOM     15  C   UNL     1       3.742  -4.484  25.755  0.00  0.00    +0.201 A 
ATOM     16  C   UNL     1       3.605  -3.852  26.993  0.00  0.00    +0.161 A 
ATOM     17  C   UNL     1       4.213  -2.624  27.232  0.00  0.00    +0.050 A 
BRANCH  16  18
ATOM     18  O   UNL     1       2.889  -4.466  27.982  0.00  0.00    -0.503 OA
ATOM     19  H   UNL     1       1.950  -4.236  27.864  0.00  0.00    +0.292 HD
ENDBRANCH  16  18
BRANCH  15  20
ATOM     20  O   UNL     1       3.084  -5.676  25.584  0.00  0.00    -0.321 OA
BRANCH  20  21
ATOM     21  S   UNL     1       3.826  -7.078  25.942  0.00  0.00    +0.251 S 
ATOM     22  O   UNL     1       5.223  -6.815  26.209  0.00  0.00    -0.108 OA
ATOM     23  O   UNL     1       3.408  -8.100  25.004  0.00  0.00    -0.108 OA
BRANCH  21  24
ATOM     24  O   UNL     1       3.134  -7.501  27.337  0.00  0.00    -0.222 OA
ATOM     25  H   UNL     1       2.258  -7.065  27.365  0.00  0.00    +0.248 HD
ENDBRANCH  21  24
ENDBRANCH  20  21
ENDBRANCH  15  20
ENDBRANCH   1  13
BRANCH   5  26
ATOM     26  O   UNL     1      10.331  -0.756  21.351  0.00  0.00    -0.506 OA
ATOM     27  H   UNL     1      11.077  -0.408  21.889  0.00  0.00    +0.292 HD
ENDBRANCH   5  26
BRANCH   7  28
ATOM     28  O   UNL     1       7.415   3.039  21.650  0.00  0.00    -0.325 OA
BRANCH  28  29
ATOM     29  S   UNL     1       7.510   4.205  22.786  0.00  0.00    +0.251 S 
ATOM     30  O   UNL     1       8.677   3.990  23.611  0.00  0.00    -0.108 OA
ATOM     31  O   UNL     1       6.195   4.410  23.353  0.00  0.00    -0.108 OA
BRANCH  29  32
ATOM     32  O   UNL     1       7.786   5.530  21.907  0.00  0.00    -0.222 OA
ATOM     33  H   UNL     1       8.642   5.903  22.205  0.00  0.00    +0.248 HD
ENDBRANCH  29  32
ENDBRANCH  28  29
ENDBRANCH   7  28
BRANCH  11  34
ATOM     34  O   UNL     1       7.895  -4.234  24.317  0.00  0.00    -0.317 OA
BRANCH  34  35
ATOM     35  S   UNL     1       8.829  -4.502  25.611  0.00  0.00    +0.252 S 
ATOM     36  O   UNL     1       8.688  -3.421  26.559  0.00  0.00    -0.108 OA
ATOM     37  O   UNL     1      10.120  -4.954  25.142  0.00  0.00    -0.108 OA
BRANCH  35  38
ATOM     38  O   UNL     1       8.157  -5.810  26.275  0.00  0.00    -0.222 OA
ATOM     39  H   UNL     1       7.317  -5.533  26.695  0.00  0.00    +0.248 HD
ENDBRANCH  35  38
ENDBRANCH  34  35
ENDBRANCH  11  34
TORSDOF 12
ENDMDL
MODEL 3
REMARK VINA RESULT:      -7.2      2.887      8.703
REMARK  Name = 
REMARK  12 active torsions:
REMARK  status: ('A' for Active; 'I' for Inactive)
REMARK    1  A    between atoms: C_3  and  O_34
REMARK    2  A    between atoms: C_4  and  O_29
REMARK    3  A    between atoms: C_6  and  C_7
REMARK    4  A    between atoms: C_8  and  O_24
REMARK    5  A    between atoms: C_12  and  O_23
REMARK    6  A    between atoms: C_14  and  O_18
REMARK    7  A    between atoms: O_18  and  S_19
REMARK    8  A    between atoms: S_19  and  O_22
REMARK    9  A    between atoms: O_24  and  S_25
REMARK   10  A    between atoms: S_25  and  O_28
REMARK   11  A    between atoms: O_29  and  S_30
REMARK   12  A    between atoms: S_30  and  O_33
REMARK                            x       y       z     vdW  Elec       q    Type
REMARK                         _______ _______ _______ _____ _____    ______ ____
ROOT
ATOM      1  C   UNL     1       6.191  -2.810  24.132  0.00  0.00    +0.184 A 
ATOM      2  O   UNL     1       6.092  -1.547  23.547  0.00  0.00    -0.451 OA
ATOM      3  C   UNL     1       7.226  -0.912  23.115  0.00  0.00    +0.147 A 
ATOM      4  C   UNL     1       8.473  -1.525  23.138  0.00  0.00    +0.109 A 
ATOM      5  C   UNL     1       9.588  -0.830  22.658  0.00  0.00    +0.135 A 
ATOM      6  C   UNL     1       9.464   0.467  22.161  0.00  0.00    +0.095 A 
ATOM      7  C   UNL     1       8.210   1.076  22.127  0.00  0.00    +0.166 A 
ATOM      8  C   UNL     1       8.571  -2.875  23.684  0.00  0.00    +0.241 A 
ATOM      9  O   UNL     1       9.655  -3.455  23.681  0.00  0.00    -0.283 OA
ATOM     10  C   UNL     1       7.093   0.392  22.624  0.00  0.00    +0.096 A 
ATOM     11  C   UNL     1       7.345  -3.504  24.246  0.00  0.00    +0.248 A 
ENDROOT
BRANCH   1  13
ATOM     12  C   UNL     1       4.346  -2.656  25.776  0.00  0.00    +0.015 A 
ATOM     13  C   UNL     1       4.861  -3.236  24.604  0.00  0.00    +0.025 A 
ATOM     14  C   UNL     1       4.201  -4.334  24.036  0.00  0.00    +0.064 A 
ATOM     15  C   UNL     1       3.074  -4.875  24.666  0.00  0.00    +0.201 A 
ATOM     16  C   UNL     1       2.649  -4.356  25.891  0.00  0.00    +0.161 A 
ATOM     17  C   UNL     1       3.250  -3.223  26.427  0.00  0.00    +0.050 A 
BRANCH  16  18
ATOM     18  O   UNL     1       1.649  -4.991  26.575  0.00  0.00    -0.503 OA
ATOM     19  H   UNL     1       1.710  -4.729  27.511  0.00  0.00    +0.292 HD
ENDBRANCH  16  18
BRANCH  15  20
ATOM     20  O   UNL     1       2.407  -5.974  24.185  0.00  0.00    -0.321 OA
BRANCH  20  21
ATOM     21  S   UNL     1       2.865  -7.469  24.635  0.00  0.00    +0.251 S 
ATOM     22  O   UNL     1       2.094  -7.868  25.792  0.00  0.00    -0.108 OA
ATOM     23  O   UNL     1       4.310  -7.559  24.615  0.00  0.00    -0.108 OA
BRANCH  21  24
ATOM     24  O   UNL     1       2.385  -8.377  23.392  0.00  0.00    -0.222 OA
ATOM     25  H   UNL     1       2.221  -7.771  22.641  0.00  0.00    +0.248 HD
ENDBRANCH  21  24
ENDBRANCH  20  21
ENDBRANCH  15  20
ENDBRANCH   1  13
BRANCH   5  26
ATOM     26  O   UNL     1      10.847  -1.368  22.648  0.00  0.00    -0.506 OA
ATOM     27  H   UNL     1      10.938  -1.962  23.427  0.00  0.00    +0.292 HD
ENDBRANCH   5  26
BRANCH   7  28
ATOM     28  O   UNL     1       7.977   2.341  21.645  0.00  0.00    -0.325 OA
BRANCH  28  29
ATOM     29  S   UNL     1       7.254   3.481  22.560  0.00  0.00    +0.251 S 
ATOM     30  O   UNL     1       7.806   3.460  23.895  0.00  0.00    -0.108 OA
ATOM     31  O   UNL     1       5.827   3.434  22.317  0.00  0.00    -0.108 OA
BRANCH  29  32
ATOM     32  O   UNL     1       7.741   4.853  21.863  0.00  0.00    -0.222 OA
ATOM     33  H   UNL     1       7.039   5.125  21.237  0.00  0.00    +0.248 HD
ENDBRANCH  29  32
ENDBRANCH  28  29
ENDBRANCH   7  28
BRANCH  11  34
ATOM     34  O   UNL     1       7.578  -4.688  24.911  0.00  0.00    -0.317 OA
BRANCH  34  35
ATOM     35  S   UNL     1       8.050  -4.826  26.453  0.00  0.00    +0.252 S 
ATOM     36  O   UNL     1       7.447  -5.993  27.054  0.00  0.00    -0.108 OA
ATOM     37  O   UNL     1       7.973  -3.517  27.061  0.00  0.00    -0.108 OA
BRANCH  35  38
ATOM     38  O   UNL     1       9.631  -5.120  26.321  0.00  0.00    -0.222 OA
ATOM     39  H   UNL     1      10.056  -4.843  27.159  0.00  0.00    +0.248 HD
ENDBRANCH  35  38
ENDBRANCH  34  35
ENDBRANCH  11  34
TORSDOF 12
ENDMDL
MODEL 4
REMARK VINA RESULT:      -7.2      3.063      3.987
REMARK  Name = 
REMARK  12 active torsions:
REMARK  status: ('A' for Active; 'I' for Inactive)
REMARK    1  A    between atoms: C_3  and  O_34
REMARK    2  A    between atoms: C_4  and  O_29
REMARK    3  A    between atoms: C_6  and  C_7
REMARK    4  A    between atoms: C_8  and  O_24
REMARK    5  A    between atoms: C_12  and  O_23
REMARK    6  A    between atoms: C_14  and  O_18
REMARK    7  A    between atoms: O_18  and  S_19
REMARK    8  A    between atoms: S_19  and  O_22
REMARK    9  A    between atoms: O_24  and  S_25
REMARK   10  A    between atoms: S_25  and  O_28
REMARK   11  A    between atoms: O_29  and  S_30
REMARK   12  A    between atoms: S_30  and  O_33
REMARK                            x       y       z     vdW  Elec       q    Type
REMARK                         _______ _______ _______ _____ _____    ______ ____
ROOT
ATOM      1  C   UNL     1       7.553  -0.638  22.945  0.00  0.00    +0.184 A 
ATOM      2  O   UNL     1       6.456  -1.466  22.706  0.00  0.00    -0.451 OA
ATOM      3  C   UNL     1       6.590  -2.822  22.841  0.00  0.00    +0.147 A 
ATOM      4  C   UNL     1       7.758  -3.407  23.315  0.00  0.00    +0.109 A 
ATOM      5  C   UNL     1       7.821  -4.798  23.453  0.00  0.00    +0.135 A 
ATOM      6  C   UNL     1       6.731  -5.601  23.121  0.00  0.00    +0.095 A 
ATOM      7  C   UNL     1       5.555  -5.011  22.658  0.00  0.00    +0.166 A 
ATOM      8  C   UNL     1       8.887  -2.539  23.633  0.00  0.00    +0.241 A 
ATOM      9  O   UNL     1       9.919  -3.028  24.090  0.00  0.00    -0.283 OA
ATOM     10  C   UNL     1       5.492  -3.621  22.499  0.00  0.00    +0.096 A 
ATOM     11  C   UNL     1       8.755  -1.080  23.377  0.00  0.00    +0.248 A 
ENDROOT
BRANCH   1  13
ATOM     12  C   UNL     1       7.939   1.449  21.670  0.00  0.00    +0.015 A 
ATOM     13  C   UNL     1       7.190   0.757  22.636  0.00  0.00    +0.025 A 
ATOM     14  C   UNL     1       6.263   1.460  23.417  0.00  0.00    +0.064 A 
ATOM     15  C   UNL     1       6.132   2.846  23.268  0.00  0.00    +0.201 A 
ATOM     16  C   UNL     1       6.969   3.530  22.384  0.00  0.00    +0.161 A 
ATOM     17  C   UNL     1       7.841   2.836  21.553  0.00  0.00    +0.050 A 
BRANCH  16  18
ATOM     18  O   UNL     1       6.944   4.898  22.363  0.00  0.00    -0.503 OA
ATOM     19  H   UNL     1       7.738   5.208  21.892  0.00  0.00    +0.292 HD
ENDBRANCH  16  18
BRANCH  15  20
ATOM     20  O   UNL     1       5.274   3.599  24.030  0.00  0.00    -0.321 OA
BRANCH  20  21
ATOM     21  S   UNL     1       3.764   3.899  23.507  0.00  0.00    +0.251 S 
ATOM     22  O   UNL     1       3.356   5.206  23.975  0.00  0.00    -0.108 OA
ATOM     23  O   UNL     1       2.940   2.725  23.710  0.00  0.00    -0.108 OA
BRANCH  21  24
ATOM     24  O   UNL     1       3.952   3.991  21.908  0.00  0.00    -0.222 OA
ATOM     25  H   UNL     1       3.253   3.435  21.505  0.00  0.00    +0.248 HD
ENDBRANCH  21  24
ENDBRANCH  20  21
ENDBRANCH  15  20
ENDBRANCH   1  13
BRANCH   5  26
ATOM     26  O   UNL     1       8.935  -5.446  23.913  0.00  0.00    -0.506 OA
ATOM     27  H   UNL     1       8.654  -6.288  24.337  0.00  0.00    +0.292 HD
ENDBRANCH   5  26
BRANCH   7  28
ATOM     28  O   UNL     1       4.421  -5.709  22.318  0.00  0.00    -0.325 OA
BRANCH  28  29
ATOM     29  S   UNL     1       3.229  -5.976  23.398  0.00  0.00    +0.251 S 
ATOM     30  O   UNL     1       1.951  -5.656  22.805  0.00  0.00    -0.108 OA
ATOM     31  O   UNL     1       3.637  -5.444  24.680  0.00  0.00    -0.108 OA
BRANCH  29  32
ATOM     32  O   UNL     1       3.279  -7.579  23.586  0.00  0.00    -0.222 OA
ATOM     33  H   UNL     1       3.333  -7.755  24.548  0.00  0.00    +0.248 HD
ENDBRANCH  29  32
ENDBRANCH  28  29
ENDBRANCH   7  28
BRANCH  11  34
ATOM     34  O   UNL     1       9.932  -0.377  23.522  0.00  0.00    -0.317 OA
BRANCH  34  35
ATOM     35  S   UNL     1      10.289   0.620  24.745  0.00  0.00    +0.252 S 
ATOM     36  O   UNL     1       9.572   1.866  24.596  0.00  0.00    -0.108 OA
ATOM     37  O   UNL     1      11.718   0.572  24.957  0.00  0.00    -0.108 OA
BRANCH  35  38
ATOM     38  O   UNL     1       9.663  -0.139  26.024  0.00  0.00    -0.222 OA
ATOM     39  H   UNL     1       9.654   0.494  26.771  0.00  0.00    +0.248 HD
ENDBRANCH  35  38
ENDBRANCH  34  35
ENDBRANCH  11  34
TORSDOF 12
ENDMDL
MODEL 5
REMARK VINA RESULT:      -7.2      2.308      8.376
REMARK  Name = 
REMARK  12 active torsions:
REMARK  status: ('A' for Active; 'I' for Inactive)
REMARK    1  A    between atoms: C_3  and  O_34
REMARK    2  A    between atoms: C_4  and  O_29
REMARK    3  A    between atoms: C_6  and  C_7
REMARK    4  A    between atoms: C_8  and  O_24
REMARK    5  A    between atoms: C_12  and  O_23
REMARK    6  A    between atoms: C_14  and  O_18
REMARK    7  A    between atoms: O_18  and  S_19
REMARK    8  A    between atoms: S_19  and  O_22
REMARK    9  A    between atoms: O_24  and  S_25
REMARK   10  A    between atoms: S_25  and  O_28
REMARK   11  A    between atoms: O_29  and  S_30
REMARK   12  A    between atoms: S_30  and  O_33
REMARK                            x       y       z     vdW  Elec       q    Type
REMARK                         _______ _______ _______ _____ _____    ______ ____
ROOT
ATOM      1  C   UNL     1       6.424  -2.356  24.453  0.00  0.00    +0.184 A 
ATOM      2  O   UNL     1       6.149  -1.051  24.043  0.00  0.00    -0.451 OA
ATOM      3  C   UNL     1       7.035  -0.398  23.228  0.00  0.00    +0.147 A 
ATOM      4  C   UNL     1       8.157  -1.026  22.699  0.00  0.00    +0.109 A 
ATOM      5  C   UNL     1       9.008  -0.309  21.852  0.00  0.00    +0.135 A 
ATOM      6  C   UNL     1       8.747   1.023  21.534  0.00  0.00    +0.095 A 
ATOM      7  C   UNL     1       7.615   1.648  22.055  0.00  0.00    +0.166 A 
ATOM      8  C   UNL     1       8.410  -2.415  23.068  0.00  0.00    +0.241 A 
ATOM      9  O   UNL     1       9.375  -3.006  22.584  0.00  0.00    -0.283 OA
ATOM     10  C   UNL     1       6.769   0.942  22.920  0.00  0.00    +0.096 A 
ATOM     11  C   UNL     1       7.494  -3.070  24.040  0.00  0.00    +0.248 A 
ENDROOT
BRANCH   1  13
ATOM     12  C   UNL     1       4.560  -1.832  25.996  0.00  0.00    +0.015 A 
ATOM     13  C   UNL     1       5.384  -2.800  25.399  0.00  0.00    +0.025 A 
ATOM     14  C   UNL     1       5.337  -4.122  25.864  0.00  0.00    +0.064 A 
ATOM     15  C   UNL     1       4.515  -4.452  26.948  0.00  0.00    +0.201 A 
ATOM     16  C   UNL     1       3.793  -3.451  27.601  0.00  0.00    +0.161 A 
ATOM     17  C   UNL     1       3.776  -2.152  27.105  0.00  0.00    +0.050 A 
BRANCH  16  18
ATOM     18  O   UNL     1       3.122  -3.754  28.754  0.00  0.00    -0.503 OA
ATOM     19  H   UNL     1       2.199  -3.461  28.653  0.00  0.00    +0.292 HD
ENDBRANCH  16  18
BRANCH  15  20
ATOM     20  O   UNL     1       4.455  -5.717  27.479  0.00  0.00    -0.321 OA
BRANCH  20  21
ATOM     21  S   UNL     1       5.525  -6.180  28.612  0.00  0.00    +0.251 S 
ATOM     22  O   UNL     1       6.658  -5.282  28.583  0.00  0.00    -0.108 OA
ATOM     23  O   UNL     1       5.691  -7.618  28.562  0.00  0.00    -0.108 OA
BRANCH  21  24
ATOM     24  O   UNL     1       4.726  -5.911  29.987  0.00  0.00    -0.222 OA
ATOM     25  H   UNL     1       4.975  -5.015  30.293  0.00  0.00    +0.248 HD
ENDBRANCH  21  24
ENDBRANCH  20  21
ENDBRANCH  15  20
ENDBRANCH   1  13
BRANCH   5  26
ATOM     26  O   UNL     1      10.130  -0.860  21.292  0.00  0.00    -0.506 OA
ATOM     27  H   UNL     1       9.867  -1.670  20.800  0.00  0.00    +0.292 HD
ENDBRANCH   5  26
BRANCH   7  28
ATOM     28  O   UNL     1       7.260   2.949  21.794  0.00  0.00    -0.325 OA
BRANCH  28  29
ATOM     29  S   UNL     1       7.604   4.152  22.841  0.00  0.00    +0.251 S 
ATOM     30  O   UNL     1       8.880   3.902  23.471  0.00  0.00    -0.108 OA
ATOM     31  O   UNL     1       6.414   4.454  23.608  0.00  0.00    -0.108 OA
BRANCH  29  32
ATOM     32  O   UNL     1       7.795   5.423  21.865  0.00  0.00    -0.222 OA
ATOM     33  H   UNL     1       7.110   5.357  21.167  0.00  0.00    +0.248 HD
ENDBRANCH  29  32
ENDBRANCH  28  29
ENDBRANCH   7  28
BRANCH  11  34
ATOM     34  O   UNL     1       7.927  -4.305  24.472  0.00  0.00    -0.317 OA
BRANCH  34  35
ATOM     35  S   UNL     1       8.973  -4.567  25.680  0.00  0.00    +0.252 S 
ATOM     36  O   UNL     1       8.879  -3.506  26.656  0.00  0.00    -0.108 OA
ATOM     37  O   UNL     1      10.232  -4.972  25.099  0.00  0.00    -0.108 OA
BRANCH  35  38
ATOM     38  O   UNL     1       8.395  -5.905  26.372  0.00  0.00    -0.222 OA
ATOM     39  H   UNL     1       7.993  -6.455  25.668  0.00  0.00    +0.248 HD
ENDBRANCH  35  38
ENDBRANCH  34  35
ENDBRANCH  11  34
TORSDOF 12
ENDMDL
MODEL 6
REMARK VINA RESULT:      -7.2      2.884      4.420
REMARK  Name = 
REMARK  12 active torsions:
REMARK  status: ('A' for Active; 'I' for Inactive)
REMARK    1  A    between atoms: C_3  and  O_34
REMARK    2  A    between atoms: C_4  and  O_29
REMARK    3  A    between atoms: C_6  and  C_7
REMARK    4  A    between atoms: C_8  and  O_24
REMARK    5  A    between atoms: C_12  and  O_23
REMARK    6  A    between atoms: C_14  and  O_18
REMARK    7  A    between atoms: O_18  and  S_19
REMARK    8  A    between atoms: S_19  and  O_22
REMARK    9  A    between atoms: O_24  and  S_25
REMARK   10  A    between atoms: S_25  and  O_28
REMARK   11  A    between atoms: O_29  and  S_30
REMARK   12  A    between atoms: S_30  and  O_33
REMARK                            x       y       z     vdW  Elec       q    Type
REMARK                         _______ _______ _______ _____ _____    ______ ____
ROOT
ATOM      1  C   UNL     1       7.229  -2.783  24.176  0.00  0.00    +0.184 A 
ATOM      2  O   UNL     1       6.294  -3.643  23.600  0.00  0.00    -0.451 OA
ATOM      3  C   UNL     1       5.850  -4.730  24.306  0.00  0.00    +0.147 A 
ATOM      4  C   UNL     1       6.217  -4.955  25.627  0.00  0.00    +0.109 A 
ATOM      5  C   UNL     1       5.708  -6.071  26.300  0.00  0.00    +0.135 A 
ATOM      6  C   UNL     1       4.842  -6.958  25.662  0.00  0.00    +0.095 A 
ATOM      7  C   UNL     1       4.465  -6.724  24.340  0.00  0.00    +0.166 A 
ATOM      8  C   UNL     1       7.141  -4.018  26.258  0.00  0.00    +0.241 A 
ATOM      9  O   UNL     1       7.452  -4.173  27.438  0.00  0.00    -0.283 OA
ATOM     10  C   UNL     1       4.986  -5.619  23.655  0.00  0.00    +0.096 A 
ATOM     11  C   UNL     1       7.694  -2.906  25.440  0.00  0.00    +0.248 A 
ENDROOT
BRANCH   1  13
ATOM     12  C   UNL     1       8.853  -1.903  22.528  0.00  0.00    +0.015 A 
ATOM     13  C   UNL     1       7.624  -1.759  23.191  0.00  0.00    +0.025 A 
ATOM     14  C   UNL     1       6.908  -0.562  23.057  0.00  0.00    +0.064 A 
ATOM     15  C   UNL     1       7.446   0.494  22.312  0.00  0.00    +0.201 A 
ATOM     16  C   UNL     1       8.722   0.372  21.758  0.00  0.00    +0.161 A 
ATOM     17  C   UNL     1       9.410  -0.835  21.823  0.00  0.00    +0.050 A 
BRANCH  16  18
ATOM     18  O   UNL     1       9.304   1.461  21.171  0.00  0.00    -0.503 OA
ATOM     19  H   UNL     1       9.815   1.154  20.401  0.00  0.00    +0.292 HD
ENDBRANCH  16  18
BRANCH  15  20
ATOM     20  O   UNL     1       6.817   1.706  22.176  0.00  0.00    -0.321 OA
BRANCH  20  21
ATOM     21  S   UNL     1       7.082   2.891  23.259  0.00  0.00    +0.251 S 
ATOM     22  O   UNL     1       5.808   3.390  23.729  0.00  0.00    -0.108 OA
ATOM     23  O   UNL     1       8.112   3.779  22.762  0.00  0.00    -0.108 OA
BRANCH  21  24
ATOM     24  O   UNL     1       7.779   2.105  24.483  0.00  0.00    -0.222 OA
ATOM     25  H   UNL     1       8.433   2.716  24.880  0.00  0.00    +0.248 HD
ENDBRANCH  21  24
ENDBRANCH  20  21
ENDBRANCH  15  20
ENDBRANCH   1  13
BRANCH   5  26
ATOM     26  O   UNL     1       6.023  -6.358  27.601  0.00  0.00    -0.506 OA
ATOM     27  H   UNL     1       5.292  -6.891  27.988  0.00  0.00    +0.292 HD
ENDBRANCH   5  26
BRANCH   7  28
ATOM     28  O   UNL     1       3.608  -7.527  23.626  0.00  0.00    -0.325 OA
BRANCH  28  29
ATOM     29  S   UNL     1       2.126  -7.905  24.190  0.00  0.00    +0.251 S 
ATOM     30  O   UNL     1       1.287  -8.350  23.101  0.00  0.00    -0.108 OA
ATOM     31  O   UNL     1       1.704  -6.874  25.114  0.00  0.00    -0.108 OA
BRANCH  29  32
ATOM     32  O   UNL     1       2.421  -9.191  25.120  0.00  0.00    -0.222 OA
ATOM     33  H   UNL     1       1.960  -9.044  25.972  0.00  0.00    +0.248 HD
ENDBRANCH  29  32
ENDBRANCH  28  29
ENDBRANCH   7  28
BRANCH  11  34
ATOM     34  O   UNL     1       8.700  -2.199  26.062  0.00  0.00    -0.317 OA
BRANCH  34  35
ATOM     35  S   UNL     1       8.694  -0.606  26.348  0.00  0.00    +0.252 S 
ATOM     36  O   UNL     1       7.336  -0.129  26.473  0.00  0.00    -0.108 OA
ATOM     37  O   UNL     1       9.651   0.010  25.457  0.00  0.00    -0.108 OA
BRANCH  35  38
ATOM     38  O   UNL     1       9.373  -0.501  27.808  0.00  0.00    -0.222 OA
ATOM     39  H   UNL     1       8.792  -0.970  28.442  0.00  0.00    +0.248 HD
ENDBRANCH  35  38
ENDBRANCH  34  35
ENDBRANCH  11  34
TORSDOF 12
ENDMDL
MODEL 7
REMARK VINA RESULT:      -7.2      2.401      8.426
REMARK  Name = 
REMARK  12 active torsions:
REMARK  status: ('A' for Active; 'I' for Inactive)
REMARK    1  A    between atoms: C_3  and  O_34
REMARK    2  A    between atoms: C_4  and  O_29
REMARK    3  A    between atoms: C_6  and  C_7
REMARK    4  A    between atoms: C_8  and  O_24
REMARK    5  A    between atoms: C_12  and  O_23
REMARK    6  A    between atoms: C_14  and  O_18
REMARK    7  A    between atoms: O_18  and  S_19
REMARK    8  A    between atoms: S_19  and  O_22
REMARK    9  A    between atoms: O_24  and  S_25
REMARK   10  A    between atoms: S_25  and  O_28
REMARK   11  A    between atoms: O_29  and  S_30
REMARK   12  A    between atoms: S_30  and  O_33
REMARK                            x       y       z     vdW  Elec       q    Type
REMARK                         _______ _______ _______ _____ _____    ______ ____
ROOT
ATOM      1  C   UNL     1       6.702  -2.750  24.802  0.00  0.00    +0.184 A 
ATOM      2  O   UNL     1       7.126  -1.469  25.158  0.00  0.00    -0.451 OA
ATOM      3  C   UNL     1       7.989  -0.790  24.339  0.00  0.00    +0.147 A 
ATOM      4  C   UNL     1       8.382  -1.288  23.102  0.00  0.00    +0.109 A 
ATOM      5  C   UNL     1       9.247  -0.533  22.303  0.00  0.00    +0.135 A 
ATOM      6  C   UNL     1       9.718   0.707  22.731  0.00  0.00    +0.095 A 
ATOM      7  C   UNL     1       9.313   1.210  23.967  0.00  0.00    +0.166 A 
ATOM      8  C   UNL     1       7.885  -2.598  22.694  0.00  0.00    +0.241 A 
ATOM      9  O   UNL     1       8.187  -3.044  21.588  0.00  0.00    -0.283 OA
ATOM     10  C   UNL     1       8.463   0.451  24.781  0.00  0.00    +0.096 A 
ATOM     11  C   UNL     1       7.035  -3.363  23.645  0.00  0.00    +0.248 A 
ENDROOT
BRANCH   1  13
ATOM     12  C   UNL     1       4.576  -2.792  26.070  0.00  0.00    +0.015 A 
ATOM     13  C   UNL     1       5.869  -3.307  25.884  0.00  0.00    +0.025 A 
ATOM     14  C   UNL     1       6.405  -4.179  26.841  0.00  0.00    +0.064 A 
ATOM     15  C   UNL     1       5.673  -4.484  27.996  0.00  0.00    +0.201 A 
ATOM     16  C   UNL     1       4.438  -3.869  28.216  0.00  0.00    +0.161 A 
ATOM     17  C   UNL     1       3.866  -3.059  27.241  0.00  0.00    +0.050 A 
BRANCH  16  18
ATOM     18  O   UNL     1       3.807  -4.047  29.416  0.00  0.00    -0.503 OA
ATOM     19  H   UNL     1       4.329  -3.597  30.103  0.00  0.00    +0.292 HD
ENDBRANCH  16  18
BRANCH  15  20
ATOM     20  O   UNL     1       6.155  -5.295  28.991  0.00  0.00    -0.321 OA
BRANCH  20  21
ATOM     21  S   UNL     1       5.688  -6.850  29.078  0.00  0.00    +0.251 S 
ATOM     22  O   UNL     1       4.512  -6.941  29.915  0.00  0.00    -0.108 OA
ATOM     23  O   UNL     1       6.846  -7.692  29.296  0.00  0.00    -0.108 OA
BRANCH  21  24
ATOM     24  O   UNL     1       5.233  -7.170  27.564  0.00  0.00    -0.222 OA
ATOM     25  H   UNL     1       5.777  -7.924  27.255  0.00  0.00    +0.248 HD
ENDBRANCH  21  24
ENDBRANCH  20  21
ENDBRANCH  15  20
ENDBRANCH   1  13
BRANCH   5  26
ATOM     26  O   UNL     1       9.676  -0.956  21.074  0.00  0.00    -0.506 OA
ATOM     27  H   UNL     1       9.289  -0.365  20.388  0.00  0.00    +0.292 HD
ENDBRANCH   5  26
BRANCH   7  28
ATOM     28  O   UNL     1       9.708   2.424  24.475  0.00  0.00    -0.325 OA
BRANCH  28  29
ATOM     29  S   UNL     1       8.906   3.798  24.119  0.00  0.00    +0.251 S 
ATOM     30  O   UNL     1       8.592   4.511  25.336  0.00  0.00    -0.108 OA
ATOM     31  O   UNL     1       7.901   3.504  23.120  0.00  0.00    -0.108 OA
BRANCH  29  32
ATOM     32  O   UNL     1      10.021   4.663  23.335  0.00  0.00    -0.222 OA
ATOM     33  H   UNL     1       9.551   5.386  22.868  0.00  0.00    +0.248 HD
ENDBRANCH  29  32
ENDBRANCH  28  29
ENDBRANCH   7  28
BRANCH  11  34
ATOM     34  O   UNL     1       6.782  -4.659  23.251  0.00  0.00    -0.317 OA
BRANCH  34  35
ATOM     35  S   UNL     1       5.497  -5.152  22.400  0.00  0.00    +0.252 S 
ATOM     36  O   UNL     1       5.870  -5.377  21.023  0.00  0.00    -0.108 OA
ATOM     37  O   UNL     1       4.373  -4.321  22.770  0.00  0.00    -0.108 OA
BRANCH  35  38
ATOM     38  O   UNL     1       5.167  -6.593  23.048  0.00  0.00    -0.222 OA
ATOM     39  H   UNL     1       4.693  -6.439  23.891  0.00  0.00    +0.248 HD
ENDBRANCH  35  38
ENDBRANCH  34  35
ENDBRANCH  11  34
TORSDOF 12
ENDMDL
MODEL 8
REMARK VINA RESULT:      -7.1      2.585      8.653
REMARK  Name = 
REMARK  12 active torsions:
REMARK  status: ('A' for Active; 'I' for Inactive)
REMARK    1  A    between atoms: C_3  and  O_34
REMARK    2  A    between atoms: C_4  and  O_29
REMARK    3  A    between atoms: C_6  and  C_7
REMARK    4  A    between atoms: C_8  and  O_24
REMARK    5  A    between atoms: C_12  and  O_23
REMARK    6  A    between atoms: C_14  and  O_18
REMARK    7  A    between atoms: O_18  and  S_19
REMARK    8  A    between atoms: S_19  and  O_22
REMARK    9  A    between atoms: O_24  and  S_25
REMARK   10  A    between atoms: S_25  and  O_28
REMARK   11  A    between atoms: O_29  and  S_30
REMARK   12  A    between atoms: S_30  and  O_33
REMARK                            x       y       z     vdW  Elec       q    Type
REMARK                         _______ _______ _______ _____ _____    ______ ____
ROOT
ATOM      1  C   UNL     1       7.146  -3.212  24.634  0.00  0.00    +0.184 A 
ATOM      2  O   UNL     1       7.426  -1.955  25.169  0.00  0.00    -0.451 OA
ATOM      3  C   UNL     1       8.080  -1.025  24.404  0.00  0.00    +0.147 A 
ATOM      4  C   UNL     1       8.385  -1.249  23.067  0.00  0.00    +0.109 A 
ATOM      5  C   UNL     1       9.032  -0.248  22.334  0.00  0.00    +0.135 A 
ATOM      6  C   UNL     1       9.374   0.966  22.928  0.00  0.00    +0.095 A 
ATOM      7  C   UNL     1       9.057   1.193  24.266  0.00  0.00    +0.166 A 
ATOM      8  C   UNL     1       8.030  -2.538  22.482  0.00  0.00    +0.241 A 
ATOM      9  O   UNL     1       8.254  -2.748  21.291  0.00  0.00    -0.283 OA
ATOM     10  C   UNL     1       8.426   0.188  25.011  0.00  0.00    +0.096 A 
ATOM     11  C   UNL     1       7.418  -3.571  23.360  0.00  0.00    +0.248 A 
ENDROOT
BRANCH   1  13
ATOM     12  C   UNL     1       7.375  -4.670  26.622  0.00  0.00    +0.015 A 
ATOM     13  C   UNL     1       6.536  -4.061  25.675  0.00  0.00    +0.025 A 
ATOM     14  C   UNL     1       5.186  -4.432  25.615  0.00  0.00    +0.064 A 
ATOM     15  C   UNL     1       4.700  -5.439  26.458  0.00  0.00    +0.201 A 
ATOM     16  C   UNL     1       5.578  -6.112  27.311  0.00  0.00    +0.161 A 
ATOM     17  C   UNL     1       6.902  -5.705  27.430  0.00  0.00    +0.050 A 
BRANCH  16  18
ATOM     18  O   UNL     1       5.129  -7.198  28.010  0.00  0.00    -0.503 OA
ATOM     19  H   UNL     1       5.183  -7.977  27.428  0.00  0.00    +0.292 HD
ENDBRANCH  16  18
BRANCH  15  20
ATOM     20  O   UNL     1       3.401  -5.879  26.421  0.00  0.00    -0.321 OA
BRANCH  20  21
ATOM     21  S   UNL     1       2.919  -6.911  25.260  0.00  0.00    +0.251 S 
ATOM     22  O   UNL     1       1.570  -7.345  25.548  0.00  0.00    -0.108 OA
ATOM     23  O   UNL     1       3.981  -7.857  24.983  0.00  0.00    -0.108 OA
BRANCH  21  24
ATOM     24  O   UNL     1       2.860  -5.972  23.950  0.00  0.00    -0.222 OA
ATOM     25  H   UNL     1       1.927  -5.952  23.654  0.00  0.00    +0.248 HD
ENDBRANCH  21  24
ENDBRANCH  20  21
ENDBRANCH  15  20
ENDBRANCH   1  13
BRANCH   5  26
ATOM     26  O   UNL     1       9.363  -0.395  21.014  0.00  0.00    -0.506 OA
ATOM     27  H   UNL     1       9.428  -1.356  20.814  0.00  0.00    +0.292 HD
ENDBRANCH   5  26
BRANCH   7  28
ATOM     28  O   UNL     1       9.337   2.357  24.941  0.00  0.00    -0.325 OA
BRANCH  28  29
ATOM     29  S   UNL     1       8.548   3.745  24.610  0.00  0.00    +0.251 S 
ATOM     30  O   UNL     1       8.594   4.620  25.760  0.00  0.00    -0.108 OA
ATOM     31  O   UNL     1       7.307   3.424  23.938  0.00  0.00    -0.108 OA
BRANCH  29  32
ATOM     32  O   UNL     1       9.472   4.411  23.467  0.00  0.00    -0.222 OA
ATOM     33  H   UNL     1       9.990   3.688  23.056  0.00  0.00    +0.248 HD
ENDBRANCH  29  32
ENDBRANCH  28  29
ENDBRANCH   7  28
BRANCH  11  34
ATOM     34  O   UNL     1       7.302  -4.811  22.769  0.00  0.00    -0.317 OA
BRANCH  34  35
ATOM     35  S   UNL     1       5.999  -5.363  21.984  0.00  0.00    +0.252 S 
ATOM     36  O   UNL     1       6.368  -5.807  20.660  0.00  0.00    -0.108 OA
ATOM     37  O   UNL     1       4.915  -4.435  22.213  0.00  0.00    -0.108 OA
BRANCH  35  38
ATOM     38  O   UNL     1       5.597  -6.675  22.833  0.00  0.00    -0.222 OA
ATOM     39  H   UNL     1       6.368  -6.922  23.383  0.00  0.00    +0.248 HD
ENDBRANCH  35  38
ENDBRANCH  34  35
ENDBRANCH  11  34
TORSDOF 12
ENDMDL
MODEL 9
REMARK VINA RESULT:      -7.0      2.723      3.447
REMARK  Name = 
REMARK  12 active torsions:
REMARK  status: ('A' for Active; 'I' for Inactive)
REMARK    1  A    between atoms: C_3  and  O_34
REMARK    2  A    between atoms: C_4  and  O_29
REMARK    3  A    between atoms: C_6  and  C_7
REMARK    4  A    between atoms: C_8  and  O_24
REMARK    5  A    between atoms: C_12  and  O_23
REMARK    6  A    between atoms: C_14  and  O_18
REMARK    7  A    between atoms: O_18  and  S_19
REMARK    8  A    between atoms: S_19  and  O_22
REMARK    9  A    between atoms: O_24  and  S_25
REMARK   10  A    between atoms: S_25  and  O_28
REMARK   11  A    between atoms: O_29  and  S_30
REMARK   12  A    between atoms: S_30  and  O_33
REMARK                            x       y       z     vdW  Elec       q    Type
REMARK                         _______ _______ _______ _____ _____    ______ ____
ROOT
ATOM      1  C   UNL     1       7.550  -0.491  23.128  0.00  0.00    +0.184 A 
ATOM      2  O   UNL     1       6.404  -1.272  22.974  0.00  0.00    -0.451 OA
ATOM      3  C   UNL     1       6.503  -2.636  23.028  0.00  0.00    +0.147 A 
ATOM      4  C   UNL     1       7.694  -3.281  23.339  0.00  0.00    +0.109 A 
ATOM      5  C   UNL     1       7.722  -4.679  23.402  0.00  0.00    +0.135 A 
ATOM      6  C   UNL     1       6.573  -5.429  23.156  0.00  0.00    +0.095 A 
ATOM      7  C   UNL     1       5.376  -4.780  22.856  0.00  0.00    +0.166 A 
ATOM      8  C   UNL     1       8.882  -2.466  23.571  0.00  0.00    +0.241 A 
ATOM      9  O   UNL     1       9.940  -3.009  23.886  0.00  0.00    -0.283 OA
ATOM     10  C   UNL     1       5.346  -3.383  22.771  0.00  0.00    +0.096 A 
ATOM     11  C   UNL     1       8.776  -0.992  23.402  0.00  0.00    +0.248 A 
ENDROOT
BRANCH   1  13
ATOM     12  C   UNL     1       7.583   1.550  21.728  0.00  0.00    +0.015 A 
ATOM     13  C   UNL     1       7.206   0.928  22.929  0.00  0.00    +0.025 A 
ATOM     14  C   UNL     1       6.703   1.711  23.978  0.00  0.00    +0.064 A 
ATOM     15  C   UNL     1       6.632   3.103  23.839  0.00  0.00    +0.201 A 
ATOM     16  C   UNL     1       7.121   3.709  22.680  0.00  0.00    +0.161 A 
ATOM     17  C   UNL     1       7.555   2.939  21.606  0.00  0.00    +0.050 A 
BRANCH  16  18
ATOM     18  O   UNL     1       7.196   5.073  22.619  0.00  0.00    -0.503 OA
ATOM     19  H   UNL     1       6.445   5.395  22.090  0.00  0.00    +0.292 HD
ENDBRANCH  16  18
BRANCH  15  20
ATOM     20  O   UNL     1       6.191   3.930  24.841  0.00  0.00    -0.321 OA
BRANCH  20  21
ATOM     21  S   UNL     1       7.180   4.327  26.069  0.00  0.00    +0.251 S 
ATOM     22  O   UNL     1       8.426   4.823  25.526  0.00  0.00    -0.108 OA
ATOM     23  O   UNL     1       7.148   3.284  27.073  0.00  0.00    -0.108 OA
BRANCH  21  24
ATOM     24  O   UNL     1       6.416   5.572  26.753  0.00  0.00    -0.222 OA
ATOM     25  H   UNL     1       6.827   6.388  26.400  0.00  0.00    +0.248 HD
ENDBRANCH  21  24
ENDBRANCH  20  21
ENDBRANCH  15  20
ENDBRANCH   1  13
BRANCH   5  26
ATOM     26  O   UNL     1       8.856  -5.383  23.704  0.00  0.00    -0.506 OA
ATOM     27  H   UNL     1       9.610  -4.984  23.213  0.00  0.00    +0.292 HD
ENDBRANCH   5  26
BRANCH   7  28
ATOM     28  O   UNL     1       4.187  -5.425  22.610  0.00  0.00    -0.325 OA
BRANCH  28  29
ATOM     29  S   UNL     1       3.301  -6.068  23.819  0.00  0.00    +0.251 S 
ATOM     30  O   UNL     1       1.919  -6.170  23.411  0.00  0.00    -0.108 OA
ATOM     31  O   UNL     1       3.691  -5.441  25.064  0.00  0.00    -0.108 OA
BRANCH  29  32
ATOM     32  O   UNL     1       3.881  -7.570  23.919  0.00  0.00    -0.222 OA
ATOM     33  H   UNL     1       4.568  -7.570  24.618  0.00  0.00    +0.248 HD
ENDBRANCH  29  32
ENDBRANCH  28  29
ENDBRANCH   7  28
BRANCH  11  34
ATOM     34  O   UNL     1       9.985  -0.334  23.449  0.00  0.00    -0.317 OA
BRANCH  34  35
ATOM     35  S   UNL     1      10.472   0.660  24.630  0.00  0.00    +0.252 S 
ATOM     36  O   UNL     1       9.938   1.985  24.415  0.00  0.00    -0.108 OA
ATOM     37  O   UNL     1      11.880   0.423  24.860  0.00  0.00    -0.108 OA
BRANCH  35  38
ATOM     38  O   UNL     1       9.740   0.056  25.934  0.00  0.00    -0.222 OA
ATOM     39  H   UNL     1       8.860   0.479  26.005  0.00  0.00    +0.248 HD
ENDBRANCH  35  38
ENDBRANCH  34  35
ENDBRANCH  11  34
TORSDOF 12
ENDMDL
