MODEL 1
REMARK VINA RESULT:      -7.7      0.000      0.000
REMARK  Name = 
REMARK  30 active torsions:
REMARK  status: ('A' for Active; 'I' for Inactive)
REMARK    1  A    between atoms: C_1  and  C_2
REMARK    2  A    between atoms: C_3  and  O_78
REMARK    3  A    between atoms: C_5  and  O_77
REMARK    4  A    between atoms: C_6  and  O_76
REMARK    5  A    between atoms: C_8  and  O_11
REMARK    6  A    between atoms: O_11  and  C_12
REMARK    7  A    between atoms: C_13  and  O_75
REMARK    8  A    between atoms: C_15  and  O_74
REMARK    9  A    between atoms: C_17  and  C_58
REMARK   10  A    between atoms: C_19  and  O_21
REMARK   11  A    between atoms: O_21  and  C_22
REMARK   12  A    between atoms: C_22  and  C_23
REMARK   13  A    between atoms: C_24  and  O_57
REMARK   14  A    between atoms: C_26  and  O_56
REMARK   15  A    between atoms: C_28  and  O_55
REMARK   16  A    between atoms: C_29  and  O_32
REMARK   17  A    between atoms: O_32  and  C_33
REMARK   18  A    between atoms: C_34  and  C_46
REMARK   19  A    between atoms: C_38  and  O_45
REMARK   20  A    between atoms: C_40  and  O_44
REMARK   21  A    between atoms: C_48  and  O_53
REMARK   22  A    between atoms: C_49  and  O_52
REMARK   23  A    between atoms: O_53  and  C_54
REMARK   24  A    between atoms: C_58  and  O_59
REMARK   25  A    between atoms: O_59  and  C_60
REMARK   26  A    between atoms: C_62  and  O_73
REMARK   27  A    between atoms: C_63  and  O_72
REMARK   28  A    between atoms: C_65  and  O_71
REMARK   29  A    between atoms: C_67  and  C_69
REMARK   30  A    between atoms: C_69  and  O_70
REMARK                            x       y       z     vdW  Elec       q    Type
REMARK                         _______ _______ _______ _____ _____    ______ ____
ROOT
ATOM      1  C   UNL     1       5.662  -0.846  27.485  0.00  0.00    +0.208 C 
ATOM      2  C   UNL     1       5.964  -1.393  26.028  0.00  0.00    +0.282 C 
ATOM      3  O   UNL     1       4.779  -1.433  25.213  0.00  0.00    -0.341 OA
ATOM      4  C   UNL     1       3.688  -2.238  25.730  0.00  0.00    +0.178 C 
ATOM      5  C   UNL     1       3.317  -1.835  27.173  0.00  0.00    +0.177 C 
ATOM      6  C   UNL     1       4.570  -1.776  28.058  0.00  0.00    +0.179 C 
ENDROOT
BRANCH   6   7
ATOM      7  O   UNL     1       4.202  -1.432  29.401  0.00  0.00    -0.386 OA
ATOM      8  H   UNL     1       4.512  -2.161  29.972  0.00  0.00    +0.210 HD
ENDBRANCH   6   7
BRANCH   5   9
ATOM      9  O   UNL     1       2.370  -2.748  27.736  0.00  0.00    -0.386 OA
ATOM     10  H   UNL     1       1.524  -2.272  27.836  0.00  0.00    +0.210 HD
ENDBRANCH   5   9
BRANCH   4  11
ATOM     11  C   UNL     1       3.964  -3.753  25.557  0.00  0.00    +0.197 C 
BRANCH  11  12
ATOM     12  O   UNL     1       4.660  -4.182  24.381  0.00  0.00    -0.346 OA
BRANCH  12  13
ATOM     13  C   UNL     1       5.248  -5.496  24.390  0.00  0.00    +0.282 C 
ATOM     14  O   UNL     1       6.331  -5.517  25.345  0.00  0.00    -0.341 OA
ATOM     15  C   UNL     1       7.362  -4.556  25.043  0.00  0.00    +0.178 C 
ATOM     16  C   UNL     1       7.980  -4.823  23.649  0.00  0.00    +0.177 C 
ATOM     17  C   UNL     1       6.881  -4.898  22.577  0.00  0.00    +0.179 C 
ATOM     18  C   UNL     1       5.801  -5.909  23.009  0.00  0.00    +0.201 C 
BRANCH  18  19
ATOM     19  O   UNL     1       4.776  -6.029  22.018  0.00  0.00    -0.384 OA
ATOM     20  H   UNL     1       4.985  -5.392  21.308  0.00  0.00    +0.210 HD
ENDBRANCH  18  19
BRANCH  17  21
ATOM     21  O   UNL     1       6.312  -3.608  22.310  0.00  0.00    -0.386 OA
ATOM     22  H   UNL     1       5.478  -3.749  21.819  0.00  0.00    +0.210 HD
ENDBRANCH  17  21
BRANCH  16  23
ATOM     23  O   UNL     1       8.684  -6.069  23.630  0.00  0.00    -0.386 OA
ATOM     24  H   UNL     1       9.256  -6.101  24.418  0.00  0.00    +0.210 HD
ENDBRANCH  16  23
BRANCH  15  25
ATOM     25  C   UNL     1       8.381  -4.548  26.199  0.00  0.00    +0.190 C 
BRANCH  25  26
ATOM     26  O   UNL     1       9.028  -5.795  26.419  0.00  0.00    -0.392 OA
ATOM     27  H   UNL     1       9.522  -5.701  27.256  0.00  0.00    +0.210 HD
ENDBRANCH  25  26
ENDBRANCH  15  25
ENDBRANCH  12  13
ENDBRANCH  11  12
ENDBRANCH   4  11
BRANCH   2  28
ATOM     28  O   UNL     1       7.104  -0.840  25.326  0.00  0.00    -0.346 OA
BRANCH  28  29
ATOM     29  C   UNL     1       8.357  -0.683  26.032  0.00  0.00    +0.197 C 
BRANCH  29  30
ATOM     30  C   UNL     1       9.479  -0.141  25.058  0.00  0.00    +0.179 C 
ATOM     31  O   UNL     1       9.381   1.243  24.657  0.00  0.00    -0.331 OA
ATOM     32  C   UNL     1       8.487   1.582  23.570  0.00  0.00    +0.340 C 
ATOM     33  C   UNL     1       8.596   0.651  22.328  0.00  0.00    +0.214 C 
ATOM     34  C   UNL     1       8.733  -0.820  22.742  0.00  0.00    +0.180 C 
ATOM     35  C   UNL     1       9.797  -1.004  23.825  0.00  0.00    +0.177 C 
BRANCH  34  36
ATOM     36  O   UNL     1       9.111  -1.624  21.608  0.00  0.00    -0.386 OA
ATOM     37  H   UNL     1       8.394  -1.482  20.954  0.00  0.00    +0.210 HD
ENDBRANCH  34  36
BRANCH  35  38
ATOM     38  O   UNL     1       9.937  -2.402  24.093  0.00  0.00    -0.386 OA
ATOM     39  H   UNL     1      10.884  -2.615  24.003  0.00  0.00    +0.210 HD
ENDBRANCH  35  38
BRANCH  33  40
ATOM     40  O   UNL     1       9.698   1.072  21.493  0.00  0.00    -0.383 OA
ATOM     41  H   UNL     1       9.387   1.797  20.926  0.00  0.00    +0.210 HD
ENDBRANCH  33  40
BRANCH  32  42
ATOM     42  O   UNL     1       8.774   2.960  23.124  0.00  0.00    -0.453 OA
BRANCH  42  43
ATOM     43  C   UNL     1       7.807   3.915  23.383  0.00  0.00    +0.214 A 
ATOM     44  C   UNL     1       6.474   3.795  22.740  0.00  0.00    +0.238 A 
ATOM     45  O   UNL     1       6.352   3.407  21.581  0.00  0.00    -0.283 OA
ATOM     46  C   UNL     1       5.352   4.263  23.547  0.00  0.00    +0.109 A 
ATOM     47  C   UNL     1       5.610   5.329  24.402  0.00  0.00    +0.147 A 
ATOM     48  C   UNL     1       4.545   5.850  25.129  0.00  0.00    +0.092 A 
ATOM     49  C   UNL     1       3.269   5.279  24.975  0.00  0.00    +0.124 A 
ATOM     50  C   UNL     1       3.044   4.190  24.138  0.00  0.00    +0.091 A 
ATOM     51  O   UNL     1       6.877   5.863  24.510  0.00  0.00    -0.451 OA
ATOM     52  C   UNL     1       4.106   3.673  23.433  0.00  0.00    +0.135 A 
ATOM     53  C   UNL     1       7.960   5.087  24.083  0.00  0.00    +0.181 A 
BRANCH  53  54
ATOM     54  C   UNL     1       9.291   5.727  24.358  0.00  0.00    +0.025 A 
ATOM     55  C   UNL     1       9.420   6.642  25.422  0.00  0.00    +0.015 A 
ATOM     56  C   UNL     1      10.675   7.107  25.845  0.00  0.00    +0.050 A 
ATOM     57  C   UNL     1      11.818   6.657  25.205  0.00  0.00    +0.158 A 
ATOM     58  C   UNL     1      11.738   5.741  24.151  0.00  0.00    +0.162 A 
ATOM     59  C   UNL     1      10.475   5.276  23.735  0.00  0.00    +0.061 A 
BRANCH  58  60
ATOM     60  O   UNL     1      12.956   5.365  23.638  0.00  0.00    -0.491 OA
ATOM     61  C   UNL     1      13.225   5.725  22.291  0.00  0.00    +0.277 C 
ENDBRANCH  58  60
BRANCH  57  62
ATOM     62  O   UNL     1      13.035   7.108  25.648  0.00  0.00    -0.503 OA
ATOM     63  H   UNL     1      13.681   6.777  24.994  0.00  0.00    +0.292 HD
ENDBRANCH  57  62
ENDBRANCH  53  54
BRANCH  52  64
ATOM     64  O   UNL     1       3.951   2.563  22.652  0.00  0.00    -0.506 OA
ATOM     65  H   UNL     1       3.047   2.222  22.740  0.00  0.00    +0.292 HD
ENDBRANCH  52  64
BRANCH  49  66
ATOM     66  O   UNL     1       2.178   5.753  25.644  0.00  0.00    -0.507 OA
ATOM     67  H   UNL     1       1.910   6.604  25.259  0.00  0.00    +0.292 HD
ENDBRANCH  49  66
ENDBRANCH  42  43
ENDBRANCH  32  42
ENDBRANCH  29  30
ENDBRANCH  28  29
ENDBRANCH   2  28
BRANCH   1  68
ATOM     68  O   UNL     1       5.339   0.531  27.361  0.00  0.00    -0.338 OA
BRANCH  68  72
ATOM     69  C   UNL     1       3.873   4.589  28.634  0.00  0.00    +0.041 C 
ATOM     70  C   UNL     1       5.079   4.007  27.904  0.00  0.00    +0.149 C 
ATOM     71  O   UNL     1       4.852   2.648  27.569  0.00  0.00    -0.343 OA
ATOM     72  C   UNL     1       5.285   1.541  28.371  0.00  0.00    +0.282 C 
ATOM     73  C   UNL     1       6.577   1.810  29.204  0.00  0.00    +0.201 C 
ATOM     74  C   UNL     1       6.636   3.264  29.727  0.00  0.00    +0.179 C 
ATOM     75  C   UNL     1       6.409   4.278  28.605  0.00  0.00    +0.174 C 
BRANCH  75  76
ATOM     76  O   UNL     1       7.495   4.207  27.665  0.00  0.00    -0.387 OA
ATOM     77  H   UNL     1       8.315   4.059  28.181  0.00  0.00    +0.210 HD
ENDBRANCH  75  76
BRANCH  74  78
ATOM     78  O   UNL     1       7.922   3.501  30.328  0.00  0.00    -0.386 OA
ATOM     79  H   UNL     1       7.829   4.352  30.806  0.00  0.00    +0.210 HD
ENDBRANCH  74  78
BRANCH  73  80
ATOM     80  O   UNL     1       7.774   1.535  28.448  0.00  0.00    -0.384 OA
ATOM     81  H   UNL     1       7.964   0.587  28.591  0.00  0.00    +0.210 HD
ENDBRANCH  73  80
ENDBRANCH  68  72
ENDBRANCH   1  68
TORSDOF 28
ENDMDL
MODEL 2
REMARK VINA RESULT:      -7.3      2.105      6.604
REMARK  Name = 
REMARK  30 active torsions:
REMARK  status: ('A' for Active; 'I' for Inactive)
REMARK    1  A    between atoms: C_1  and  C_2
REMARK    2  A    between atoms: C_3  and  O_78
REMARK    3  A    between atoms: C_5  and  O_77
REMARK    4  A    between atoms: C_6  and  O_76
REMARK    5  A    between atoms: C_8  and  O_11
REMARK    6  A    between atoms: O_11  and  C_12
REMARK    7  A    between atoms: C_13  and  O_75
REMARK    8  A    between atoms: C_15  and  O_74
REMARK    9  A    between atoms: C_17  and  C_58
REMARK   10  A    between atoms: C_19  and  O_21
REMARK   11  A    between atoms: O_21  and  C_22
REMARK   12  A    between atoms: C_22  and  C_23
REMARK   13  A    between atoms: C_24  and  O_57
REMARK   14  A    between atoms: C_26  and  O_56
REMARK   15  A    between atoms: C_28  and  O_55
REMARK   16  A    between atoms: C_29  and  O_32
REMARK   17  A    between atoms: O_32  and  C_33
REMARK   18  A    between atoms: C_34  and  C_46
REMARK   19  A    between atoms: C_38  and  O_45
REMARK   20  A    between atoms: C_40  and  O_44
REMARK   21  A    between atoms: C_48  and  O_53
REMARK   22  A    between atoms: C_49  and  O_52
REMARK   23  A    between atoms: O_53  and  C_54
REMARK   24  A    between atoms: C_58  and  O_59
REMARK   25  A    between atoms: O_59  and  C_60
REMARK   26  A    between atoms: C_62  and  O_73
REMARK   27  A    between atoms: C_63  and  O_72
REMARK   28  A    between atoms: C_65  and  O_71
REMARK   29  A    between atoms: C_67  and  C_69
REMARK   30  A    between atoms: C_69  and  O_70
REMARK                            x       y       z     vdW  Elec       q    Type
REMARK                         _______ _______ _______ _____ _____    ______ ____
ROOT
ATOM      1  C   UNL     1       7.892  -2.038  24.496  0.00  0.00    +0.208 C 
ATOM      2  C   UNL     1       6.587  -2.262  25.369  0.00  0.00    +0.282 C 
ATOM      3  O   UNL     1       6.904  -2.633  26.722  0.00  0.00    -0.341 OA
ATOM      4  C   UNL     1       7.703  -3.834  26.874  0.00  0.00    +0.178 C 
ATOM      5  C   UNL     1       8.996  -3.767  26.034  0.00  0.00    +0.177 C 
ATOM      6  C   UNL     1       8.682  -3.363  24.587  0.00  0.00    +0.179 C 
ENDROOT
BRANCH   6   7
ATOM      7  O   UNL     1       9.891  -3.337  23.815  0.00  0.00    -0.386 OA
ATOM      8  H   UNL     1       9.833  -2.559  23.229  0.00  0.00    +0.210 HD
ENDBRANCH   6   7
BRANCH   5   9
ATOM      9  O   UNL     1       9.685  -5.022  26.046  0.00  0.00    -0.386 OA
ATOM     10  H   UNL     1       9.123  -5.672  25.582  0.00  0.00    +0.210 HD
ENDBRANCH   5   9
BRANCH   4  11
ATOM     11  C   UNL     1       6.864  -5.114  26.626  0.00  0.00    +0.197 C 
BRANCH  11  12
ATOM     12  O   UNL     1       5.501  -4.958  26.217  0.00  0.00    -0.346 OA
BRANCH  12  13
ATOM     13  C   UNL     1       4.803  -6.126  25.747  0.00  0.00    +0.282 C 
ATOM     14  O   UNL     1       5.419  -6.578  24.522  0.00  0.00    -0.341 OA
ATOM     15  C   UNL     1       5.395  -5.580  23.482  0.00  0.00    +0.178 C 
ATOM     16  C   UNL     1       3.941  -5.173  23.137  0.00  0.00    +0.177 C 
ATOM     17  C   UNL     1       3.182  -4.753  24.405  0.00  0.00    +0.179 C 
ATOM     18  C   UNL     1       3.307  -5.855  25.475  0.00  0.00    +0.201 C 
BRANCH  18  19
ATOM     19  O   UNL     1       2.584  -5.511  26.661  0.00  0.00    -0.384 OA
ATOM     20  H   UNL     1       3.101  -4.825  27.125  0.00  0.00    +0.210 HD
ENDBRANCH  18  19
BRANCH  17  21
ATOM     21  O   UNL     1       3.641  -3.487  24.902  0.00  0.00    -0.386 OA
ATOM     22  H   UNL     1       4.088  -3.650  25.757  0.00  0.00    +0.210 HD
ENDBRANCH  17  21
BRANCH  16  23
ATOM     23  O   UNL     1       3.227  -6.268  22.552  0.00  0.00    -0.386 OA
ATOM     24  H   UNL     1       3.729  -6.570  21.773  0.00  0.00    +0.210 HD
ENDBRANCH  16  23
BRANCH  15  25
ATOM     25  C   UNL     1       6.212  -6.099  22.283  0.00  0.00    +0.190 C 
BRANCH  25  26
ATOM     26  O   UNL     1       5.494  -6.136  21.056  0.00  0.00    -0.392 OA
ATOM     27  H   UNL     1       4.551  -6.034  21.289  0.00  0.00    +0.210 HD
ENDBRANCH  25  26
ENDBRANCH  15  25
ENDBRANCH  12  13
ENDBRANCH  11  12
ENDBRANCH   4  11
BRANCH   2  28
ATOM     28  O   UNL     1       5.550  -1.253  25.296  0.00  0.00    -0.346 OA
BRANCH  28  29
ATOM     29  C   UNL     1       5.346  -0.371  26.424  0.00  0.00    +0.197 C 
BRANCH  29  30
ATOM     30  C   UNL     1       3.904   0.277  26.368  0.00  0.00    +0.179 C 
ATOM     31  O   UNL     1       3.763   1.490  25.598  0.00  0.00    -0.331 OA
ATOM     32  C   UNL     1       4.136   2.745  26.218  0.00  0.00    +0.340 C 
ATOM     33  C   UNL     1       3.595   2.939  27.663  0.00  0.00    +0.214 C 
ATOM     34  C   UNL     1       3.709   1.646  28.482  0.00  0.00    +0.180 C 
ATOM     35  C   UNL     1       3.171   0.441  27.710  0.00  0.00    +0.177 C 
BRANCH  34  36
ATOM     36  O   UNL     1       2.957   1.762  29.705  0.00  0.00    -0.386 OA
ATOM     37  H   UNL     1       3.170   2.658  30.043  0.00  0.00    +0.210 HD
ENDBRANCH  34  36
BRANCH  35  38
ATOM     38  O   UNL     1       3.221  -0.706  28.564  0.00  0.00    -0.386 OA
ATOM     39  H   UNL     1       2.309  -0.877  28.864  0.00  0.00    +0.210 HD
ENDBRANCH  35  38
BRANCH  33  40
ATOM     40  O   UNL     1       2.232   3.419  27.618  0.00  0.00    -0.383 OA
ATOM     41  H   UNL     1       2.181   4.231  28.148  0.00  0.00    +0.210 HD
ENDBRANCH  33  40
BRANCH  32  42
ATOM     42  O   UNL     1       3.625   3.858  25.394  0.00  0.00    -0.453 OA
BRANCH  42  43
ATOM     43  C   UNL     1       4.565   4.640  24.748  0.00  0.00    +0.214 A 
ATOM     44  C   UNL     1       5.590   5.358  25.547  0.00  0.00    +0.238 A 
ATOM     45  O   UNL     1       5.317   5.874  26.628  0.00  0.00    -0.283 OA
ATOM     46  C   UNL     1       6.896   5.487  24.910  0.00  0.00    +0.109 A 
ATOM     47  C   UNL     1       6.897   5.607  23.524  0.00  0.00    +0.147 A 
ATOM     48  C   UNL     1       8.119   5.808  22.891  0.00  0.00    +0.092 A 
ATOM     49  C   UNL     1       9.288   5.874  23.670  0.00  0.00    +0.124 A 
ATOM     50  C   UNL     1       9.265   5.717  25.052  0.00  0.00    +0.091 A 
ATOM     51  O   UNL     1       5.722   5.547  22.805  0.00  0.00    -0.451 OA
ATOM     52  C   UNL     1       8.054   5.505  25.669  0.00  0.00    +0.135 A 
ATOM     53  C   UNL     1       4.604   4.966  23.414  0.00  0.00    +0.181 A 
BRANCH  53  54
ATOM     54  C   UNL     1       3.421   4.854  22.493  0.00  0.00    +0.025 A 
ATOM     55  C   UNL     1       2.899   6.011  21.882  0.00  0.00    +0.015 A 
ATOM     56  C   UNL     1       1.935   5.935  20.865  0.00  0.00    +0.050 A 
ATOM     57  C   UNL     1       1.484   4.693  20.447  0.00  0.00    +0.158 A 
ATOM     58  C   UNL     1       1.981   3.518  21.019  0.00  0.00    +0.162 A 
ATOM     59  C   UNL     1       2.952   3.603  22.036  0.00  0.00    +0.061 A 
BRANCH  58  60
ATOM     60  O   UNL     1       1.463   2.366  20.480  0.00  0.00    -0.491 OA
ATOM     61  C   UNL     1       0.443   1.711  21.221  0.00  0.00    +0.277 C 
ENDBRANCH  58  60
BRANCH  57  62
ATOM     62  O   UNL     1       0.557   4.641  19.437  0.00  0.00    -0.503 OA
ATOM     63  H   UNL     1       0.710   5.451  18.912  0.00  0.00    +0.292 HD
ENDBRANCH  57  62
ENDBRANCH  53  54
BRANCH  52  64
ATOM     64  O   UNL     1       7.985   5.277  27.013  0.00  0.00    -0.506 OA
ATOM     65  H   UNL     1       7.634   4.386  27.178  0.00  0.00    +0.292 HD
ENDBRANCH  52  64
BRANCH  49  66
ATOM     66  O   UNL     1      10.517   6.088  23.114  0.00  0.00    -0.507 OA
ATOM     67  H   UNL     1      11.102   5.345  23.333  0.00  0.00    +0.292 HD
ENDBRANCH  49  66
ENDBRANCH  42  43
ENDBRANCH  32  42
ENDBRANCH  29  30
ENDBRANCH  28  29
ENDBRANCH   2  28
BRANCH   1  68
ATOM     68  O   UNL     1       8.532  -0.869  24.984  0.00  0.00    -0.338 OA
BRANCH  68  72
ATOM     69  C   UNL     1       6.379   2.123  22.404  0.00  0.00    +0.041 C 
ATOM     70  C   UNL     1       7.545   1.150  22.263  0.00  0.00    +0.149 C 
ATOM     71  O   UNL     1       7.595   0.267  23.372  0.00  0.00    -0.343 OA
ATOM     72  C   UNL     1       8.412   0.482  24.532  0.00  0.00    +0.282 C 
ATOM     73  C   UNL     1       9.726   1.280  24.261  0.00  0.00    +0.201 C 
ATOM     74  C   UNL     1       9.524   2.381  23.195  0.00  0.00    +0.179 C 
ATOM     75  C   UNL     1       8.872   1.828  21.927  0.00  0.00    +0.174 C 
BRANCH  75  76
ATOM     76  O   UNL     1       9.765   0.896  21.294  0.00  0.00    -0.387 OA
ATOM     77  H   UNL     1      10.388   0.580  21.980  0.00  0.00    +0.210 HD
ENDBRANCH  75  76
BRANCH  74  78
ATOM     78  O   UNL     1      10.800   2.957  22.860  0.00  0.00    -0.386 OA
ATOM     79  H   UNL     1      11.155   2.393  22.141  0.00  0.00    +0.210 HD
ENDBRANCH  74  78
BRANCH  73  80
ATOM     80  O   UNL     1      10.805   0.419  23.847  0.00  0.00    -0.384 OA
ATOM     81  H   UNL     1      10.657   0.248  22.897  0.00  0.00    +0.210 HD
ENDBRANCH  73  80
ENDBRANCH  68  72
ENDBRANCH   1  68
TORSDOF 28
ENDMDL
MODEL 3
REMARK VINA RESULT:      -6.9      2.129      6.620
REMARK  Name = 
REMARK  30 active torsions:
REMARK  status: ('A' for Active; 'I' for Inactive)
REMARK    1  A    between atoms: C_1  and  C_2
REMARK    2  A    between atoms: C_3  and  O_78
REMARK    3  A    between atoms: C_5  and  O_77
REMARK    4  A    between atoms: C_6  and  O_76
REMARK    5  A    between atoms: C_8  and  O_11
REMARK    6  A    between atoms: O_11  and  C_12
REMARK    7  A    between atoms: C_13  and  O_75
REMARK    8  A    between atoms: C_15  and  O_74
REMARK    9  A    between atoms: C_17  and  C_58
REMARK   10  A    between atoms: C_19  and  O_21
REMARK   11  A    between atoms: O_21  and  C_22
REMARK   12  A    between atoms: C_22  and  C_23
REMARK   13  A    between atoms: C_24  and  O_57
REMARK   14  A    between atoms: C_26  and  O_56
REMARK   15  A    between atoms: C_28  and  O_55
REMARK   16  A    between atoms: C_29  and  O_32
REMARK   17  A    between atoms: O_32  and  C_33
REMARK   18  A    between atoms: C_34  and  C_46
REMARK   19  A    between atoms: C_38  and  O_45
REMARK   20  A    between atoms: C_40  and  O_44
REMARK   21  A    between atoms: C_48  and  O_53
REMARK   22  A    between atoms: C_49  and  O_52
REMARK   23  A    between atoms: O_53  and  C_54
REMARK   24  A    between atoms: C_58  and  O_59
REMARK   25  A    between atoms: O_59  and  C_60
REMARK   26  A    between atoms: C_62  and  O_73
REMARK   27  A    between atoms: C_63  and  O_72
REMARK   28  A    between atoms: C_65  and  O_71
REMARK   29  A    between atoms: C_67  and  C_69
REMARK   30  A    between atoms: C_69  and  O_70
REMARK                            x       y       z     vdW  Elec       q    Type
REMARK                         _______ _______ _______ _____ _____    ______ ____
ROOT
ATOM      1  C   UNL     1       7.289  -1.919  23.951  0.00  0.00    +0.208 C 
ATOM      2  C   UNL     1       7.144  -1.514  25.477  0.00  0.00    +0.282 C 
ATOM      3  O   UNL     1       8.039  -2.263  26.318  0.00  0.00    -0.341 OA
ATOM      4  C   UNL     1       7.892  -3.705  26.266  0.00  0.00    +0.178 C 
ATOM      5  C   UNL     1       7.971  -4.234  24.818  0.00  0.00    +0.177 C 
ATOM      6  C   UNL     1       7.030  -3.441  23.900  0.00  0.00    +0.179 C 
ENDROOT
BRANCH   6   7
ATOM      7  O   UNL     1       7.093  -3.967  22.567  0.00  0.00    -0.386 OA
ATOM      8  H   UNL     1       7.957  -4.412  22.481  0.00  0.00    +0.210 HD
ENDBRANCH   6   7
BRANCH   5   9
ATOM      9  O   UNL     1       7.645  -5.626  24.759  0.00  0.00    -0.386 OA
ATOM     10  H   UNL     1       6.716  -5.700  24.471  0.00  0.00    +0.210 HD
ENDBRANCH   5   9
BRANCH   4  11
ATOM     11  C   UNL     1       6.633  -4.179  27.035  0.00  0.00    +0.197 C 
BRANCH  11  12
ATOM     12  O   UNL     1       5.364  -4.075  26.381  0.00  0.00    -0.346 OA
BRANCH  12  13
ATOM     13  C   UNL     1       4.414  -5.137  26.583  0.00  0.00    +0.282 C 
ATOM     14  O   UNL     1       4.437  -6.012  25.434  0.00  0.00    -0.341 OA
ATOM     15  C   UNL     1       4.108  -5.331  24.207  0.00  0.00    +0.178 C 
ATOM     16  C   UNL     1       2.691  -4.711  24.278  0.00  0.00    +0.177 C 
ATOM     17  C   UNL     1       2.552  -3.823  25.525  0.00  0.00    +0.179 C 
ATOM     18  C   UNL     1       2.973  -4.617  26.777  0.00  0.00    +0.201 C 
BRANCH  18  19
ATOM     19  O   UNL     1       2.825  -3.831  27.963  0.00  0.00    -0.384 OA
ATOM     20  H   UNL     1       2.625  -4.446  28.694  0.00  0.00    +0.210 HD
ENDBRANCH  18  19
BRANCH  17  21
ATOM     21  O   UNL     1       3.305  -2.609  25.398  0.00  0.00    -0.386 OA
ATOM     22  H   UNL     1       2.852  -1.923  25.928  0.00  0.00    +0.210 HD
ENDBRANCH  17  21
BRANCH  16  23
ATOM     23  O   UNL     1       1.689  -5.729  24.362  0.00  0.00    -0.386 OA
ATOM     24  H   UNL     1       1.914  -6.423  23.716  0.00  0.00    +0.210 HD
ENDBRANCH  16  23
BRANCH  15  25
ATOM     25  C   UNL     1       4.317  -6.306  23.032  0.00  0.00    +0.190 C 
BRANCH  25  26
ATOM     26  O   UNL     1       5.678  -6.503  22.669  0.00  0.00    -0.392 OA
ATOM     27  H   UNL     1       6.209  -6.030  23.338  0.00  0.00    +0.210 HD
ENDBRANCH  25  26
ENDBRANCH  15  25
ENDBRANCH  12  13
ENDBRANCH  11  12
ENDBRANCH   4  11
BRANCH   2  28
ATOM     28  O   UNL     1       7.128  -0.102  25.798  0.00  0.00    -0.346 OA
BRANCH  28  29
ATOM     29  C   UNL     1       6.216   0.379  26.811  0.00  0.00    +0.197 C 
BRANCH  29  30
ATOM     30  C   UNL     1       4.770   0.589  26.203  0.00  0.00    +0.179 C 
ATOM     31  O   UNL     1       4.530   1.832  25.509  0.00  0.00    -0.331 OA
ATOM     32  C   UNL     1       4.204   3.006  26.293  0.00  0.00    +0.340 C 
ATOM     33  C   UNL     1       3.133   2.769  27.396  0.00  0.00    +0.214 C 
ATOM     34  C   UNL     1       3.359   1.434  28.120  0.00  0.00    +0.180 C 
ATOM     35  C   UNL     1       3.582   0.289  27.132  0.00  0.00    +0.177 C 
BRANCH  34  36
ATOM     36  O   UNL     1       2.214   1.106  28.930  0.00  0.00    -0.386 OA
ATOM     37  H   UNL     1       1.977   0.191  28.665  0.00  0.00    +0.210 HD
ENDBRANCH  34  36
BRANCH  35  38
ATOM     38  O   UNL     1       3.691  -0.933  27.868  0.00  0.00    -0.386 OA
ATOM     39  H   UNL     1       2.885  -1.449  27.683  0.00  0.00    +0.210 HD
ENDBRANCH  35  38
BRANCH  33  40
ATOM     40  O   UNL     1       1.809   2.842  26.821  0.00  0.00    -0.383 OA
ATOM     41  H   UNL     1       1.826   2.384  25.965  0.00  0.00    +0.210 HD
ENDBRANCH  33  40
BRANCH  32  42
ATOM     42  O   UNL     1       3.695   4.059  25.393  0.00  0.00    -0.453 OA
BRANCH  42  43
ATOM     43  C   UNL     1       4.639   4.831  24.739  0.00  0.00    +0.214 A 
ATOM     44  C   UNL     1       5.639   5.587  25.535  0.00  0.00    +0.238 A 
ATOM     45  O   UNL     1       5.339   6.134  26.592  0.00  0.00    -0.283 OA
ATOM     46  C   UNL     1       6.956   5.711  24.918  0.00  0.00    +0.109 A 
ATOM     47  C   UNL     1       6.982   5.786  23.530  0.00  0.00    +0.147 A 
ATOM     48  C   UNL     1       8.213   5.982  22.913  0.00  0.00    +0.092 A 
ATOM     49  C   UNL     1       9.366   6.087  23.711  0.00  0.00    +0.124 A 
ATOM     50  C   UNL     1       9.318   5.975  25.098  0.00  0.00    +0.091 A 
ATOM     51  O   UNL     1       5.822   5.689  22.791  0.00  0.00    -0.451 OA
ATOM     52  C   UNL     1       8.098   5.768  25.697  0.00  0.00    +0.135 A 
ATOM     53  C   UNL     1       4.699   5.114  23.397  0.00  0.00    +0.181 A 
BRANCH  53  54
ATOM     54  C   UNL     1       3.536   4.958  22.458  0.00  0.00    +0.025 A 
ATOM     55  C   UNL     1       3.014   6.088  21.797  0.00  0.00    +0.015 A 
ATOM     56  C   UNL     1       2.071   5.966  20.765  0.00  0.00    +0.050 A 
ATOM     57  C   UNL     1       1.640   4.707  20.382  0.00  0.00    +0.158 A 
ATOM     58  C   UNL     1       2.138   3.557  21.004  0.00  0.00    +0.162 A 
ATOM     59  C   UNL     1       3.088   3.687  22.036  0.00  0.00    +0.061 A 
BRANCH  58  60
ATOM     60  O   UNL     1       1.642   2.381  20.496  0.00  0.00    -0.491 OA
ATOM     61  C   UNL     1       0.491   1.842  21.129  0.00  0.00    +0.277 C 
ENDBRANCH  58  60
BRANCH  57  62
ATOM     62  O   UNL     1       0.734   4.610  19.357  0.00  0.00    -0.503 OA
ATOM     63  H   UNL     1       0.284   5.477  19.334  0.00  0.00    +0.292 HD
ENDBRANCH  57  62
ENDBRANCH  53  54
BRANCH  52  64
ATOM     64  O   UNL     1       8.006   5.582  27.047  0.00  0.00    -0.506 OA
ATOM     65  H   UNL     1       7.132   5.222  27.271  0.00  0.00    +0.292 HD
ENDBRANCH  52  64
BRANCH  49  66
ATOM     66  O   UNL     1      10.603   6.298  23.172  0.00  0.00    -0.507 OA
ATOM     67  H   UNL     1      10.533   6.946  22.452  0.00  0.00    +0.292 HD
ENDBRANCH  49  66
ENDBRANCH  42  43
ENDBRANCH  32  42
ENDBRANCH  29  30
ENDBRANCH  28  29
ENDBRANCH   2  28
BRANCH   1  68
ATOM     68  O   UNL     1       8.560  -1.465  23.512  0.00  0.00    -0.338 OA
BRANCH  68  72
ATOM     69  C   UNL     1      11.000   2.312  23.682  0.00  0.00    +0.041 C 
ATOM     70  C   UNL     1       9.644   1.826  24.183  0.00  0.00    +0.149 C 
ATOM     71  O   UNL     1       9.531   0.420  24.033  0.00  0.00    -0.343 OA
ATOM     72  C   UNL     1       8.915  -0.220  22.906  0.00  0.00    +0.282 C 
ATOM     73  C   UNL     1       7.781   0.612  22.229  0.00  0.00    +0.201 C 
ATOM     74  C   UNL     1       8.093   2.126  22.233  0.00  0.00    +0.179 C 
ATOM     75  C   UNL     1       8.464   2.623  23.630  0.00  0.00    +0.174 C 
BRANCH  75  76
ATOM     76  O   UNL     1       7.327   2.504  24.502  0.00  0.00    -0.387 OA
ATOM     77  H   UNL     1       7.580   2.895  25.363  0.00  0.00    +0.210 HD
ENDBRANCH  75  76
BRANCH  74  78
ATOM     78  O   UNL     1       6.941   2.850  21.763  0.00  0.00    -0.386 OA
ATOM     79  H   UNL     1       6.527   2.265  21.093  0.00  0.00    +0.210 HD
ENDBRANCH  74  78
BRANCH  73  80
ATOM     80  O   UNL     1       6.503   0.395  22.858  0.00  0.00    -0.384 OA
ATOM     81  H   UNL     1       6.215  -0.494  22.572  0.00  0.00    +0.210 HD
ENDBRANCH  73  80
ENDBRANCH  68  72
ENDBRANCH   1  68
TORSDOF 28
ENDMDL
MODEL 4
REMARK VINA RESULT:      -6.9      1.830      2.866
REMARK  Name = 
REMARK  30 active torsions:
REMARK  status: ('A' for Active; 'I' for Inactive)
REMARK    1  A    between atoms: C_1  and  C_2
REMARK    2  A    between atoms: C_3  and  O_78
REMARK    3  A    between atoms: C_5  and  O_77
REMARK    4  A    between atoms: C_6  and  O_76
REMARK    5  A    between atoms: C_8  and  O_11
REMARK    6  A    between atoms: O_11  and  C_12
REMARK    7  A    between atoms: C_13  and  O_75
REMARK    8  A    between atoms: C_15  and  O_74
REMARK    9  A    between atoms: C_17  and  C_58
REMARK   10  A    between atoms: C_19  and  O_21
REMARK   11  A    between atoms: O_21  and  C_22
REMARK   12  A    between atoms: C_22  and  C_23
REMARK   13  A    between atoms: C_24  and  O_57
REMARK   14  A    between atoms: C_26  and  O_56
REMARK   15  A    between atoms: C_28  and  O_55
REMARK   16  A    between atoms: C_29  and  O_32
REMARK   17  A    between atoms: O_32  and  C_33
REMARK   18  A    between atoms: C_34  and  C_46
REMARK   19  A    between atoms: C_38  and  O_45
REMARK   20  A    between atoms: C_40  and  O_44
REMARK   21  A    between atoms: C_48  and  O_53
REMARK   22  A    between atoms: C_49  and  O_52
REMARK   23  A    between atoms: O_53  and  C_54
REMARK   24  A    between atoms: C_58  and  O_59
REMARK   25  A    between atoms: O_59  and  C_60
REMARK   26  A    between atoms: C_62  and  O_73
REMARK   27  A    between atoms: C_63  and  O_72
REMARK   28  A    between atoms: C_65  and  O_71
REMARK   29  A    between atoms: C_67  and  C_69
REMARK   30  A    between atoms: C_69  and  O_70
REMARK                            x       y       z     vdW  Elec       q    Type
REMARK                         _______ _______ _______ _____ _____    ______ ____
ROOT
ATOM      1  C   UNL     1       6.200  -1.076  27.200  0.00  0.00    +0.208 C 
ATOM      2  C   UNL     1       6.766  -2.022  26.060  0.00  0.00    +0.282 C 
ATOM      3  O   UNL     1       5.736  -2.433  25.144  0.00  0.00    -0.341 OA
ATOM      4  C   UNL     1       4.614  -3.138  25.735  0.00  0.00    +0.178 C 
ATOM      5  C   UNL     1       3.990  -2.340  26.900  0.00  0.00    +0.177 C 
ATOM      6  C   UNL     1       5.074  -1.882  27.885  0.00  0.00    +0.179 C 
ENDROOT
BRANCH   6   7
ATOM      7  O   UNL     1       4.473  -1.171  28.976  0.00  0.00    -0.386 OA
ATOM      8  H   UNL     1       5.186  -0.981  29.615  0.00  0.00    +0.210 HD
ENDBRANCH   6   7
BRANCH   5   9
ATOM      9  O   UNL     1       3.007  -3.119  27.590  0.00  0.00    -0.386 OA
ATOM     10  H   UNL     1       3.049  -2.877  28.535  0.00  0.00    +0.210 HD
ENDBRANCH   5   9
BRANCH   4  11
ATOM     11  C   UNL     1       4.987  -4.596  26.108  0.00  0.00    +0.197 C 
BRANCH  11  12
ATOM     12  O   UNL     1       4.064  -5.636  25.768  0.00  0.00    -0.346 OA
BRANCH  12  13
ATOM     13  C   UNL     1       2.805  -5.254  25.184  0.00  0.00    +0.282 C 
ATOM     14  O   UNL     1       1.736  -5.859  25.943  0.00  0.00    -0.341 OA
ATOM     15  C   UNL     1       1.811  -7.298  25.968  0.00  0.00    +0.178 C 
ATOM     16  C   UNL     1       1.740  -7.883  24.536  0.00  0.00    +0.177 C 
ATOM     17  C   UNL     1       2.799  -7.230  23.633  0.00  0.00    +0.179 C 
ATOM     18  C   UNL     1       2.674  -5.697  23.711  0.00  0.00    +0.201 C 
BRANCH  18  19
ATOM     19  O   UNL     1       3.625  -5.055  22.856  0.00  0.00    -0.384 OA
ATOM     20  H   UNL     1       3.261  -4.180  22.624  0.00  0.00    +0.210 HD
ENDBRANCH  18  19
BRANCH  17  21
ATOM     21  O   UNL     1       4.124  -7.665  23.970  0.00  0.00    -0.386 OA
ATOM     22  H   UNL     1       4.467  -8.181  23.213  0.00  0.00    +0.210 HD
ENDBRANCH  17  21
BRANCH  16  23
ATOM     23  O   UNL     1       0.460  -7.636  23.944  0.00  0.00    -0.386 OA
ATOM     24  H   UNL     1       0.297  -8.334  23.284  0.00  0.00    +0.210 HD
ENDBRANCH  16  23
BRANCH  15  25
ATOM     25  C   UNL     1       0.730  -7.832  26.927  0.00  0.00    +0.190 C 
BRANCH  25  26
ATOM     26  O   UNL     1       1.209  -8.755  27.896  0.00  0.00    -0.392 OA
ATOM     27  H   UNL     1       2.180  -8.780  27.792  0.00  0.00    +0.210 HD
ENDBRANCH  25  26
ENDBRANCH  15  25
ENDBRANCH  12  13
ENDBRANCH  11  12
ENDBRANCH   4  11
BRANCH   2  28
ATOM     28  O   UNL     1       7.978  -1.607  25.384  0.00  0.00    -0.346 OA
BRANCH  28  29
ATOM     29  C   UNL     1       8.758  -0.524  25.941  0.00  0.00    +0.197 C 
BRANCH  29  30
ATOM     30  C   UNL     1       9.721   0.087  24.844  0.00  0.00    +0.179 C 
ATOM     31  O   UNL     1       9.459   1.446  24.431  0.00  0.00    -0.331 OA
ATOM     32  C   UNL     1       8.431   1.675  23.437  0.00  0.00    +0.340 C 
ATOM     33  C   UNL     1       8.495   0.723  22.208  0.00  0.00    +0.214 C 
ATOM     34  C   UNL     1       8.805  -0.719  22.633  0.00  0.00    +0.180 C 
ATOM     35  C   UNL     1       9.987  -0.779  23.601  0.00  0.00    +0.177 C 
BRANCH  34  36
ATOM     36  O   UNL     1       9.135  -1.518  21.480  0.00  0.00    -0.386 OA
ATOM     37  H   UNL     1       8.678  -2.373  21.632  0.00  0.00    +0.210 HD
ENDBRANCH  34  36
BRANCH  35  38
ATOM     38  O   UNL     1      10.279  -2.151  23.878  0.00  0.00    -0.386 OA
ATOM     39  H   UNL     1       9.515  -2.672  23.570  0.00  0.00    +0.210 HD
ENDBRANCH  35  38
BRANCH  33  40
ATOM     40  O   UNL     1       9.462   1.215  21.254  0.00  0.00    -0.383 OA
ATOM     41  H   UNL     1       9.244   2.140  21.054  0.00  0.00    +0.210 HD
ENDBRANCH  33  40
BRANCH  32  42
ATOM     42  O   UNL     1       8.545   3.060  22.938  0.00  0.00    -0.453 OA
BRANCH  42  43
ATOM     43  C   UNL     1       7.616   3.971  23.406  0.00  0.00    +0.214 A 
ATOM     44  C   UNL     1       6.217   3.905  22.910  0.00  0.00    +0.238 A 
ATOM     45  O   UNL     1       5.963   3.640  21.738  0.00  0.00    -0.283 OA
ATOM     46  C   UNL     1       5.196   4.273  23.884  0.00  0.00    +0.109 A 
ATOM     47  C   UNL     1       5.551   5.246  24.812  0.00  0.00    +0.147 A 
ATOM     48  C   UNL     1       4.577   5.677  25.706  0.00  0.00    +0.092 A 
ATOM     49  C   UNL     1       3.292   5.110  25.639  0.00  0.00    +0.124 A 
ATOM     50  C   UNL     1       2.970   4.113  24.723  0.00  0.00    +0.091 A 
ATOM     51  O   UNL     1       6.823   5.780  24.831  0.00  0.00    -0.451 OA
ATOM     52  C   UNL     1       3.944   3.685  23.851  0.00  0.00    +0.135 A 
ATOM     53  C   UNL     1       7.848   5.065  24.203  0.00  0.00    +0.181 A 
BRANCH  53  54
ATOM     54  C   UNL     1       9.203   5.687  24.391  0.00  0.00    +0.025 A 
ATOM     55  C   UNL     1       9.397   6.647  25.405  0.00  0.00    +0.015 A 
ATOM     56  C   UNL     1      10.679   7.103  25.751  0.00  0.00    +0.050 A 
ATOM     57  C   UNL     1      11.783   6.599  25.085  0.00  0.00    +0.158 A 
ATOM     58  C   UNL     1      11.639   5.638  24.078  0.00  0.00    +0.162 A 
ATOM     59  C   UNL     1      10.350   5.182  23.739  0.00  0.00    +0.061 A 
BRANCH  58  60
ATOM     60  O   UNL     1      12.825   5.212  23.531  0.00  0.00    -0.491 OA
ATOM     61  C   UNL     1      13.173   5.739  22.260  0.00  0.00    +0.277 C 
ENDBRANCH  58  60
BRANCH  57  62
ATOM     62  O   UNL     1      13.027   7.042  25.454  0.00  0.00    -0.503 OA
ATOM     63  H   UNL     1      13.246   6.539  26.263  0.00  0.00    +0.292 HD
ENDBRANCH  57  62
ENDBRANCH  53  54
BRANCH  52  64
ATOM     64  O   UNL     1       3.700   2.662  22.980  0.00  0.00    -0.506 OA
ATOM     65  H   UNL     1       3.641   3.007  22.074  0.00  0.00    +0.292 HD
ENDBRANCH  52  64
BRANCH  49  66
ATOM     66  O   UNL     1       2.284   5.500  26.474  0.00  0.00    -0.507 OA
ATOM     67  H   UNL     1       2.518   5.270  27.389  0.00  0.00    +0.292 HD
ENDBRANCH  49  66
ENDBRANCH  42  43
ENDBRANCH  32  42
ENDBRANCH  29  30
ENDBRANCH  28  29
ENDBRANCH   2  28
BRANCH   1  68
ATOM     68  O   UNL     1       5.837   0.152  26.589  0.00  0.00    -0.338 OA
BRANCH  68  72
ATOM     69  C   UNL     1       7.149   3.078  29.745  0.00  0.00    +0.041 C 
ATOM     70  C   UNL     1       6.123   1.958  29.607  0.00  0.00    +0.149 C 
ATOM     71  O   UNL     1       6.360   1.207  28.428  0.00  0.00    -0.343 OA
ATOM     72  C   UNL     1       5.698   1.448  27.177  0.00  0.00    +0.282 C 
ATOM     73  C   UNL     1       4.260   2.039  27.308  0.00  0.00    +0.201 C 
ATOM     74  C   UNL     1       4.147   3.029  28.491  0.00  0.00    +0.179 C 
ATOM     75  C   UNL     1       4.680   2.423  29.789  0.00  0.00    +0.174 C 
BRANCH  75  76
ATOM     76  O   UNL     1       3.844   1.321  30.183  0.00  0.00    -0.387 OA
ATOM     77  H   UNL     1       3.474   0.931  29.364  0.00  0.00    +0.210 HD
ENDBRANCH  75  76
BRANCH  74  78
ATOM     78  O   UNL     1       2.768   3.400  28.670  0.00  0.00    -0.386 OA
ATOM     79  H   UNL     1       2.582   4.047  27.957  0.00  0.00    +0.210 HD
ENDBRANCH  74  78
BRANCH  73  80
ATOM     80  O   UNL     1       3.264   1.009  27.464  0.00  0.00    -0.384 OA
ATOM     81  H   UNL     1       2.559   1.404  28.012  0.00  0.00    +0.210 HD
ENDBRANCH  73  80
ENDBRANCH  68  72
ENDBRANCH   1  68
TORSDOF 28
ENDMDL
MODEL 5
REMARK VINA RESULT:      -6.8      1.568      5.930
REMARK  Name = 
REMARK  30 active torsions:
REMARK  status: ('A' for Active; 'I' for Inactive)
REMARK    1  A    between atoms: C_1  and  C_2
REMARK    2  A    between atoms: C_3  and  O_78
REMARK    3  A    between atoms: C_5  and  O_77
REMARK    4  A    between atoms: C_6  and  O_76
REMARK    5  A    between atoms: C_8  and  O_11
REMARK    6  A    between atoms: O_11  and  C_12
REMARK    7  A    between atoms: C_13  and  O_75
REMARK    8  A    between atoms: C_15  and  O_74
REMARK    9  A    between atoms: C_17  and  C_58
REMARK   10  A    between atoms: C_19  and  O_21
REMARK   11  A    between atoms: O_21  and  C_22
REMARK   12  A    between atoms: C_22  and  C_23
REMARK   13  A    between atoms: C_24  and  O_57
REMARK   14  A    between atoms: C_26  and  O_56
REMARK   15  A    between atoms: C_28  and  O_55
REMARK   16  A    between atoms: C_29  and  O_32
REMARK   17  A    between atoms: O_32  and  C_33
REMARK   18  A    between atoms: C_34  and  C_46
REMARK   19  A    between atoms: C_38  and  O_45
REMARK   20  A    between atoms: C_40  and  O_44
REMARK   21  A    between atoms: C_48  and  O_53
REMARK   22  A    between atoms: C_49  and  O_52
REMARK   23  A    between atoms: O_53  and  C_54
REMARK   24  A    between atoms: C_58  and  O_59
REMARK   25  A    between atoms: O_59  and  C_60
REMARK   26  A    between atoms: C_62  and  O_73
REMARK   27  A    between atoms: C_63  and  O_72
REMARK   28  A    between atoms: C_65  and  O_71
REMARK   29  A    between atoms: C_67  and  C_69
REMARK   30  A    between atoms: C_69  and  O_70
REMARK                            x       y       z     vdW  Elec       q    Type
REMARK                         _______ _______ _______ _____ _____    ______ ____
ROOT
ATOM      1  C   UNL     1       3.803  -1.452  26.682  0.00  0.00    +0.208 C 
ATOM      2  C   UNL     1       4.983  -0.710  27.437  0.00  0.00    +0.282 C 
ATOM      3  O   UNL     1       4.823  -0.763  28.865  0.00  0.00    -0.341 OA
ATOM      4  C   UNL     1       3.592  -0.195  29.381  0.00  0.00    +0.178 C 
ATOM      5  C   UNL     1       2.352  -0.804  28.694  0.00  0.00    +0.177 C 
ATOM      6  C   UNL     1       2.506  -0.767  27.167  0.00  0.00    +0.179 C 
ENDROOT
BRANCH   6   7
ATOM      7  O   UNL     1       1.332  -1.307  26.545  0.00  0.00    -0.386 OA
ATOM      8  H   UNL     1       1.024  -0.642  25.901  0.00  0.00    +0.210 HD
ENDBRANCH   6   7
BRANCH   5   9
ATOM      9  O   UNL     1       1.158  -0.113  29.076  0.00  0.00    -0.386 OA
ATOM     10  H   UNL     1       1.252   0.816  28.793  0.00  0.00    +0.210 HD
ENDBRANCH   5   9
BRANCH   4  11
ATOM     11  C   UNL     1       3.622   1.354  29.354  0.00  0.00    +0.197 C 
BRANCH  11  12
ATOM     12  O   UNL     1       4.656   1.996  28.600  0.00  0.00    -0.346 OA
BRANCH  12  13
ATOM     13  C   UNL     1       5.712   2.649  29.328  0.00  0.00    +0.282 C 
ATOM     14  O   UNL     1       5.339   4.024  29.562  0.00  0.00    -0.341 OA
ATOM     15  C   UNL     1       5.104   4.755  28.342  0.00  0.00    +0.178 C 
ATOM     16  C   UNL     1       6.371   4.772  27.452  0.00  0.00    +0.177 C 
ATOM     17  C   UNL     1       6.887   3.344  27.219  0.00  0.00    +0.179 C 
ATOM     18  C   UNL     1       7.058   2.626  28.571  0.00  0.00    +0.201 C 
BRANCH  18  19
ATOM     19  O   UNL     1       7.568   1.301  28.395  0.00  0.00    -0.384 OA
ATOM     20  H   UNL     1       6.908   0.804  27.876  0.00  0.00    +0.210 HD
ENDBRANCH  18  19
BRANCH  17  21
ATOM     21  O   UNL     1       6.025   2.606  26.341  0.00  0.00    -0.386 OA
ATOM     22  H   UNL     1       5.501   1.989  26.890  0.00  0.00    +0.210 HD
ENDBRANCH  17  21
BRANCH  16  23
ATOM     23  O   UNL     1       7.426   5.513  28.075  0.00  0.00    -0.386 OA
ATOM     24  H   UNL     1       7.134   6.439  28.155  0.00  0.00    +0.210 HD
ENDBRANCH  16  23
BRANCH  15  25
ATOM     25  C   UNL     1       4.561   6.151  28.702  0.00  0.00    +0.190 C 
BRANCH  25  26
ATOM     26  O   UNL     1       5.531   7.034  29.252  0.00  0.00    -0.392 OA
ATOM     27  H   UNL     1       5.911   6.573  30.024  0.00  0.00    +0.210 HD
ENDBRANCH  25  26
ENDBRANCH  15  25
ENDBRANCH  12  13
ENDBRANCH  11  12
ENDBRANCH   4  11
BRANCH   2  28
ATOM     28  O   UNL     1       6.338  -1.003  27.017  0.00  0.00    -0.346 OA
BRANCH  28  29
ATOM     29  C   UNL     1       6.700  -0.820  25.629  0.00  0.00    +0.197 C 
BRANCH  29  30
ATOM     30  C   UNL     1       8.202  -0.341  25.505  0.00  0.00    +0.179 C 
ATOM     31  O   UNL     1       8.418   1.063  25.242  0.00  0.00    -0.331 OA
ATOM     32  C   UNL     1       8.316   1.530  23.874  0.00  0.00    +0.340 C 
ATOM     33  C   UNL     1       9.062   0.649  22.832  0.00  0.00    +0.214 C 
ATOM     34  C   UNL     1       8.866  -0.846  23.120  0.00  0.00    +0.180 C 
ATOM     35  C   UNL     1       9.118  -1.174  24.592  0.00  0.00    +0.177 C 
BRANCH  34  36
ATOM     36  O   UNL     1       9.778  -1.631  22.328  0.00  0.00    -0.386 OA
ATOM     37  H   UNL     1       9.608  -1.350  21.404  0.00  0.00    +0.210 HD
ENDBRANCH  34  36
BRANCH  35  38
ATOM     38  O   UNL     1       9.011  -2.589  24.769  0.00  0.00    -0.386 OA
ATOM     39  H   UNL     1       8.518  -2.736  25.596  0.00  0.00    +0.210 HD
ENDBRANCH  35  38
BRANCH  33  40
ATOM     40  O   UNL     1      10.462   1.003  22.800  0.00  0.00    -0.383 OA
ATOM     41  H   UNL     1      10.566   1.766  22.208  0.00  0.00    +0.210 HD
ENDBRANCH  33  40
BRANCH  32  42
ATOM     42  O   UNL     1       8.874   2.894  23.790  0.00  0.00    -0.453 OA
BRANCH  42  43
ATOM     43  C   UNL     1       7.971   3.930  23.630  0.00  0.00    +0.214 A 
ATOM     44  C   UNL     1       6.770   3.725  22.781  0.00  0.00    +0.238 A 
ATOM     45  O   UNL     1       6.822   3.076  21.740  0.00  0.00    -0.283 OA
ATOM     46  C   UNL     1       5.570   4.428  23.223  0.00  0.00    +0.109 A 
ATOM     47  C   UNL     1       5.770   5.655  23.848  0.00  0.00    +0.147 A 
ATOM     48  C   UNL     1       4.646   6.388  24.213  0.00  0.00    +0.092 A 
ATOM     49  C   UNL     1       3.371   5.859  23.944  0.00  0.00    +0.124 A 
ATOM     50  C   UNL     1       3.197   4.614  23.348  0.00  0.00    +0.091 A 
ATOM     51  O   UNL     1       7.042   6.136  24.080  0.00  0.00    -0.451 OA
ATOM     52  C   UNL     1       4.315   3.890  23.002  0.00  0.00    +0.135 A 
ATOM     53  C   UNL     1       8.105   5.227  24.061  0.00  0.00    +0.181 A 
BRANCH  53  54
ATOM     54  C   UNL     1       9.420   5.848  24.441  0.00  0.00    +0.025 A 
ATOM     55  C   UNL     1       9.520   6.600  25.629  0.00  0.00    +0.015 A 
ATOM     56  C   UNL     1      10.761   7.025  26.128  0.00  0.00    +0.050 A 
ATOM     57  C   UNL     1      11.919   6.697  25.443  0.00  0.00    +0.158 A 
ATOM     58  C   UNL     1      11.867   5.944  24.265  0.00  0.00    +0.162 A 
ATOM     59  C   UNL     1      10.619   5.518  23.772  0.00  0.00    +0.061 A 
BRANCH  58  60
ATOM     60  O   UNL     1      13.097   5.672  23.716  0.00  0.00    -0.491 OA
ATOM     61  C   UNL     1      13.171   5.615  22.299  0.00  0.00    +0.277 C 
ENDBRANCH  58  60
BRANCH  57  62
ATOM     62  O   UNL     1      13.122   7.104  25.960  0.00  0.00    -0.503 OA
ATOM     63  H   UNL     1      13.147   6.734  26.864  0.00  0.00    +0.292 HD
ENDBRANCH  57  62
ENDBRANCH  53  54
BRANCH  52  64
ATOM     64  O   UNL     1       4.200   2.635  22.479  0.00  0.00    -0.506 OA
ATOM     65  H   UNL     1       3.608   2.652  21.709  0.00  0.00    +0.292 HD
ENDBRANCH  52  64
BRANCH  49  66
ATOM     66  O   UNL     1       2.227   6.534  24.259  0.00  0.00    -0.507 OA
ATOM     67  H   UNL     1       1.459   6.032  23.940  0.00  0.00    +0.292 HD
ENDBRANCH  49  66
ENDBRANCH  42  43
ENDBRANCH  32  42
ENDBRANCH  29  30
ENDBRANCH  28  29
ENDBRANCH   2  28
BRANCH   1  68
ATOM     68  O   UNL     1       3.939  -2.840  26.945  0.00  0.00    -0.338 OA
BRANCH  68  72
ATOM     69  C   UNL     1       3.632  -6.801  24.834  0.00  0.00    +0.041 C 
ATOM     70  C   UNL     1       3.972  -6.296  26.232  0.00  0.00    +0.149 C 
ATOM     71  O   UNL     1       3.642  -4.922  26.360  0.00  0.00    -0.343 OA
ATOM     72  C   UNL     1       4.576  -3.851  26.161  0.00  0.00    +0.282 C 
ATOM     73  C   UNL     1       6.057  -4.211  26.499  0.00  0.00    +0.201 C 
ATOM     74  C   UNL     1       6.400  -5.669  26.115  0.00  0.00    +0.179 C 
ATOM     75  C   UNL     1       5.384  -6.659  26.687  0.00  0.00    +0.174 C 
BRANCH  75  76
ATOM     76  O   UNL     1       5.465  -6.653  28.123  0.00  0.00    -0.387 OA
ATOM     77  H   UNL     1       4.986  -5.858  28.437  0.00  0.00    +0.210 HD
ENDBRANCH  75  76
BRANCH  74  78
ATOM     78  O   UNL     1       7.711  -5.995  26.610  0.00  0.00    -0.386 OA
ATOM     79  H   UNL     1       8.231  -5.168  26.524  0.00  0.00    +0.210 HD
ENDBRANCH  74  78
BRANCH  73  80
ATOM     80  O   UNL     1       6.357  -4.011  27.894  0.00  0.00    -0.384 OA
ATOM     81  H   UNL     1       6.796  -4.833  28.191  0.00  0.00    +0.210 HD
ENDBRANCH  73  80
ENDBRANCH  68  72
ENDBRANCH   1  68
TORSDOF 28
ENDMDL
MODEL 6
REMARK VINA RESULT:      -6.7      2.331      6.619
REMARK  Name = 
REMARK  30 active torsions:
REMARK  status: ('A' for Active; 'I' for Inactive)
REMARK    1  A    between atoms: C_1  and  C_2
REMARK    2  A    between atoms: C_3  and  O_78
REMARK    3  A    between atoms: C_5  and  O_77
REMARK    4  A    between atoms: C_6  and  O_76
REMARK    5  A    between atoms: C_8  and  O_11
REMARK    6  A    between atoms: O_11  and  C_12
REMARK    7  A    between atoms: C_13  and  O_75
REMARK    8  A    between atoms: C_15  and  O_74
REMARK    9  A    between atoms: C_17  and  C_58
REMARK   10  A    between atoms: C_19  and  O_21
REMARK   11  A    between atoms: O_21  and  C_22
REMARK   12  A    between atoms: C_22  and  C_23
REMARK   13  A    between atoms: C_24  and  O_57
REMARK   14  A    between atoms: C_26  and  O_56
REMARK   15  A    between atoms: C_28  and  O_55
REMARK   16  A    between atoms: C_29  and  O_32
REMARK   17  A    between atoms: O_32  and  C_33
REMARK   18  A    between atoms: C_34  and  C_46
REMARK   19  A    between atoms: C_38  and  O_45
REMARK   20  A    between atoms: C_40  and  O_44
REMARK   21  A    between atoms: C_48  and  O_53
REMARK   22  A    between atoms: C_49  and  O_52
REMARK   23  A    between atoms: O_53  and  C_54
REMARK   24  A    between atoms: C_58  and  O_59
REMARK   25  A    between atoms: O_59  and  C_60
REMARK   26  A    between atoms: C_62  and  O_73
REMARK   27  A    between atoms: C_63  and  O_72
REMARK   28  A    between atoms: C_65  and  O_71
REMARK   29  A    between atoms: C_67  and  C_69
REMARK   30  A    between atoms: C_69  and  O_70
REMARK                            x       y       z     vdW  Elec       q    Type
REMARK                         _______ _______ _______ _____ _____    ______ ____
ROOT
ATOM      1  C   UNL     1       6.717  -1.889  24.138  0.00  0.00    +0.208 C 
ATOM      2  C   UNL     1       5.637  -1.566  25.253  0.00  0.00    +0.282 C 
ATOM      3  O   UNL     1       6.068  -1.993  26.557  0.00  0.00    -0.341 OA
ATOM      4  C   UNL     1       6.374  -3.405  26.687  0.00  0.00    +0.178 C 
ATOM      5  C   UNL     1       7.393  -3.867  25.623  0.00  0.00    +0.177 C 
ATOM      6  C   UNL     1       6.956  -3.413  24.223  0.00  0.00    +0.179 C 
ENDROOT
BRANCH   6   7
ATOM      7  O   UNL     1       7.897  -3.878  23.245  0.00  0.00    -0.386 OA
ATOM      8  H   UNL     1       7.961  -4.846  23.355  0.00  0.00    +0.210 HD
ENDBRANCH   6   7
BRANCH   5   9
ATOM      9  O   UNL     1       7.550  -5.289  25.643  0.00  0.00    -0.386 OA
ATOM     10  H   UNL     1       7.040  -5.632  26.401  0.00  0.00    +0.210 HD
ENDBRANCH   5   9
BRANCH   4  11
ATOM     11  C   UNL     1       5.087  -4.267  26.734  0.00  0.00    +0.197 C 
BRANCH  11  12
ATOM     12  O   UNL     1       4.704  -4.972  25.549  0.00  0.00    -0.346 OA
BRANCH  12  13
ATOM     13  C   UNL     1       3.426  -4.660  24.964  0.00  0.00    +0.282 C 
ATOM     14  O   UNL     1       2.383  -5.217  25.792  0.00  0.00    -0.341 OA
ATOM     15  C   UNL     1       2.485  -6.649  25.932  0.00  0.00    +0.178 C 
ATOM     16  C   UNL     1       2.395  -7.349  24.554  0.00  0.00    +0.177 C 
ATOM     17  C   UNL     1       3.423  -6.755  23.578  0.00  0.00    +0.179 C 
ATOM     18  C   UNL     1       3.273  -5.223  23.535  0.00  0.00    +0.201 C 
BRANCH  18  19
ATOM     19  O   UNL     1       4.195  -4.637  22.610  0.00  0.00    -0.384 OA
ATOM     20  H   UNL     1       4.692  -5.368  22.196  0.00  0.00    +0.210 HD
ENDBRANCH  18  19
BRANCH  17  21
ATOM     21  O   UNL     1       4.763  -7.140  23.921  0.00  0.00    -0.386 OA
ATOM     22  H   UNL     1       4.828  -7.147  24.896  0.00  0.00    +0.210 HD
ENDBRANCH  17  21
BRANCH  16  23
ATOM     23  O   UNL     1       1.099  -7.172  23.972  0.00  0.00    -0.386 OA
ATOM     24  H   UNL     1       0.467  -7.007  24.696  0.00  0.00    +0.210 HD
ENDBRANCH  16  23
BRANCH  15  25
ATOM     25  C   UNL     1       1.433  -7.120  26.954  0.00  0.00    +0.190 C 
BRANCH  25  26
ATOM     26  O   UNL     1       1.949  -7.953  27.985  0.00  0.00    -0.392 OA
ATOM     27  H   UNL     1       2.860  -8.182  27.719  0.00  0.00    +0.210 HD
ENDBRANCH  25  26
ENDBRANCH  15  25
ENDBRANCH  12  13
ENDBRANCH  11  12
ENDBRANCH   4  11
BRANCH   2  28
ATOM     28  O   UNL     1       5.060  -0.238  25.264  0.00  0.00    -0.346 OA
BRANCH  28  29
ATOM     29  C   UNL     1       5.019   0.502  26.506  0.00  0.00    +0.197 C 
BRANCH  29  30
ATOM     30  C   UNL     1       3.730   1.417  26.566  0.00  0.00    +0.179 C 
ATOM     31  O   UNL     1       3.778   2.658  25.827  0.00  0.00    -0.331 OA
ATOM     32  C   UNL     1       4.429   3.798  26.439  0.00  0.00    +0.340 C 
ATOM     33  C   UNL     1       4.035   4.049  27.922  0.00  0.00    +0.214 C 
ATOM     34  C   UNL     1       3.950   2.734  28.710  0.00  0.00    +0.180 C 
ATOM     35  C   UNL     1       3.136   1.680  27.960  0.00  0.00    +0.177 C 
BRANCH  34  36
ATOM     36  O   UNL     1       3.319   2.957  29.986  0.00  0.00    -0.386 OA
ATOM     37  H   UNL     1       3.834   3.687  30.393  0.00  0.00    +0.210 HD
ENDBRANCH  34  36
BRANCH  35  38
ATOM     38  O   UNL     1       3.018   0.520  28.789  0.00  0.00    -0.386 OA
ATOM     39  H   UNL     1       3.466   0.726  29.630  0.00  0.00    +0.210 HD
ENDBRANCH  35  38
BRANCH  33  40
ATOM     40  O   UNL     1       2.793   4.785  27.983  0.00  0.00    -0.383 OA
ATOM     41  H   UNL     1       2.113   4.200  28.356  0.00  0.00    +0.210 HD
ENDBRANCH  33  40
BRANCH  32  42
ATOM     42  O   UNL     1       4.091   5.013  25.672  0.00  0.00    -0.453 OA
BRANCH  42  43
ATOM     43  C   UNL     1       5.102   5.576  24.916  0.00  0.00    +0.214 A 
ATOM     44  C   UNL     1       6.246   6.231  25.601  0.00  0.00    +0.238 A 
ATOM     45  O   UNL     1       6.089   6.899  26.619  0.00  0.00    -0.283 OA
ATOM     46  C   UNL     1       7.532   6.102  24.923  0.00  0.00    +0.109 A 
ATOM     47  C   UNL     1       7.494   6.061  23.533  0.00  0.00    +0.147 A 
ATOM     48  C   UNL     1       8.706   6.017  22.852  0.00  0.00    +0.092 A 
ATOM     49  C   UNL     1       9.903   6.007  23.591  0.00  0.00    +0.124 A 
ATOM     50  C   UNL     1       9.913   6.013  24.982  0.00  0.00    +0.091 A 
ATOM     51  O   UNL     1       6.294   6.085  22.854  0.00  0.00    -0.451 OA
ATOM     52  C   UNL     1       8.710   6.044  25.647  0.00  0.00    +0.135 A 
ATOM     53  C   UNL     1       5.132   5.740  23.553  0.00  0.00    +0.181 A 
BRANCH  53  54
ATOM     54  C   UNL     1       3.910   5.689  22.680  0.00  0.00    +0.025 A 
ATOM     55  C   UNL     1       3.504   6.843  21.978  0.00  0.00    +0.015 A 
ATOM     56  C   UNL     1       2.499   6.793  21.000  0.00  0.00    +0.050 A 
ATOM     57  C   UNL     1       1.890   5.583  20.711  0.00  0.00    +0.158 A 
ATOM     58  C   UNL     1       2.268   4.412  21.376  0.00  0.00    +0.162 A 
ATOM     59  C   UNL     1       3.280   4.469  22.353  0.00  0.00    +0.061 A 
BRANCH  58  60
ATOM     60  O   UNL     1       1.597   3.287  20.960  0.00  0.00    -0.491 OA
ATOM     61  C   UNL     1       0.817   2.607  21.933  0.00  0.00    +0.277 C 
ENDBRANCH  58  60
BRANCH  57  62
ATOM     62  O   UNL     1       0.925   5.554  19.737  0.00  0.00    -0.503 OA
ATOM     63  H   UNL     1       0.357   6.329  19.920  0.00  0.00    +0.292 HD
ENDBRANCH  57  62
ENDBRANCH  53  54
BRANCH  52  64
ATOM     64  O   UNL     1       8.663   5.983  27.010  0.00  0.00    -0.506 OA
ATOM     65  H   UNL     1       7.742   5.899  27.305  0.00  0.00    +0.292 HD
ENDBRANCH  52  64
BRANCH  49  66
ATOM     66  O   UNL     1      11.126   5.982  22.985  0.00  0.00    -0.507 OA
ATOM     67  H   UNL     1      11.065   6.416  22.118  0.00  0.00    +0.292 HD
ENDBRANCH  49  66
ENDBRANCH  42  43
ENDBRANCH  32  42
ENDBRANCH  29  30
ENDBRANCH  28  29
ENDBRANCH   2  28
BRANCH   1  68
ATOM     68  O   UNL     1       7.833  -1.044  24.374  0.00  0.00    -0.338 OA
BRANCH  68  72
ATOM     69  C   UNL     1       6.547   2.699  22.234  0.00  0.00    +0.041 C 
ATOM     70  C   UNL     1       7.620   1.626  22.077  0.00  0.00    +0.149 C 
ATOM     71  O   UNL     1       7.358   0.528  22.937  0.00  0.00    -0.343 OA
ATOM     72  C   UNL     1       7.937   0.375  24.241  0.00  0.00    +0.282 C 
ATOM     73  C   UNL     1       9.348   1.022  24.404  0.00  0.00    +0.201 C 
ATOM     74  C   UNL     1       9.474   2.342  23.609  0.00  0.00    +0.179 C 
ATOM     75  C   UNL     1       9.045   2.169  22.152  0.00  0.00    +0.174 C 
BRANCH  75  76
ATOM     76  O   UNL     1       9.957   1.279  21.485  0.00  0.00    -0.387 OA
ATOM     77  H   UNL     1      10.343   0.695  22.169  0.00  0.00    +0.210 HD
ENDBRANCH  75  76
BRANCH  74  78
ATOM     78  O   UNL     1      10.840   2.794  23.652  0.00  0.00    -0.386 OA
ATOM     79  H   UNL     1      11.302   2.158  24.238  0.00  0.00    +0.210 HD
ENDBRANCH  74  78
BRANCH  73  80
ATOM     80  O   UNL     1      10.402   0.127  23.996  0.00  0.00    -0.384 OA
ATOM     81  H   UNL     1      10.730   0.477  23.145  0.00  0.00    +0.210 HD
ENDBRANCH  73  80
ENDBRANCH  68  72
ENDBRANCH   1  68
TORSDOF 28
ENDMDL
MODEL 7
REMARK VINA RESULT:      -6.7      1.943      5.958
REMARK  Name = 
REMARK  30 active torsions:
REMARK  status: ('A' for Active; 'I' for Inactive)
REMARK    1  A    between atoms: C_1  and  C_2
REMARK    2  A    between atoms: C_3  and  O_78
REMARK    3  A    between atoms: C_5  and  O_77
REMARK    4  A    between atoms: C_6  and  O_76
REMARK    5  A    between atoms: C_8  and  O_11
REMARK    6  A    between atoms: O_11  and  C_12
REMARK    7  A    between atoms: C_13  and  O_75
REMARK    8  A    between atoms: C_15  and  O_74
REMARK    9  A    between atoms: C_17  and  C_58
REMARK   10  A    between atoms: C_19  and  O_21
REMARK   11  A    between atoms: O_21  and  C_22
REMARK   12  A    between atoms: C_22  and  C_23
REMARK   13  A    between atoms: C_24  and  O_57
REMARK   14  A    between atoms: C_26  and  O_56
REMARK   15  A    between atoms: C_28  and  O_55
REMARK   16  A    between atoms: C_29  and  O_32
REMARK   17  A    between atoms: O_32  and  C_33
REMARK   18  A    between atoms: C_34  and  C_46
REMARK   19  A    between atoms: C_38  and  O_45
REMARK   20  A    between atoms: C_40  and  O_44
REMARK   21  A    between atoms: C_48  and  O_53
REMARK   22  A    between atoms: C_49  and  O_52
REMARK   23  A    between atoms: O_53  and  C_54
REMARK   24  A    between atoms: C_58  and  O_59
REMARK   25  A    between atoms: O_59  and  C_60
REMARK   26  A    between atoms: C_62  and  O_73
REMARK   27  A    between atoms: C_63  and  O_72
REMARK   28  A    between atoms: C_65  and  O_71
REMARK   29  A    between atoms: C_67  and  C_69
REMARK   30  A    between atoms: C_69  and  O_70
REMARK                            x       y       z     vdW  Elec       q    Type
REMARK                         _______ _______ _______ _____ _____    ______ ____
ROOT
ATOM      1  C   UNL     1       4.458  -3.579  24.778  0.00  0.00    +0.208 C 
ATOM      2  C   UNL     1       5.698  -2.621  24.537  0.00  0.00    +0.282 C 
ATOM      3  O   UNL     1       6.858  -3.050  25.270  0.00  0.00    -0.341 OA
ATOM      4  C   UNL     1       6.693  -3.144  26.709  0.00  0.00    +0.178 C 
ATOM      5  C   UNL     1       5.482  -4.024  27.086  0.00  0.00    +0.177 C 
ATOM      6  C   UNL     1       4.233  -3.589  26.307  0.00  0.00    +0.179 C 
ENDROOT
BRANCH   6   7
ATOM      7  O   UNL     1       3.112  -4.395  26.694  0.00  0.00    -0.386 OA
ATOM      8  H   UNL     1       2.615  -4.595  25.878  0.00  0.00    +0.210 HD
ENDBRANCH   6   7
BRANCH   5   9
ATOM      9  O   UNL     1       5.220  -3.964  28.492  0.00  0.00    -0.386 OA
ATOM     10  H   UNL     1       4.440  -4.523  28.671  0.00  0.00    +0.210 HD
ENDBRANCH   5   9
BRANCH   4  11
ATOM     11  C   UNL     1       6.681  -1.746  27.376  0.00  0.00    +0.197 C 
BRANCH  11  12
ATOM     12  O   UNL     1       5.515  -0.931  27.214  0.00  0.00    -0.346 OA
BRANCH  12  13
ATOM     13  C   UNL     1       5.309   0.143  28.149  0.00  0.00    +0.282 C 
ATOM     14  O   UNL     1       3.943   0.104  28.614  0.00  0.00    -0.341 OA
ATOM     15  C   UNL     1       2.984   0.237  27.545  0.00  0.00    +0.178 C 
ATOM     16  C   UNL     1       3.171   1.579  26.796  0.00  0.00    +0.177 C 
ATOM     17  C   UNL     1       4.628   1.741  26.334  0.00  0.00    +0.179 C 
ATOM     18  C   UNL     1       5.578   1.531  27.529  0.00  0.00    +0.201 C 
BRANCH  18  19
ATOM     19  O   UNL     1       6.944   1.707  27.142  0.00  0.00    -0.384 OA
ATOM     20  H   UNL     1       6.951   1.898  26.185  0.00  0.00    +0.210 HD
ENDBRANCH  18  19
BRANCH  17  21
ATOM     21  O   UNL     1       4.943   0.853  25.253  0.00  0.00    -0.386 OA
ATOM     22  H   UNL     1       4.162   0.285  25.099  0.00  0.00    +0.210 HD
ENDBRANCH  17  21
BRANCH  16  23
ATOM     23  O   UNL     1       2.864   2.689  27.647  0.00  0.00    -0.386 OA
ATOM     24  H   UNL     1       2.434   2.340  28.449  0.00  0.00    +0.210 HD
ENDBRANCH  16  23
BRANCH  15  25
ATOM     25  C   UNL     1       1.572   0.022  28.122  0.00  0.00    +0.190 C 
BRANCH  25  26
ATOM     26  O   UNL     1       1.228   0.911  29.178  0.00  0.00    -0.392 OA
ATOM     27  H   UNL     1       0.341   0.639  29.484  0.00  0.00    +0.210 HD
ENDBRANCH  25  26
ENDBRANCH  15  25
ENDBRANCH  12  13
ENDBRANCH  11  12
ENDBRANCH   4  11
BRANCH   2  28
ATOM     28  O   UNL     1       6.006  -2.254  23.170  0.00  0.00    -0.346 OA
BRANCH  28  29
ATOM     29  C   UNL     1       6.369  -0.886  22.874  0.00  0.00    +0.197 C 
BRANCH  29  30
ATOM     30  C   UNL     1       7.694  -0.484  23.640  0.00  0.00    +0.179 C 
ATOM     31  O   UNL     1       7.935   0.927  23.829  0.00  0.00    -0.331 OA
ATOM     32  C   UNL     1       8.520   1.678  22.737  0.00  0.00    +0.340 C 
ATOM     33  C   UNL     1       9.742   0.991  22.062  0.00  0.00    +0.214 C 
ATOM     34  C   UNL     1       9.510  -0.516  21.884  0.00  0.00    +0.180 C 
ATOM     35  C   UNL     1       8.993  -1.161  23.170  0.00  0.00    +0.177 C 
BRANCH  34  36
ATOM     36  O   UNL     1      10.742  -1.170  21.523  0.00  0.00    -0.386 OA
ATOM     37  H   UNL     1      10.686  -2.054  21.946  0.00  0.00    +0.210 HD
ENDBRANCH  34  36
BRANCH  35  38
ATOM     38  O   UNL     1       8.891  -2.573  22.961  0.00  0.00    -0.386 OA
ATOM     39  H   UNL     1       8.545  -2.957  23.787  0.00  0.00    +0.210 HD
ENDBRANCH  35  38
BRANCH  33  40
ATOM     40  O   UNL     1      10.940   1.257  22.825  0.00  0.00    -0.383 OA
ATOM     41  H   UNL     1      11.538   1.785  22.272  0.00  0.00    +0.210 HD
ENDBRANCH  33  40
BRANCH  32  42
ATOM     42  O   UNL     1       8.966   2.992  23.241  0.00  0.00    -0.453 OA
BRANCH  42  43
ATOM     43  C   UNL     1       7.986   3.947  23.445  0.00  0.00    +0.214 A 
ATOM     44  C   UNL     1       6.688   3.823  22.734  0.00  0.00    +0.238 A 
ATOM     45  O   UNL     1       6.627   3.429  21.573  0.00  0.00    -0.283 OA
ATOM     46  C   UNL     1       5.526   4.294  23.480  0.00  0.00    +0.109 A 
ATOM     47  C   UNL     1       5.739   5.365  24.341  0.00  0.00    +0.147 A 
ATOM     48  C   UNL     1       4.637   5.890  25.009  0.00  0.00    +0.092 A 
ATOM     49  C   UNL     1       3.372   5.316  24.792  0.00  0.00    +0.124 A 
ATOM     50  C   UNL     1       3.190   4.223  23.950  0.00  0.00    +0.091 A 
ATOM     51  O   UNL     1       6.998   5.901  24.512  0.00  0.00    -0.451 OA
ATOM     52  C   UNL     1       4.287   3.703  23.304  0.00  0.00    +0.135 A 
ATOM     53  C   UNL     1       8.102   5.123  24.145  0.00  0.00    +0.181 A 
BRANCH  53  54
ATOM     54  C   UNL     1       9.417   5.765  24.486  0.00  0.00    +0.025 A 
ATOM     55  C   UNL     1       9.522   6.576  25.634  0.00  0.00    +0.015 A 
ATOM     56  C   UNL     1      10.765   7.028  26.104  0.00  0.00    +0.050 A 
ATOM     57  C   UNL     1      11.919   6.669  25.428  0.00  0.00    +0.158 A 
ATOM     58  C   UNL     1      11.863   5.859  24.290  0.00  0.00    +0.162 A 
ATOM     59  C   UNL     1      10.613   5.405  23.826  0.00  0.00    +0.061 A 
BRANCH  58  60
ATOM     60  O   UNL     1      13.090   5.563  23.747  0.00  0.00    -0.491 OA
ATOM     61  C   UNL     1      13.151   5.416  22.336  0.00  0.00    +0.277 C 
ENDBRANCH  58  60
BRANCH  57  62
ATOM     62  O   UNL     1      13.125   7.105  25.917  0.00  0.00    -0.503 OA
ATOM     63  H   UNL     1      13.282   7.962  25.475  0.00  0.00    +0.292 HD
ENDBRANCH  57  62
ENDBRANCH  53  54
BRANCH  52  64
ATOM     64  O   UNL     1       4.174   2.590  22.522  0.00  0.00    -0.506 OA
ATOM     65  H   UNL     1       4.307   1.793  23.062  0.00  0.00    +0.292 HD
ENDBRANCH  52  64
BRANCH  49  66
ATOM     66  O   UNL     1       2.247   5.794  25.401  0.00  0.00    -0.507 OA
ATOM     67  H   UNL     1       2.204   5.454  26.310  0.00  0.00    +0.292 HD
ENDBRANCH  49  66
ENDBRANCH  42  43
ENDBRANCH  32  42
ENDBRANCH  29  30
ENDBRANCH  28  29
ENDBRANCH   2  28
BRANCH   1  68
ATOM     68  O   UNL     1       4.757  -4.822  24.161  0.00  0.00    -0.338 OA
BRANCH  68  72
ATOM     69  C   UNL     1       0.689  -5.910  22.578  0.00  0.00    +0.041 C 
ATOM     70  C   UNL     1       1.361  -5.750  23.938  0.00  0.00    +0.149 C 
ATOM     71  O   UNL     1       2.626  -5.125  23.800  0.00  0.00    -0.343 OA
ATOM     72  C   UNL     1       3.867  -5.839  23.698  0.00  0.00    +0.282 C 
ATOM     73  C   UNL     1       3.885  -7.215  24.434  0.00  0.00    +0.201 C 
ATOM     74  C   UNL     1       2.521  -7.939  24.341  0.00  0.00    +0.179 C 
ATOM     75  C   UNL     1       1.369  -7.031  24.771  0.00  0.00    +0.174 C 
BRANCH  75  76
ATOM     76  O   UNL     1       1.498  -6.718  26.169  0.00  0.00    -0.387 OA
ATOM     77  H   UNL     1       2.006  -5.883  26.233  0.00  0.00    +0.210 HD
ENDBRANCH  75  76
BRANCH  74  78
ATOM     78  O   UNL     1       2.545  -9.106  25.183  0.00  0.00    -0.386 OA
ATOM     79  H   UNL     1       1.904  -8.918  25.901  0.00  0.00    +0.210 HD
ENDBRANCH  74  78
BRANCH  73  80
ATOM     80  O   UNL     1       4.251  -7.080  25.822  0.00  0.00    -0.384 OA
ATOM     81  H   UNL     1       3.600  -7.614  26.319  0.00  0.00    +0.210 HD
ENDBRANCH  73  80
ENDBRANCH  68  72
ENDBRANCH   1  68
TORSDOF 28
ENDMDL
MODEL 8
REMARK VINA RESULT:      -6.5      2.702      6.028
REMARK  Name = 
REMARK  30 active torsions:
REMARK  status: ('A' for Active; 'I' for Inactive)
REMARK    1  A    between atoms: C_1  and  C_2
REMARK    2  A    between atoms: C_3  and  O_78
REMARK    3  A    between atoms: C_5  and  O_77
REMARK    4  A    between atoms: C_6  and  O_76
REMARK    5  A    between atoms: C_8  and  O_11
REMARK    6  A    between atoms: O_11  and  C_12
REMARK    7  A    between atoms: C_13  and  O_75
REMARK    8  A    between atoms: C_15  and  O_74
REMARK    9  A    between atoms: C_17  and  C_58
REMARK   10  A    between atoms: C_19  and  O_21
REMARK   11  A    between atoms: O_21  and  C_22
REMARK   12  A    between atoms: C_22  and  C_23
REMARK   13  A    between atoms: C_24  and  O_57
REMARK   14  A    between atoms: C_26  and  O_56
REMARK   15  A    between atoms: C_28  and  O_55
REMARK   16  A    between atoms: C_29  and  O_32
REMARK   17  A    between atoms: O_32  and  C_33
REMARK   18  A    between atoms: C_34  and  C_46
REMARK   19  A    between atoms: C_38  and  O_45
REMARK   20  A    between atoms: C_40  and  O_44
REMARK   21  A    between atoms: C_48  and  O_53
REMARK   22  A    between atoms: C_49  and  O_52
REMARK   23  A    between atoms: O_53  and  C_54
REMARK   24  A    between atoms: C_58  and  O_59
REMARK   25  A    between atoms: O_59  and  C_60
REMARK   26  A    between atoms: C_62  and  O_73
REMARK   27  A    between atoms: C_63  and  O_72
REMARK   28  A    between atoms: C_65  and  O_71
REMARK   29  A    between atoms: C_67  and  C_69
REMARK   30  A    between atoms: C_69  and  O_70
REMARK                            x       y       z     vdW  Elec       q    Type
REMARK                         _______ _______ _______ _____ _____    ______ ____
ROOT
ATOM      1  C   UNL     1       3.324   0.751  28.187  0.00  0.00    +0.208 C 
ATOM      2  C   UNL     1       4.082   0.084  26.965  0.00  0.00    +0.282 C 
ATOM      3  O   UNL     1       3.308  -0.969  26.364  0.00  0.00    -0.341 OA
ATOM      4  C   UNL     1       2.930  -2.055  27.248  0.00  0.00    +0.178 C 
ATOM      5  C   UNL     1       2.213  -1.536  28.513  0.00  0.00    +0.177 C 
ATOM      6  C   UNL     1       3.018  -0.404  29.166  0.00  0.00    +0.179 C 
ENDROOT
BRANCH   6   7
ATOM      7  O   UNL     1       2.354   0.043  30.356  0.00  0.00    -0.386 OA
ATOM      8  H   UNL     1       1.431   0.239  30.105  0.00  0.00    +0.210 HD
ENDBRANCH   6   7
BRANCH   5   9
ATOM      9  O   UNL     1       2.008  -2.591  29.459  0.00  0.00    -0.386 OA
ATOM     10  H   UNL     1       2.871  -2.796  29.864  0.00  0.00    +0.210 HD
ENDBRANCH   5   9
BRANCH   4  11
ATOM     11  C   UNL     1       4.128  -2.990  27.550  0.00  0.00    +0.197 C 
BRANCH  11  12
ATOM     12  O   UNL     1       4.086  -4.327  27.041  0.00  0.00    -0.346 OA
BRANCH  12  13
ATOM     13  C   UNL     1       5.032  -4.689  26.019  0.00  0.00    +0.282 C 
ATOM     14  O   UNL     1       4.367  -4.671  24.737  0.00  0.00    -0.341 OA
ATOM     15  C   UNL     1       3.253  -5.584  24.673  0.00  0.00    +0.178 C 
ATOM     16  C   UNL     1       3.713  -7.040  24.927  0.00  0.00    +0.177 C 
ATOM     17  C   UNL     1       4.506  -7.135  26.240  0.00  0.00    +0.179 C 
ATOM     18  C   UNL     1       5.639  -6.091  26.239  0.00  0.00    +0.201 C 
BRANCH  18  19
ATOM     19  O   UNL     1       6.420  -6.172  27.436  0.00  0.00    -0.384 OA
ATOM     20  H   UNL     1       6.568  -5.259  27.746  0.00  0.00    +0.210 HD
ENDBRANCH  18  19
BRANCH  17  21
ATOM     21  O   UNL     1       3.655  -6.982  27.385  0.00  0.00    -0.386 OA
ATOM     22  H   UNL     1       3.784  -7.766  27.956  0.00  0.00    +0.210 HD
ENDBRANCH  17  21
BRANCH  16  23
ATOM     23  O   UNL     1       4.569  -7.499  23.875  0.00  0.00    -0.386 OA
ATOM     24  H   UNL     1       5.260  -6.826  23.737  0.00  0.00    +0.210 HD
ENDBRANCH  16  23
BRANCH  15  25
ATOM     25  C   UNL     1       2.521  -5.373  23.334  0.00  0.00    +0.190 C 
BRANCH  25  26
ATOM     26  O   UNL     1       2.736  -6.404  22.379  0.00  0.00    -0.392 OA
ATOM     27  H   UNL     1       1.865  -6.591  21.980  0.00  0.00    +0.210 HD
ENDBRANCH  25  26
ENDBRANCH  15  25
ENDBRANCH  12  13
ENDBRANCH  11  12
ENDBRANCH   4  11
BRANCH   2  28
ATOM     28  O   UNL     1       4.680   0.965  25.984  0.00  0.00    -0.346 OA
BRANCH  28  29
ATOM     29  C   UNL     1       5.116   2.282  26.394  0.00  0.00    +0.197 C 
BRANCH  29  30
ATOM     30  C   UNL     1       6.678   2.298  26.641  0.00  0.00    +0.179 C 
ATOM     31  O   UNL     1       7.475   1.404  25.833  0.00  0.00    -0.331 OA
ATOM     32  C   UNL     1       7.579   0.018  26.239  0.00  0.00    +0.340 C 
ATOM     33  C   UNL     1       7.871  -0.193  27.752  0.00  0.00    +0.214 C 
ATOM     34  C   UNL     1       7.053   0.773  28.620  0.00  0.00    +0.180 C 
ATOM     35  C   UNL     1       7.145   2.209  28.104  0.00  0.00    +0.177 C 
BRANCH  34  36
ATOM     36  O   UNL     1       7.538   0.757  29.977  0.00  0.00    -0.386 OA
ATOM     37  H   UNL     1       6.747   0.945  30.525  0.00  0.00    +0.210 HD
ENDBRANCH  34  36
BRANCH  35  38
ATOM     38  O   UNL     1       6.442   3.065  29.009  0.00  0.00    -0.386 OA
ATOM     39  H   UNL     1       5.491   2.931  28.845  0.00  0.00    +0.210 HD
ENDBRANCH  35  38
BRANCH  33  40
ATOM     40  O   UNL     1       9.288  -0.062  28.003  0.00  0.00    -0.383 OA
ATOM     41  H   UNL     1       9.506  -0.594  28.785  0.00  0.00    +0.210 HD
ENDBRANCH  33  40
BRANCH  32  42
ATOM     42  O   UNL     1       8.668  -0.625  25.478  0.00  0.00    -0.453 OA
BRANCH  42  43
ATOM     43  C   UNL     1       8.313  -1.279  24.312  0.00  0.00    +0.214 A 
ATOM     44  C   UNL     1       8.814  -2.656  24.067  0.00  0.00    +0.238 A 
ATOM     45  O   UNL     1       9.952  -2.992  24.383  0.00  0.00    -0.283 OA
ATOM     46  C   UNL     1       7.896  -3.530  23.343  0.00  0.00    +0.109 A 
ATOM     47  C   UNL     1       7.077  -2.918  22.400  0.00  0.00    +0.147 A 
ATOM     48  C   UNL     1       6.246  -3.731  21.637  0.00  0.00    +0.092 A 
ATOM     49  C   UNL     1       6.264  -5.120  21.856  0.00  0.00    +0.124 A 
ATOM     50  C   UNL     1       7.068  -5.705  22.829  0.00  0.00    +0.091 A 
ATOM     51  O   UNL     1       7.104  -1.552  22.215  0.00  0.00    -0.451 OA
ATOM     52  C   UNL     1       7.878  -4.892  23.587  0.00  0.00    +0.135 A 
ATOM     53  C   UNL     1       7.639  -0.757  23.235  0.00  0.00    +0.181 A 
BRANCH  53  54
ATOM     54  C   UNL     1       7.506   0.716  22.968  0.00  0.00    +0.025 A 
ATOM     55  C   UNL     1       8.635   1.458  22.566  0.00  0.00    +0.015 A 
ATOM     56  C   UNL     1       8.522   2.780  22.112  0.00  0.00    +0.050 A 
ATOM     57  C   UNL     1       7.273   3.376  22.053  0.00  0.00    +0.158 A 
ATOM     58  C   UNL     1       6.124   2.674  22.433  0.00  0.00    +0.162 A 
ATOM     59  C   UNL     1       6.245   1.345  22.884  0.00  0.00    +0.061 A 
BRANCH  58  60
ATOM     60  O   UNL     1       4.957   3.384  22.290  0.00  0.00    -0.491 OA
ATOM     61  C   UNL     1       3.885   3.042  23.157  0.00  0.00    +0.277 C 
ENDBRANCH  58  60
BRANCH  57  62
ATOM     62  O   UNL     1       7.183   4.662  21.585  0.00  0.00    -0.503 OA
ATOM     63  H   UNL     1       7.927   4.756  20.958  0.00  0.00    +0.292 HD
ENDBRANCH  57  62
ENDBRANCH  53  54
BRANCH  52  64
ATOM     64  O   UNL     1       8.634  -5.407  24.601  0.00  0.00    -0.506 OA
ATOM     65  H   UNL     1       8.839  -4.711  25.246  0.00  0.00    +0.292 HD
ENDBRANCH  52  64
BRANCH  49  66
ATOM     66  O   UNL     1       5.487  -5.977  21.130  0.00  0.00    -0.507 OA
ATOM     67  H   UNL     1       5.810  -6.006  20.214  0.00  0.00    +0.292 HD
ENDBRANCH  49  66
ENDBRANCH  42  43
ENDBRANCH  32  42
ENDBRANCH  29  30
ENDBRANCH  28  29
ENDBRANCH   2  28
BRANCH   1  68
ATOM     68  O   UNL     1       2.215   1.462  27.659  0.00  0.00    -0.338 OA
BRANCH  68  72
ATOM     69  C   UNL     1       1.092   5.604  26.309  0.00  0.00    +0.041 C 
ATOM     70  C   UNL     1       2.346   4.878  26.786  0.00  0.00    +0.149 C 
ATOM     71  O   UNL     1       2.127   3.478  26.825  0.00  0.00    -0.343 OA
ATOM     72  C   UNL     1       1.727   2.761  28.003  0.00  0.00    +0.282 C 
ATOM     73  C   UNL     1       2.216   3.393  29.344  0.00  0.00    +0.201 C 
ATOM     74  C   UNL     1       2.208   4.938  29.291  0.00  0.00    +0.179 C 
ATOM     75  C   UNL     1       2.947   5.467  28.061  0.00  0.00    +0.174 C 
BRANCH  75  76
ATOM     76  O   UNL     1       4.342   5.134  28.158  0.00  0.00    -0.387 OA
ATOM     77  H   UNL     1       4.730   5.248  27.266  0.00  0.00    +0.210 HD
ENDBRANCH  75  76
BRANCH  74  78
ATOM     78  O   UNL     1       2.833   5.457  30.480  0.00  0.00    -0.386 OA
ATOM     79  H   UNL     1       2.629   6.416  30.480  0.00  0.00    +0.210 HD
ENDBRANCH  74  78
BRANCH  73  80
ATOM     80  O   UNL     1       3.538   2.943  29.702  0.00  0.00    -0.384 OA
ATOM     81  H   UNL     1       3.742   3.375  30.554  0.00  0.00    +0.210 HD
ENDBRANCH  73  80
ENDBRANCH  68  72
ENDBRANCH   1  68
TORSDOF 28
ENDMDL
MODEL 9
REMARK VINA RESULT:      -6.3      2.263      6.261
REMARK  Name = 
REMARK  30 active torsions:
REMARK  status: ('A' for Active; 'I' for Inactive)
REMARK    1  A    between atoms: C_1  and  C_2
REMARK    2  A    between atoms: C_3  and  O_78
REMARK    3  A    between atoms: C_5  and  O_77
REMARK    4  A    between atoms: C_6  and  O_76
REMARK    5  A    between atoms: C_8  and  O_11
REMARK    6  A    between atoms: O_11  and  C_12
REMARK    7  A    between atoms: C_13  and  O_75
REMARK    8  A    between atoms: C_15  and  O_74
REMARK    9  A    between atoms: C_17  and  C_58
REMARK   10  A    between atoms: C_19  and  O_21
REMARK   11  A    between atoms: O_21  and  C_22
REMARK   12  A    between atoms: C_22  and  C_23
REMARK   13  A    between atoms: C_24  and  O_57
REMARK   14  A    between atoms: C_26  and  O_56
REMARK   15  A    between atoms: C_28  and  O_55
REMARK   16  A    between atoms: C_29  and  O_32
REMARK   17  A    between atoms: O_32  and  C_33
REMARK   18  A    between atoms: C_34  and  C_46
REMARK   19  A    between atoms: C_38  and  O_45
REMARK   20  A    between atoms: C_40  and  O_44
REMARK   21  A    between atoms: C_48  and  O_53
REMARK   22  A    between atoms: C_49  and  O_52
REMARK   23  A    between atoms: O_53  and  C_54
REMARK   24  A    between atoms: C_58  and  O_59
REMARK   25  A    between atoms: O_59  and  C_60
REMARK   26  A    between atoms: C_62  and  O_73
REMARK   27  A    between atoms: C_63  and  O_72
REMARK   28  A    between atoms: C_65  and  O_71
REMARK   29  A    between atoms: C_67  and  C_69
REMARK   30  A    between atoms: C_69  and  O_70
REMARK                            x       y       z     vdW  Elec       q    Type
REMARK                         _______ _______ _______ _____ _____    ______ ____
ROOT
ATOM      1  C   UNL     1       2.664   1.358  27.141  0.00  0.00    +0.208 C 
ATOM      2  C   UNL     1       3.878   0.443  26.690  0.00  0.00    +0.282 C 
ATOM      3  O   UNL     1       3.468  -0.915  26.457  0.00  0.00    -0.341 OA
ATOM      4  C   UNL     1       2.852  -1.588  27.585  0.00  0.00    +0.178 C 
ATOM      5  C   UNL     1       1.669  -0.776  28.155  0.00  0.00    +0.177 C 
ATOM      6  C   UNL     1       2.083   0.682  28.402  0.00  0.00    +0.179 C 
ENDROOT
BRANCH   6   7
ATOM      7  O   UNL     1       0.982   1.412  28.962  0.00  0.00    -0.386 OA
ATOM      8  H   UNL     1       0.622   1.969  28.246  0.00  0.00    +0.210 HD
ENDBRANCH   6   7
BRANCH   5   9
ATOM      9  O   UNL     1       1.186  -1.354  29.372  0.00  0.00    -0.386 OA
ATOM     10  H   UNL     1       1.862  -1.204  30.060  0.00  0.00    +0.210 HD
ENDBRANCH   5   9
BRANCH   4  11
ATOM     11  C   UNL     1       3.900  -1.995  28.651  0.00  0.00    +0.197 C 
BRANCH  11  12
ATOM     12  O   UNL     1       4.185  -3.388  28.820  0.00  0.00    -0.346 OA
BRANCH  12  13
ATOM     13  C   UNL     1       5.408  -3.897  28.260  0.00  0.00    +0.282 C 
ATOM     14  O   UNL     1       5.303  -3.886  26.819  0.00  0.00    -0.341 OA
ATOM     15  C   UNL     1       4.208  -4.687  26.333  0.00  0.00    +0.178 C 
ATOM     16  C   UNL     1       4.364  -6.165  26.766  0.00  0.00    +0.177 C 
ATOM     17  C   UNL     1       4.565  -6.264  28.287  0.00  0.00    +0.179 C 
ATOM     18  C   UNL     1       5.718  -5.338  28.720  0.00  0.00    +0.201 C 
BRANCH  18  19
ATOM     19  O   UNL     1       5.955  -5.428  30.128  0.00  0.00    -0.384 OA
ATOM     20  H   UNL     1       5.417  -4.736  30.556  0.00  0.00    +0.210 HD
ENDBRANCH  18  19
BRANCH  17  21
ATOM     21  O   UNL     1       3.357  -5.963  29.001  0.00  0.00    -0.386 OA
ATOM     22  H   UNL     1       2.623  -6.424  28.548  0.00  0.00    +0.210 HD
ENDBRANCH  17  21
BRANCH  16  23
ATOM     23  O   UNL     1       5.505  -6.764  26.143  0.00  0.00    -0.386 OA
ATOM     24  H   UNL     1       5.197  -7.238  25.349  0.00  0.00    +0.210 HD
ENDBRANCH  16  23
BRANCH  15  25
ATOM     25  C   UNL     1       4.085  -4.480  24.811  0.00  0.00    +0.190 C 
BRANCH  25  26
ATOM     26  O   UNL     1       4.296  -3.141  24.382  0.00  0.00    -0.392 OA
ATOM     27  H   UNL     1       4.114  -3.130  23.423  0.00  0.00    +0.210 HD
ENDBRANCH  25  26
ENDBRANCH  15  25
ENDBRANCH  12  13
ENDBRANCH  11  12
ENDBRANCH   4  11
BRANCH   2  28
ATOM     28  O   UNL     1       4.748   0.949  25.648  0.00  0.00    -0.346 OA
BRANCH  28  29
ATOM     29  C   UNL     1       5.315   2.272  25.786  0.00  0.00    +0.197 C 
BRANCH  29  30
ATOM     30  C   UNL     1       6.848   2.182  26.168  0.00  0.00    +0.179 C 
ATOM     31  O   UNL     1       7.637   1.195  25.468  0.00  0.00    -0.331 OA
ATOM     32  C   UNL     1       7.597  -0.175  25.937  0.00  0.00    +0.340 C 
ATOM     33  C   UNL     1       7.743  -0.336  27.477  0.00  0.00    +0.214 C 
ATOM     34  C   UNL     1       6.934   0.728  28.231  0.00  0.00    +0.180 C 
ATOM     35  C   UNL     1       7.182   2.128  27.668  0.00  0.00    +0.177 C 
BRANCH  34  36
ATOM     36  O   UNL     1       7.301   0.739  29.625  0.00  0.00    -0.386 OA
ATOM     37  H   UNL     1       7.155   1.665  29.912  0.00  0.00    +0.210 HD
ENDBRANCH  34  36
BRANCH  35  38
ATOM     38  O   UNL     1       6.475   3.074  28.474  0.00  0.00    -0.386 OA
ATOM     39  H   UNL     1       7.123   3.745  28.759  0.00  0.00    +0.210 HD
ENDBRANCH  35  38
BRANCH  33  40
ATOM     40  O   UNL     1       9.140  -0.300  27.845  0.00  0.00    -0.383 OA
ATOM     41  H   UNL     1       9.626   0.154  27.138  0.00  0.00    +0.210 HD
ENDBRANCH  33  40
BRANCH  32  42
ATOM     42  O   UNL     1       8.692  -0.933  25.300  0.00  0.00    -0.453 OA
BRANCH  42  43
ATOM     43  C   UNL     1       8.374  -1.652  24.162  0.00  0.00    +0.214 A 
ATOM     44  C   UNL     1       8.721  -3.095  24.091  0.00  0.00    +0.238 A 
ATOM     45  O   UNL     1       9.773  -3.526  24.556  0.00  0.00    -0.283 OA
ATOM     46  C   UNL     1       7.777  -3.924  23.350  0.00  0.00    +0.109 A 
ATOM     47  C   UNL     1       7.136  -3.317  22.275  0.00  0.00    +0.147 A 
ATOM     48  C   UNL     1       6.289  -4.100  21.498  0.00  0.00    +0.092 A 
ATOM     49  C   UNL     1       6.113  -5.454  21.835  0.00  0.00    +0.124 A 
ATOM     50  C   UNL     1       6.740  -6.030  22.936  0.00  0.00    +0.091 A 
ATOM     51  O   UNL     1       7.350  -1.987  21.978  0.00  0.00    -0.451 OA
ATOM     52  C   UNL     1       7.566  -5.244  23.705  0.00  0.00    +0.135 A 
ATOM     53  C   UNL     1       7.877  -1.164  22.979  0.00  0.00    +0.181 A 
BRANCH  53  54
ATOM     54  C   UNL     1       7.955   0.282  22.575  0.00  0.00    +0.025 A 
ATOM     55  C   UNL     1       6.770   1.032  22.431  0.00  0.00    +0.015 A 
ATOM     56  C   UNL     1       6.798   2.424  22.257  0.00  0.00    +0.050 A 
ATOM     57  C   UNL     1       8.016   3.082  22.227  0.00  0.00    +0.158 A 
ATOM     58  C   UNL     1       9.217   2.379  22.375  0.00  0.00    +0.162 A 
ATOM     59  C   UNL     1       9.181   0.982  22.553  0.00  0.00    +0.061 A 
BRANCH  58  60
ATOM     60  O   UNL     1      10.339   3.170  22.354  0.00  0.00    -0.491 OA
ATOM     61  C   UNL     1      11.097   3.242  23.553  0.00  0.00    +0.277 C 
ENDBRANCH  58  60
BRANCH  57  62
ATOM     62  O   UNL     1       8.019   4.445  22.077  0.00  0.00    -0.503 OA
ATOM     63  H   UNL     1       7.076   4.704  22.099  0.00  0.00    +0.292 HD
ENDBRANCH  57  62
ENDBRANCH  53  54
BRANCH  52  64
ATOM     64  O   UNL     1       8.150  -5.742  24.835  0.00  0.00    -0.506 OA
ATOM     65  H   UNL     1       8.452  -6.651  24.676  0.00  0.00    +0.292 HD
ENDBRANCH  52  64
BRANCH  49  66
ATOM     66  O   UNL     1       5.310  -6.283  21.105  0.00  0.00    -0.507 OA
ATOM     67  H   UNL     1       4.449  -5.856  20.965  0.00  0.00    +0.292 HD
ENDBRANCH  49  66
ENDBRANCH  42  43
ENDBRANCH  32  42
ENDBRANCH  29  30
ENDBRANCH  28  29
ENDBRANCH   2  28
BRANCH   1  68
ATOM     68  O   UNL     1       1.800   1.496  26.024  0.00  0.00    -0.338 OA
BRANCH  68  72
ATOM     69  C   UNL     1       1.667   4.292  22.502  0.00  0.00    +0.041 C 
ATOM     70  C   UNL     1       2.493   4.124  23.774  0.00  0.00    +0.149 C 
ATOM     71  O   UNL     1       2.221   2.872  24.383  0.00  0.00    -0.343 OA
ATOM     72  C   UNL     1       1.264   2.683  25.436  0.00  0.00    +0.282 C 
ATOM     73  C   UNL     1       1.061   3.926  26.357  0.00  0.00    +0.201 C 
ATOM     74  C   UNL     1       1.148   5.253  25.567  0.00  0.00    +0.179 C 
ATOM     75  C   UNL     1       2.417   5.323  24.717  0.00  0.00    +0.174 C 
BRANCH  75  76
ATOM     76  O   UNL     1       3.570   5.358  25.576  0.00  0.00    -0.387 OA
ATOM     77  H   UNL     1       3.852   6.294  25.644  0.00  0.00    +0.210 HD
ENDBRANCH  75  76
BRANCH  74  78
ATOM     78  O   UNL     1       1.134   6.357  26.490  0.00  0.00    -0.386 OA
ATOM     79  H   UNL     1       0.947   5.957  27.365  0.00  0.00    +0.210 HD
ENDBRANCH  74  78
BRANCH  73  80
ATOM     80  O   UNL     1       2.016   3.960  27.436  0.00  0.00    -0.384 OA
ATOM     81  H   UNL     1       1.861   3.146  27.953  0.00  0.00    +0.210 HD
ENDBRANCH  73  80
ENDBRANCH  68  72
ENDBRANCH   1  68
TORSDOF 28
ENDMDL
