MODEL 1
REMARK VINA RESULT:      -6.6      0.000      0.000
REMARK  Name = 
REMARK  17 active torsions:
REMARK  status: ('A' for Active; 'I' for Inactive)
REMARK    1  A    between atoms: C_1  and  O_2
REMARK    2  A    between atoms: O_2  and  C_3
REMARK    3  A    between atoms: C_5  and  O_48
REMARK    4  A    between atoms: C_10  and  C_40
REMARK    5  A    between atoms: C_11  and  O_14
REMARK    6  A    between atoms: O_14  and  C_15
REMARK    7  A    between atoms: C_17  and  O_39
REMARK    8  A    between atoms: C_18  and  O_27
REMARK    9  A    between atoms: C_20  and  O_26
REMARK   10  A    between atoms: C_22  and  C_24
REMARK   11  A    between atoms: C_24  and  O_25
REMARK   12  A    between atoms: O_27  and  C_28
REMARK   13  A    between atoms: C_30  and  O_38
REMARK   14  A    between atoms: C_31  and  O_37
REMARK   15  A    between atoms: C_33  and  O_36
REMARK   16  A    between atoms: C_42  and  O_47
REMARK   17  A    between atoms: C_43  and  O_46
REMARK                            x       y       z     vdW  Elec       q    Type
REMARK                         _______ _______ _______ _____ _____    ______ ____
ROOT
ATOM      1  O   UNL     1       7.298  -1.560  25.380  0.00  0.00    -0.453 OA
ENDROOT
BRANCH   1   7
ATOM      2  C   UNL     1       1.904  -0.400  28.716  0.00  0.00    +0.127 A 
ATOM      3  C   UNL     1       2.671   0.399  27.854  0.00  0.00    +0.092 A 
ATOM      4  C   UNL     1       3.932  -0.045  27.421  0.00  0.00    +0.147 A 
ATOM      5  O   UNL     1       4.663   0.747  26.568  0.00  0.00    -0.451 OA
ATOM      6  C   UNL     1       5.835   0.244  25.980  0.00  0.00    +0.181 A 
ATOM      7  C   UNL     1       6.310  -1.010  26.183  0.00  0.00    +0.214 A 
ATOM      8  C   UNL     1       5.517  -1.857  27.099  0.00  0.00    +0.238 A 
ATOM      9  O   UNL     1       5.668  -3.067  27.114  0.00  0.00    -0.283 OA
ATOM     10  C   UNL     1       4.395  -1.281  27.834  0.00  0.00    +0.109 A 
ATOM     11  C   UNL     1       3.674  -2.033  28.768  0.00  0.00    +0.135 A 
ATOM     12  C   UNL     1       2.430  -1.599  29.200  0.00  0.00    +0.092 A 
BRANCH   6  13
ATOM     13  C   UNL     1       6.454   1.192  25.007  0.00  0.00    +0.025 A 
ATOM     14  C   UNL     1       6.160   1.093  23.632  0.00  0.00    +0.015 A 
ATOM     15  C   UNL     1       6.742   1.957  22.694  0.00  0.00    +0.050 A 
ATOM     16  C   UNL     1       7.650   2.914  23.126  0.00  0.00    +0.158 A 
ATOM     17  C   UNL     1       7.947   3.041  24.472  0.00  0.00    +0.159 A 
ATOM     18  C   UNL     1       7.334   2.217  25.412  0.00  0.00    +0.060 A 
BRANCH  17  19
ATOM     19  O   UNL     1       8.863   3.991  24.835  0.00  0.00    -0.503 OA
ATOM     20  H   UNL     1       9.718   3.757  24.433  0.00  0.00    +0.292 HD
ENDBRANCH  17  19
BRANCH  16  21
ATOM     21  O   UNL     1       8.243   3.732  22.213  0.00  0.00    -0.503 OA
ATOM     22  H   UNL     1       9.172   3.800  22.513  0.00  0.00    +0.292 HD
ENDBRANCH  16  21
ENDBRANCH   6  13
BRANCH  11  23
ATOM     23  O   UNL     1       4.180  -3.193  29.278  0.00  0.00    -0.506 OA
ATOM     24  H   UNL     1       5.114  -3.271  29.023  0.00  0.00    +0.292 HD
ENDBRANCH  11  23
BRANCH   2  26
ATOM     25  C   UNL     1       0.503   0.753  30.270  0.00  0.00    +0.277 C 
ATOM     26  O   UNL     1       0.644  -0.147  29.179  0.00  0.00    -0.495 OA
ENDBRANCH   2  26
ENDBRANCH   1   7
BRANCH   1  27
ATOM     27  C   UNL     1       8.668  -1.759  25.773  0.00  0.00    +0.340 C 
ATOM     28  O   UNL     1       9.432  -0.596  25.276  0.00  0.00    -0.331 OA
ATOM     29  C   UNL     1       9.527  -0.529  23.817  0.00  0.00    +0.179 C 
ATOM     30  C   UNL     1      10.075  -1.831  23.177  0.00  0.00    +0.177 C 
ATOM     31  C   UNL     1       9.242  -3.024  23.664  0.00  0.00    +0.187 C 
ATOM     32  C   UNL     1       9.434  -2.984  25.191  0.00  0.00    +0.214 C 
BRANCH  32  33
ATOM     33  O   UNL     1       9.303  -4.274  25.764  0.00  0.00    -0.383 OA
ATOM     34  H   UNL     1       8.492  -4.689  25.406  0.00  0.00    +0.210 HD
ENDBRANCH  32  33
BRANCH  30  35
ATOM     35  O   UNL     1      10.154  -1.768  21.754  0.00  0.00    -0.386 OA
ATOM     36  H   UNL     1       9.251  -1.608  21.408  0.00  0.00    +0.210 HD
ENDBRANCH  30  35
BRANCH  31  37
ATOM     37  O   UNL     1       7.829  -2.995  23.320  0.00  0.00    -0.340 OA
BRANCH  37  38
ATOM     38  C   UNL     1       7.358  -3.922  22.327  0.00  0.00    +0.282 C 
ATOM     39  O   UNL     1       6.087  -3.513  21.788  0.00  0.00    -0.346 OA
ATOM     40  C   UNL     1       4.986  -3.580  22.691  0.00  0.00    +0.197 C 
ATOM     41  C   UNL     1       4.834  -4.981  23.287  0.00  0.00    +0.171 C 
ATOM     42  C   UNL     1       6.153  -5.434  23.920  0.00  0.00    +0.178 C 
ATOM     43  C   UNL     1       7.281  -5.359  22.880  0.00  0.00    +0.201 C 
BRANCH  43  44
ATOM     44  O   UNL     1       8.523  -5.796  23.448  0.00  0.00    -0.384 OA
ATOM     45  H   UNL     1       8.343  -5.942  24.400  0.00  0.00    +0.210 HD
ENDBRANCH  43  44
BRANCH  42  46
ATOM     46  O   UNL     1       6.481  -4.647  25.078  0.00  0.00    -0.386 OA
ATOM     47  H   UNL     1       6.449  -3.694  24.837  0.00  0.00    +0.210 HD
ENDBRANCH  42  46
BRANCH  41  48
ATOM     48  O   UNL     1       4.454  -5.910  22.261  0.00  0.00    -0.387 OA
ATOM     49  H   UNL     1       4.124  -5.402  21.495  0.00  0.00    +0.210 HD
ENDBRANCH  41  48
ENDBRANCH  37  38
ENDBRANCH  31  37
BRANCH  29  50
ATOM     50  C   UNL     1      10.431   0.656  23.426  0.00  0.00    +0.190 C 
BRANCH  50  51
ATOM     51  O   UNL     1      10.176   1.111  22.098  0.00  0.00    -0.392 OA
ATOM     52  H   UNL     1       9.830   0.344  21.603  0.00  0.00    +0.210 HD
ENDBRANCH  50  51
ENDBRANCH  29  50
ENDBRANCH   1  27
TORSDOF 16
ENDMDL
MODEL 2
REMARK VINA RESULT:      -6.4      2.326      6.050
REMARK  Name = 
REMARK  17 active torsions:
REMARK  status: ('A' for Active; 'I' for Inactive)
REMARK    1  A    between atoms: C_1  and  O_2
REMARK    2  A    between atoms: O_2  and  C_3
REMARK    3  A    between atoms: C_5  and  O_48
REMARK    4  A    between atoms: C_10  and  C_40
REMARK    5  A    between atoms: C_11  and  O_14
REMARK    6  A    between atoms: O_14  and  C_15
REMARK    7  A    between atoms: C_17  and  O_39
REMARK    8  A    between atoms: C_18  and  O_27
REMARK    9  A    between atoms: C_20  and  O_26
REMARK   10  A    between atoms: C_22  and  C_24
REMARK   11  A    between atoms: C_24  and  O_25
REMARK   12  A    between atoms: O_27  and  C_28
REMARK   13  A    between atoms: C_30  and  O_38
REMARK   14  A    between atoms: C_31  and  O_37
REMARK   15  A    between atoms: C_33  and  O_36
REMARK   16  A    between atoms: C_42  and  O_47
REMARK   17  A    between atoms: C_43  and  O_46
REMARK                            x       y       z     vdW  Elec       q    Type
REMARK                         _______ _______ _______ _____ _____    ______ ____
ROOT
ATOM      1  O   UNL     1       5.382  -1.975  25.887  0.00  0.00    -0.453 OA
ENDROOT
BRANCH   1   7
ATOM      2  C   UNL     1       7.410   4.122  25.353  0.00  0.00    +0.127 A 
ATOM      3  C   UNL     1       8.090   2.895  25.321  0.00  0.00    +0.092 A 
ATOM      4  C   UNL     1       7.422   1.711  25.677  0.00  0.00    +0.147 A 
ATOM      5  O   UNL     1       8.101   0.519  25.628  0.00  0.00    -0.451 OA
ATOM      6  C   UNL     1       7.406  -0.690  25.800  0.00  0.00    +0.181 A 
ATOM      7  C   UNL     1       6.067  -0.775  26.002  0.00  0.00    +0.214 A 
ATOM      8  C   UNL     1       5.343   0.512  26.051  0.00  0.00    +0.238 A 
ATOM      9  O   UNL     1       4.130   0.548  25.919  0.00  0.00    -0.283 OA
ATOM     10  C   UNL     1       6.087   1.768  26.036  0.00  0.00    +0.109 A 
ATOM     11  C   UNL     1       5.437   3.000  26.161  0.00  0.00    +0.135 A 
ATOM     12  C   UNL     1       6.093   4.171  25.813  0.00  0.00    +0.092 A 
BRANCH   6  13
ATOM     13  C   UNL     1       8.271  -1.893  25.620  0.00  0.00    +0.025 A 
ATOM     14  C   UNL     1       9.102  -2.010  24.488  0.00  0.00    +0.015 A 
ATOM     15  C   UNL     1       9.909  -3.138  24.283  0.00  0.00    +0.050 A 
ATOM     16  C   UNL     1       9.869  -4.175  25.204  0.00  0.00    +0.158 A 
ATOM     17  C   UNL     1       9.072  -4.081  26.333  0.00  0.00    +0.159 A 
ATOM     18  C   UNL     1       8.305  -2.942  26.563  0.00  0.00    +0.060 A 
BRANCH  17  19
ATOM     19  O   UNL     1       9.061  -5.144  27.195  0.00  0.00    -0.503 OA
ATOM     20  H   UNL     1       9.134  -5.960  26.671  0.00  0.00    +0.292 HD
ENDBRANCH  17  19
BRANCH  16  21
ATOM     21  O   UNL     1      10.627  -5.287  24.992  0.00  0.00    -0.503 OA
ATOM     22  H   UNL     1      10.473  -5.842  25.783  0.00  0.00    +0.292 HD
ENDBRANCH  16  21
ENDBRANCH   6  13
BRANCH  11  23
ATOM     23  O   UNL     1       4.160   3.078  26.636  0.00  0.00    -0.506 OA
ATOM     24  H   UNL     1       4.182   3.408  27.550  0.00  0.00    +0.292 HD
ENDBRANCH  11  23
BRANCH   2  26
ATOM     25  C   UNL     1       8.822   5.401  23.912  0.00  0.00    +0.277 C 
ATOM     26  O   UNL     1       7.890   5.346  24.984  0.00  0.00    -0.495 OA
ENDBRANCH   2  26
ENDBRANCH   1   7
BRANCH   1  27
ATOM     27  C   UNL     1       4.271  -2.375  26.710  0.00  0.00    +0.340 C 
ATOM     28  O   UNL     1       4.826  -3.169  27.826  0.00  0.00    -0.331 OA
ATOM     29  C   UNL     1       5.395  -4.454  27.414  0.00  0.00    +0.179 C 
ATOM     30  C   UNL     1       4.414  -5.323  26.587  0.00  0.00    +0.177 C 
ATOM     31  C   UNL     1       3.882  -4.502  25.404  0.00  0.00    +0.187 C 
ATOM     32  C   UNL     1       3.190  -3.310  26.090  0.00  0.00    +0.214 C 
BRANCH  32  33
ATOM     33  O   UNL     1       2.140  -2.791  25.292  0.00  0.00    -0.383 OA
ATOM     34  H   UNL     1       1.312  -2.828  25.812  0.00  0.00    +0.210 HD
ENDBRANCH  32  33
BRANCH  30  35
ATOM     35  O   UNL     1       4.975  -6.568  26.175  0.00  0.00    -0.386 OA
ATOM     36  H   UNL     1       4.841  -7.214  26.899  0.00  0.00    +0.210 HD
ENDBRANCH  30  35
BRANCH  31  37
ATOM     37  O   UNL     1       4.881  -4.042  24.451  0.00  0.00    -0.340 OA
BRANCH  37  38
ATOM     38  C   UNL     1       4.484  -3.896  23.078  0.00  0.00    +0.282 C 
ATOM     39  O   UNL     1       4.052  -5.152  22.519  0.00  0.00    -0.346 OA
ATOM     40  C   UNL     1       5.073  -6.133  22.352  0.00  0.00    +0.197 C 
ATOM     41  C   UNL     1       6.231  -5.598  21.507  0.00  0.00    +0.171 C 
ATOM     42  C   UNL     1       6.757  -4.286  22.098  0.00  0.00    +0.178 C 
ATOM     43  C   UNL     1       5.606  -3.275  22.222  0.00  0.00    +0.201 C 
BRANCH  43  44
ATOM     44  O   UNL     1       6.080  -2.032  22.758  0.00  0.00    -0.384 OA
ATOM     45  H   UNL     1       5.304  -1.433  22.765  0.00  0.00    +0.210 HD
ENDBRANCH  43  44
BRANCH  42  46
ATOM     46  O   UNL     1       7.385  -4.496  23.374  0.00  0.00    -0.386 OA
ATOM     47  H   UNL     1       8.335  -4.251  23.306  0.00  0.00    +0.210 HD
ENDBRANCH  42  46
BRANCH  41  48
ATOM     48  O   UNL     1       5.789  -5.372  20.160  0.00  0.00    -0.387 OA
ATOM     49  H   UNL     1       4.815  -5.321  20.162  0.00  0.00    +0.210 HD
ENDBRANCH  41  48
ENDBRANCH  37  38
ENDBRANCH  31  37
BRANCH  29  50
ATOM     50  C   UNL     1       5.841  -5.232  28.667  0.00  0.00    +0.190 C 
BRANCH  50  51
ATOM     51  O   UNL     1       6.864  -6.181  28.375  0.00  0.00    -0.392 OA
ATOM     52  H   UNL     1       7.716  -5.722  28.505  0.00  0.00    +0.210 HD
ENDBRANCH  50  51
ENDBRANCH  29  50
ENDBRANCH   1  27
TORSDOF 16
ENDMDL
MODEL 3
REMARK VINA RESULT:      -6.1      2.229      6.051
REMARK  Name = 
REMARK  17 active torsions:
REMARK  status: ('A' for Active; 'I' for Inactive)
REMARK    1  A    between atoms: C_1  and  O_2
REMARK    2  A    between atoms: O_2  and  C_3
REMARK    3  A    between atoms: C_5  and  O_48
REMARK    4  A    between atoms: C_10  and  C_40
REMARK    5  A    between atoms: C_11  and  O_14
REMARK    6  A    between atoms: O_14  and  C_15
REMARK    7  A    between atoms: C_17  and  O_39
REMARK    8  A    between atoms: C_18  and  O_27
REMARK    9  A    between atoms: C_20  and  O_26
REMARK   10  A    between atoms: C_22  and  C_24
REMARK   11  A    between atoms: C_24  and  O_25
REMARK   12  A    between atoms: O_27  and  C_28
REMARK   13  A    between atoms: C_30  and  O_38
REMARK   14  A    between atoms: C_31  and  O_37
REMARK   15  A    between atoms: C_33  and  O_36
REMARK   16  A    between atoms: C_42  and  O_47
REMARK   17  A    between atoms: C_43  and  O_46
REMARK                            x       y       z     vdW  Elec       q    Type
REMARK                         _______ _______ _______ _____ _____    ______ ____
ROOT
ATOM      1  O   UNL     1       6.051  -2.178  25.716  0.00  0.00    -0.453 OA
ENDROOT
BRANCH   1   7
ATOM      2  C   UNL     1       1.945   1.452  29.112  0.00  0.00    +0.127 A 
ATOM      3  C   UNL     1       2.252   0.083  29.154  0.00  0.00    +0.092 A 
ATOM      4  C   UNL     1       3.044  -0.491  28.146  0.00  0.00    +0.147 A 
ATOM      5  O   UNL     1       3.343  -1.830  28.211  0.00  0.00    -0.451 OA
ATOM      6  C   UNL     1       4.280  -2.381  27.320  0.00  0.00    +0.181 A 
ATOM      7  C   UNL     1       4.945  -1.668  26.379  0.00  0.00    +0.214 A 
ATOM      8  C   UNL     1       4.620  -0.227  26.316  0.00  0.00    +0.238 A 
ATOM      9  O   UNL     1       5.359   0.552  25.738  0.00  0.00    -0.283 OA
ATOM     10  C   UNL     1       3.532   0.309  27.128  0.00  0.00    +0.109 A 
ATOM     11  C   UNL     1       3.146   1.650  27.034  0.00  0.00    +0.135 A 
ATOM     12  C   UNL     1       2.364   2.222  28.025  0.00  0.00    +0.092 A 
BRANCH   6  13
ATOM     13  C   UNL     1       4.563  -3.823  27.589  0.00  0.00    +0.025 A 
ATOM     14  C   UNL     1       5.629  -4.194  28.433  0.00  0.00    +0.015 A 
ATOM     15  C   UNL     1       5.931  -5.539  28.685  0.00  0.00    +0.050 A 
ATOM     16  C   UNL     1       5.178  -6.529  28.069  0.00  0.00    +0.158 A 
ATOM     17  C   UNL     1       4.117  -6.193  27.246  0.00  0.00    +0.159 A 
ATOM     18  C   UNL     1       3.785  -4.858  27.030  0.00  0.00    +0.060 A 
BRANCH  17  19
ATOM     19  O   UNL     1       3.424  -7.213  26.652  0.00  0.00    -0.503 OA
ATOM     20  H   UNL     1       3.950  -7.541  25.901  0.00  0.00    +0.292 HD
ENDBRANCH  17  19
BRANCH  16  21
ATOM     21  O   UNL     1       5.490  -7.837  28.286  0.00  0.00    -0.503 OA
ATOM     22  H   UNL     1       4.629  -8.303  28.245  0.00  0.00    +0.292 HD
ENDBRANCH  16  21
ENDBRANCH   6  13
BRANCH  11  23
ATOM     23  O   UNL     1       3.518   2.417  25.967  0.00  0.00    -0.506 OA
ATOM     24  H   UNL     1       4.441   2.213  25.737  0.00  0.00    +0.292 HD
ENDBRANCH  11  23
BRANCH   2  26
ATOM     25  C   UNL     1       0.908   3.517  29.718  0.00  0.00    +0.277 C 
ATOM     26  O   UNL     1       1.244   2.173  30.036  0.00  0.00    -0.495 OA
ENDBRANCH   2  26
ENDBRANCH   1   7
BRANCH   1  27
ATOM     27  C   UNL     1       6.017  -3.243  24.748  0.00  0.00    +0.340 C 
ATOM     28  O   UNL     1       6.916  -4.305  25.244  0.00  0.00    -0.331 OA
ATOM     29  C   UNL     1       8.331  -3.929  25.252  0.00  0.00    +0.179 C 
ATOM     30  C   UNL     1       8.836  -3.410  23.882  0.00  0.00    +0.177 C 
ATOM     31  C   UNL     1       7.922  -2.275  23.401  0.00  0.00    +0.187 C 
ATOM     32  C   UNL     1       6.542  -2.952  23.311  0.00  0.00    +0.214 C 
BRANCH  32  33
ATOM     33  O   UNL     1       5.720  -2.327  22.339  0.00  0.00    -0.383 OA
ATOM     34  H   UNL     1       5.651  -1.376  22.561  0.00  0.00    +0.210 HD
ENDBRANCH  32  33
BRANCH  30  35
ATOM     35  O   UNL     1      10.211  -3.031  23.896  0.00  0.00    -0.386 OA
ATOM     36  H   UNL     1      10.503  -2.921  22.967  0.00  0.00    +0.210 HD
ENDBRANCH  30  35
BRANCH  31  37
ATOM     37  O   UNL     1       7.865  -1.100  24.257  0.00  0.00    -0.340 OA
BRANCH  37  38
ATOM     38  C   UNL     1       7.646   0.177  23.634  0.00  0.00    +0.282 C 
ATOM     39  O   UNL     1       7.848   0.109  22.210  0.00  0.00    -0.346 OA
ATOM     40  C   UNL     1       9.193  -0.114  21.790  0.00  0.00    +0.197 C 
ATOM     41  C   UNL     1      10.141   0.940  22.367  0.00  0.00    +0.171 C 
ATOM     42  C   UNL     1       9.996   1.008  23.890  0.00  0.00    +0.178 C 
ATOM     43  C   UNL     1       8.528   1.276  24.259  0.00  0.00    +0.201 C 
BRANCH  43  44
ATOM     44  O   UNL     1       8.372   1.360  25.683  0.00  0.00    -0.384 OA
ATOM     45  H   UNL     1       7.422   1.544  25.835  0.00  0.00    +0.210 HD
ENDBRANCH  43  44
BRANCH  42  46
ATOM     46  O   UNL     1      10.464  -0.196  24.519  0.00  0.00    -0.386 OA
ATOM     47  H   UNL     1      11.169  -0.595  23.962  0.00  0.00    +0.210 HD
ENDBRANCH  42  46
BRANCH  41  48
ATOM     48  O   UNL     1       9.845   2.226  21.801  0.00  0.00    -0.387 OA
ATOM     49  H   UNL     1       8.875   2.332  21.773  0.00  0.00    +0.210 HD
ENDBRANCH  41  48
ENDBRANCH  37  38
ENDBRANCH  31  37
BRANCH  29  50
ATOM     50  C   UNL     1       9.172  -5.146  25.684  0.00  0.00    +0.190 C 
BRANCH  50  51
ATOM     51  O   UNL     1       9.762  -5.814  24.570  0.00  0.00    -0.392 OA
ATOM     52  H   UNL     1       9.255  -5.541  23.782  0.00  0.00    +0.210 HD
ENDBRANCH  50  51
ENDBRANCH  29  50
ENDBRANCH   1  27
TORSDOF 16
ENDMDL
MODEL 4
REMARK VINA RESULT:      -6.0      1.707      2.513
REMARK  Name = 
REMARK  17 active torsions:
REMARK  status: ('A' for Active; 'I' for Inactive)
REMARK    1  A    between atoms: C_1  and  O_2
REMARK    2  A    between atoms: O_2  and  C_3
REMARK    3  A    between atoms: C_5  and  O_48
REMARK    4  A    between atoms: C_10  and  C_40
REMARK    5  A    between atoms: C_11  and  O_14
REMARK    6  A    between atoms: O_14  and  C_15
REMARK    7  A    between atoms: C_17  and  O_39
REMARK    8  A    between atoms: C_18  and  O_27
REMARK    9  A    between atoms: C_20  and  O_26
REMARK   10  A    between atoms: C_22  and  C_24
REMARK   11  A    between atoms: C_24  and  O_25
REMARK   12  A    between atoms: O_27  and  C_28
REMARK   13  A    between atoms: C_30  and  O_38
REMARK   14  A    between atoms: C_31  and  O_37
REMARK   15  A    between atoms: C_33  and  O_36
REMARK   16  A    between atoms: C_42  and  O_47
REMARK   17  A    between atoms: C_43  and  O_46
REMARK                            x       y       z     vdW  Elec       q    Type
REMARK                         _______ _______ _______ _____ _____    ______ ____
ROOT
ATOM      1  O   UNL     1       6.861  -1.603  25.877  0.00  0.00    -0.453 OA
ENDROOT
BRANCH   1   7
ATOM      2  C   UNL     1       2.761   2.487  28.713  0.00  0.00    +0.127 A 
ATOM      3  C   UNL     1       3.707   2.657  27.691  0.00  0.00    +0.092 A 
ATOM      4  C   UNL     1       4.626   1.632  27.406  0.00  0.00    +0.147 A 
ATOM      5  O   UNL     1       5.537   1.812  26.394  0.00  0.00    -0.451 OA
ATOM      6  C   UNL     1       6.337   0.737  25.974  0.00  0.00    +0.181 A 
ATOM      7  C   UNL     1       6.268  -0.513  26.496  0.00  0.00    +0.214 A 
ATOM      8  C   UNL     1       5.283  -0.700  27.584  0.00  0.00    +0.238 A 
ATOM      9  O   UNL     1       4.921  -1.819  27.909  0.00  0.00    -0.283 OA
ATOM     10  C   UNL     1       4.573   0.453  28.128  0.00  0.00    +0.109 A 
ATOM     11  C   UNL     1       3.695   0.322  29.210  0.00  0.00    +0.135 A 
ATOM     12  C   UNL     1       2.787   1.330  29.496  0.00  0.00    +0.092 A 
BRANCH   6  13
ATOM     13  C   UNL     1       7.200   1.073  24.802  0.00  0.00    +0.025 A 
ATOM     14  C   UNL     1       6.722   0.888  23.490  0.00  0.00    +0.015 A 
ATOM     15  C   UNL     1       7.517   1.176  22.372  0.00  0.00    +0.050 A 
ATOM     16  C   UNL     1       8.816   1.628  22.563  0.00  0.00    +0.158 A 
ATOM     17  C   UNL     1       9.306   1.831  23.842  0.00  0.00    +0.159 A 
ATOM     18  C   UNL     1       8.503   1.592  24.954  0.00  0.00    +0.060 A 
BRANCH  17  19
ATOM     19  O   UNL     1      10.600   2.261  23.967  0.00  0.00    -0.503 OA
ATOM     20  H   UNL     1      10.917   2.527  23.086  0.00  0.00    +0.292 HD
ENDBRANCH  17  19
BRANCH  16  21
ATOM     21  O   UNL     1       9.603   1.877  21.480  0.00  0.00    -0.503 OA
ATOM     22  H   UNL     1      10.459   1.456  21.699  0.00  0.00    +0.292 HD
ENDBRANCH  16  21
ENDBRANCH   6  13
BRANCH  11  23
ATOM     23  O   UNL     1       3.720  -0.785  30.007  0.00  0.00    -0.506 OA
ATOM     24  H   UNL     1       2.920  -0.796  30.559  0.00  0.00    +0.292 HD
ENDBRANCH  11  23
BRANCH   2  26
ATOM     25  C   UNL     1       0.539   2.801  29.531  0.00  0.00    +0.277 C 
ATOM     26  O   UNL     1       1.767   3.351  29.075  0.00  0.00    -0.495 OA
ENDBRANCH   2  26
ENDBRANCH   1   7
BRANCH   1  27
ATOM     27  C   UNL     1       8.132  -2.171  26.243  0.00  0.00    +0.340 C 
ATOM     28  O   UNL     1       9.103  -1.755  25.210  0.00  0.00    -0.331 OA
ATOM     29  C   UNL     1       8.858  -2.346  23.893  0.00  0.00    +0.179 C 
ATOM     30  C   UNL     1       8.753  -3.892  23.925  0.00  0.00    +0.177 C 
ATOM     31  C   UNL     1       7.707  -4.308  24.967  0.00  0.00    +0.187 C 
ATOM     32  C   UNL     1       8.265  -3.722  26.276  0.00  0.00    +0.214 C 
BRANCH  32  33
ATOM     33  O   UNL     1       7.844  -4.473  27.402  0.00  0.00    -0.383 OA
ATOM     34  H   UNL     1       7.332  -5.244  27.084  0.00  0.00    +0.210 HD
ENDBRANCH  32  33
BRANCH  30  35
ATOM     35  O   UNL     1       8.501  -4.465  22.643  0.00  0.00    -0.386 OA
ATOM     36  H   UNL     1       7.622  -4.896  22.673  0.00  0.00    +0.210 HD
ENDBRANCH  30  35
BRANCH  31  37
ATOM     37  O   UNL     1       6.351  -3.839  24.728  0.00  0.00    -0.340 OA
BRANCH  37  38
ATOM     38  C   UNL     1       5.273  -4.534  25.377  0.00  0.00    +0.282 C 
ATOM     39  O   UNL     1       5.367  -5.956  25.174  0.00  0.00    -0.346 OA
ATOM     40  C   UNL     1       5.144  -6.402  23.838  0.00  0.00    +0.197 C 
ATOM     41  C   UNL     1       3.792  -5.923  23.306  0.00  0.00    +0.171 C 
ATOM     42  C   UNL     1       3.672  -4.403  23.455  0.00  0.00    +0.178 C 
ATOM     43  C   UNL     1       3.897  -4.006  24.922  0.00  0.00    +0.201 C 
BRANCH  43  44
ATOM     44  O   UNL     1       3.772  -2.587  25.087  0.00  0.00    -0.384 OA
ATOM     45  H   UNL     1       4.199  -2.381  25.945  0.00  0.00    +0.210 HD
ENDBRANCH  43  44
BRANCH  42  46
ATOM     46  O   UNL     1       4.596  -3.714  22.596  0.00  0.00    -0.386 OA
ATOM     47  H   UNL     1       5.184  -3.150  23.147  0.00  0.00    +0.210 HD
ENDBRANCH  42  46
BRANCH  41  48
ATOM     48  O   UNL     1       2.729  -6.559  24.030  0.00  0.00    -0.387 OA
ATOM     49  H   UNL     1       2.588  -6.068  24.861  0.00  0.00    +0.210 HD
ENDBRANCH  41  48
ENDBRANCH  37  38
ENDBRANCH  31  37
BRANCH  29  50
ATOM     50  C   UNL     1       9.989  -1.926  22.935  0.00  0.00    +0.190 C 
BRANCH  50  51
ATOM     51  O   UNL     1       9.547  -1.852  21.581  0.00  0.00    -0.392 OA
ATOM     52  H   UNL     1       9.849  -2.672  21.145  0.00  0.00    +0.210 HD
ENDBRANCH  50  51
ENDBRANCH  29  50
ENDBRANCH   1  27
TORSDOF 16
ENDMDL
MODEL 5
REMARK VINA RESULT:      -5.8      2.430      6.501
REMARK  Name = 
REMARK  17 active torsions:
REMARK  status: ('A' for Active; 'I' for Inactive)
REMARK    1  A    between atoms: C_1  and  O_2
REMARK    2  A    between atoms: O_2  and  C_3
REMARK    3  A    between atoms: C_5  and  O_48
REMARK    4  A    between atoms: C_10  and  C_40
REMARK    5  A    between atoms: C_11  and  O_14
REMARK    6  A    between atoms: O_14  and  C_15
REMARK    7  A    between atoms: C_17  and  O_39
REMARK    8  A    between atoms: C_18  and  O_27
REMARK    9  A    between atoms: C_20  and  O_26
REMARK   10  A    between atoms: C_22  and  C_24
REMARK   11  A    between atoms: C_24  and  O_25
REMARK   12  A    between atoms: O_27  and  C_28
REMARK   13  A    between atoms: C_30  and  O_38
REMARK   14  A    between atoms: C_31  and  O_37
REMARK   15  A    between atoms: C_33  and  O_36
REMARK   16  A    between atoms: C_42  and  O_47
REMARK   17  A    between atoms: C_43  and  O_46
REMARK                            x       y       z     vdW  Elec       q    Type
REMARK                         _______ _______ _______ _____ _____    ______ ____
ROOT
ATOM      1  O   UNL     1       4.756  -2.903  27.051  0.00  0.00    -0.453 OA
ENDROOT
BRANCH   1   7
ATOM      2  C   UNL     1       5.486   2.825  24.180  0.00  0.00    +0.127 A 
ATOM      3  C   UNL     1       6.315   1.695  24.256  0.00  0.00    +0.092 A 
ATOM      4  C   UNL     1       5.994   0.646  25.135  0.00  0.00    +0.147 A 
ATOM      5  O   UNL     1       6.811  -0.457  25.186  0.00  0.00    -0.451 OA
ATOM      6  C   UNL     1       6.412  -1.589  25.916  0.00  0.00    +0.181 A 
ATOM      7  C   UNL     1       5.236  -1.688  26.584  0.00  0.00    +0.214 A 
ATOM      8  C   UNL     1       4.361  -0.498  26.521  0.00  0.00    +0.238 A 
ATOM      9  O   UNL     1       3.179  -0.580  26.813  0.00  0.00    -0.283 OA
ATOM     10  C   UNL     1       4.847   0.731  25.903  0.00  0.00    +0.109 A 
ATOM     11  C   UNL     1       4.075   1.898  25.898  0.00  0.00    +0.135 A 
ATOM     12  C   UNL     1       4.388   2.936  25.035  0.00  0.00    +0.092 A 
BRANCH   6  13
ATOM     13  C   UNL     1       7.365  -2.732  25.788  0.00  0.00    +0.025 A 
ATOM     14  C   UNL     1       8.273  -2.786  24.712  0.00  0.00    +0.015 A 
ATOM     15  C   UNL     1       9.163  -3.857  24.557  0.00  0.00    +0.050 A 
ATOM     16  C   UNL     1       9.132  -4.902  25.470  0.00  0.00    +0.158 A 
ATOM     17  C   UNL     1       8.259  -4.869  26.544  0.00  0.00    +0.159 A 
ATOM     18  C   UNL     1       7.406  -3.783  26.728  0.00  0.00    +0.060 A 
BRANCH  17  19
ATOM     19  O   UNL     1       8.262  -5.936  27.401  0.00  0.00    -0.503 OA
ATOM     20  H   UNL     1       7.652  -5.738  28.133  0.00  0.00    +0.292 HD
ENDBRANCH  17  19
BRANCH  16  21
ATOM     21  O   UNL     1       9.973  -5.961  25.303  0.00  0.00    -0.503 OA
ATOM     22  H   UNL     1      10.844  -5.553  25.117  0.00  0.00    +0.292 HD
ENDBRANCH  16  21
ENDBRANCH   6  13
BRANCH  11  23
ATOM     23  O   UNL     1       3.014   2.043  26.745  0.00  0.00    -0.506 OA
ATOM     24  H   UNL     1       3.340   2.327  27.615  0.00  0.00    +0.292 HD
ENDBRANCH  11  23
BRANCH   2  26
ATOM     25  C   UNL     1       6.711   3.900  22.433  0.00  0.00    +0.277 C 
ATOM     26  O   UNL     1       5.620   3.896  23.344  0.00  0.00    -0.495 OA
ENDBRANCH   2  26
ENDBRANCH   1   7
BRANCH   1  27
ATOM     27  C   UNL     1       3.996  -3.081  28.259  0.00  0.00    +0.340 C 
ATOM     28  O   UNL     1       4.807  -3.928  29.158  0.00  0.00    -0.331 OA
ATOM     29  C   UNL     1       4.978  -5.303  28.683  0.00  0.00    +0.179 C 
ATOM     30  C   UNL     1       3.638  -6.011  28.361  0.00  0.00    +0.177 C 
ATOM     31  C   UNL     1       2.826  -5.144  27.390  0.00  0.00    +0.187 C 
ATOM     32  C   UNL     1       2.633  -3.832  28.171  0.00  0.00    +0.214 C 
BRANCH  32  33
ATOM     33  O   UNL     1       1.449  -3.161  27.775  0.00  0.00    -0.383 OA
ATOM     34  H   UNL     1       1.597  -2.772  26.889  0.00  0.00    +0.210 HD
ENDBRANCH  32  33
BRANCH  30  35
ATOM     35  O   UNL     1       3.807  -7.346  27.886  0.00  0.00    -0.386 OA
ATOM     36  H   UNL     1       4.664  -7.391  27.412  0.00  0.00    +0.210 HD
ENDBRANCH  30  35
BRANCH  31  37
ATOM     37  O   UNL     1       3.444  -4.890  26.097  0.00  0.00    -0.340 OA
BRANCH  37  38
ATOM     38  C   UNL     1       3.324  -5.902  25.083  0.00  0.00    +0.282 C 
ATOM     39  O   UNL     1       4.534  -6.675  24.967  0.00  0.00    -0.346 OA
ATOM     40  C   UNL     1       5.663  -5.975  24.448  0.00  0.00    +0.197 C 
ATOM     41  C   UNL     1       5.355  -5.345  23.088  0.00  0.00    +0.171 C 
ATOM     42  C   UNL     1       4.102  -4.469  23.181  0.00  0.00    +0.178 C 
ATOM     43  C   UNL     1       2.927  -5.300  23.720  0.00  0.00    +0.201 C 
BRANCH  43  44
ATOM     44  O   UNL     1       1.738  -4.502  23.799  0.00  0.00    -0.384 OA
ATOM     45  H   UNL     1       2.005  -3.600  23.525  0.00  0.00    +0.210 HD
ENDBRANCH  43  44
BRANCH  42  46
ATOM     46  O   UNL     1       4.325  -3.313  24.005  0.00  0.00    -0.386 OA
ATOM     47  H   UNL     1       5.292  -3.206  24.150  0.00  0.00    +0.210 HD
ENDBRANCH  42  46
BRANCH  41  48
ATOM     48  O   UNL     1       5.147  -6.374  22.109  0.00  0.00    -0.387 OA
ATOM     49  H   UNL     1       4.822  -7.172  22.567  0.00  0.00    +0.210 HD
ENDBRANCH  41  48
ENDBRANCH  37  38
ENDBRANCH  31  37
BRANCH  29  50
ATOM     50  C   UNL     1       5.745  -6.111  29.748  0.00  0.00    +0.190 C 
BRANCH  50  51
ATOM     51  O   UNL     1       6.429  -7.229  29.185  0.00  0.00    -0.392 OA
ATOM     52  H   UNL     1       6.145  -8.013  29.691  0.00  0.00    +0.210 HD
ENDBRANCH  50  51
ENDBRANCH  29  50
ENDBRANCH   1  27
TORSDOF 16
ENDMDL
MODEL 6
REMARK VINA RESULT:      -5.8      2.233      6.519
REMARK  Name = 
REMARK  17 active torsions:
REMARK  status: ('A' for Active; 'I' for Inactive)
REMARK    1  A    between atoms: C_1  and  O_2
REMARK    2  A    between atoms: O_2  and  C_3
REMARK    3  A    between atoms: C_5  and  O_48
REMARK    4  A    between atoms: C_10  and  C_40
REMARK    5  A    between atoms: C_11  and  O_14
REMARK    6  A    between atoms: O_14  and  C_15
REMARK    7  A    between atoms: C_17  and  O_39
REMARK    8  A    between atoms: C_18  and  O_27
REMARK    9  A    between atoms: C_20  and  O_26
REMARK   10  A    between atoms: C_22  and  C_24
REMARK   11  A    between atoms: C_24  and  O_25
REMARK   12  A    between atoms: O_27  and  C_28
REMARK   13  A    between atoms: C_30  and  O_38
REMARK   14  A    between atoms: C_31  and  O_37
REMARK   15  A    between atoms: C_33  and  O_36
REMARK   16  A    between atoms: C_42  and  O_47
REMARK   17  A    between atoms: C_43  and  O_46
REMARK                            x       y       z     vdW  Elec       q    Type
REMARK                         _______ _______ _______ _____ _____    ______ ____
ROOT
ATOM      1  O   UNL     1       5.860  -1.248  25.537  0.00  0.00    -0.453 OA
ENDROOT
BRANCH   1   7
ATOM      2  C   UNL     1       3.129  -6.976  24.390  0.00  0.00    +0.127 A 
ATOM      3  C   UNL     1       4.329  -6.397  23.948  0.00  0.00    +0.092 A 
ATOM      4  C   UNL     1       4.582  -5.035  24.188  0.00  0.00    +0.147 A 
ATOM      5  O   UNL     1       5.768  -4.490  23.758  0.00  0.00    -0.451 OA
ATOM      6  C   UNL     1       6.119  -3.186  24.147  0.00  0.00    +0.181 A 
ATOM      7  C   UNL     1       5.360  -2.403  24.953  0.00  0.00    +0.214 A 
ATOM      8  C   UNL     1       4.087  -2.997  25.413  0.00  0.00    +0.238 A 
ATOM      9  O   UNL     1       3.488  -2.523  26.364  0.00  0.00    -0.283 OA
ATOM     10  C   UNL     1       3.649  -4.282  24.878  0.00  0.00    +0.109 A 
ATOM     11  C   UNL     1       2.414  -4.835  25.232  0.00  0.00    +0.135 A 
ATOM     12  C   UNL     1       2.158  -6.177  24.997  0.00  0.00    +0.092 A 
BRANCH   6  13
ATOM     13  C   UNL     1       7.478  -2.783  23.679  0.00  0.00    +0.025 A 
ATOM     14  C   UNL     1       8.624  -3.165  24.404  0.00  0.00    +0.015 A 
ATOM     15  C   UNL     1       9.910  -2.783  23.998  0.00  0.00    +0.050 A 
ATOM     16  C   UNL     1      10.056  -1.987  22.871  0.00  0.00    +0.158 A 
ATOM     17  C   UNL     1       8.949  -1.607  22.132  0.00  0.00    +0.159 A 
ATOM     18  C   UNL     1       7.673  -2.025  22.505  0.00  0.00    +0.060 A 
BRANCH  17  19
ATOM     19  O   UNL     1       9.154  -0.807  21.041  0.00  0.00    -0.503 OA
ATOM     20  H   UNL     1       9.433  -1.372  20.299  0.00  0.00    +0.292 HD
ENDBRANCH  17  19
BRANCH  16  21
ATOM     21  O   UNL     1      11.302  -1.586  22.493  0.00  0.00    -0.503 OA
ATOM     22  H   UNL     1      11.472  -0.783  23.028  0.00  0.00    +0.292 HD
ENDBRANCH  16  21
ENDBRANCH   6  13
BRANCH  11  23
ATOM     23  O   UNL     1       1.437  -4.069  25.800  0.00  0.00    -0.506 OA
ATOM     24  H   UNL     1       1.435  -4.220  26.760  0.00  0.00    +0.292 HD
ENDBRANCH  11  23
BRANCH   2  26
ATOM     25  C   UNL     1       1.377  -8.575  24.105  0.00  0.00    +0.277 C 
ATOM     26  O   UNL     1       2.756  -8.286  24.293  0.00  0.00    -0.495 OA
ENDBRANCH   2  26
ENDBRANCH   1   7
BRANCH   1  27
ATOM     27  C   UNL     1       6.424  -1.167  26.858  0.00  0.00    +0.340 C 
ATOM     28  O   UNL     1       5.372  -0.628  27.744  0.00  0.00    -0.331 OA
ATOM     29  C   UNL     1       5.017   0.764  27.464  0.00  0.00    +0.179 C 
ATOM     30  C   UNL     1       6.238   1.719  27.456  0.00  0.00    +0.177 C 
ATOM     31  C   UNL     1       7.302   1.173  26.496  0.00  0.00    +0.187 C 
ATOM     32  C   UNL     1       7.631  -0.209  27.088  0.00  0.00    +0.214 C 
BRANCH  32  33
ATOM     33  O   UNL     1       8.956  -0.606  26.775  0.00  0.00    -0.383 OA
ATOM     34  H   UNL     1       9.526  -0.410  27.546  0.00  0.00    +0.210 HD
ENDBRANCH  32  33
BRANCH  30  35
ATOM     35  O   UNL     1       5.891   3.073  27.170  0.00  0.00    -0.386 OA
ATOM     36  H   UNL     1       5.920   3.193  26.198  0.00  0.00    +0.210 HD
ENDBRANCH  30  35
BRANCH  31  37
ATOM     37  O   UNL     1       6.901   1.056  25.103  0.00  0.00    -0.340 OA
BRANCH  37  38
ATOM     38  C   UNL     1       7.878   1.356  24.093  0.00  0.00    +0.282 C 
ATOM     39  O   UNL     1       8.918   2.210  24.604  0.00  0.00    -0.346 OA
ATOM     40  C   UNL     1       8.518   3.541  24.925  0.00  0.00    +0.197 C 
ATOM     41  C   UNL     1       7.864   4.233  23.728  0.00  0.00    +0.171 C 
ATOM     42  C   UNL     1       6.715   3.380  23.184  0.00  0.00    +0.178 C 
ATOM     43  C   UNL     1       7.231   1.974  22.837  0.00  0.00    +0.201 C 
BRANCH  43  44
ATOM     44  O   UNL     1       6.172   1.163  22.310  0.00  0.00    -0.384 OA
ATOM     45  H   UNL     1       5.970   0.504  23.007  0.00  0.00    +0.210 HD
ENDBRANCH  43  44
BRANCH  42  46
ATOM     46  O   UNL     1       5.626   3.303  24.119  0.00  0.00    -0.386 OA
ATOM     47  H   UNL     1       4.782   3.217  23.621  0.00  0.00    +0.210 HD
ENDBRANCH  42  46
BRANCH  41  48
ATOM     48  O   UNL     1       8.837   4.440  22.692  0.00  0.00    -0.387 OA
ATOM     49  H   UNL     1       8.463   5.063  22.041  0.00  0.00    +0.210 HD
ENDBRANCH  41  48
ENDBRANCH  37  38
ENDBRANCH  31  37
BRANCH  29  50
ATOM     50  C   UNL     1       3.995   1.243  28.514  0.00  0.00    +0.190 C 
BRANCH  50  51
ATOM     51  O   UNL     1       4.614   1.973  29.572  0.00  0.00    -0.392 OA
ATOM     52  H   UNL     1       4.042   2.743  29.750  0.00  0.00    +0.210 HD
ENDBRANCH  50  51
ENDBRANCH  29  50
ENDBRANCH   1  27
TORSDOF 16
ENDMDL
MODEL 7
REMARK VINA RESULT:      -5.8      2.219      3.030
REMARK  Name = 
REMARK  17 active torsions:
REMARK  status: ('A' for Active; 'I' for Inactive)
REMARK    1  A    between atoms: C_1  and  O_2
REMARK    2  A    between atoms: O_2  and  C_3
REMARK    3  A    between atoms: C_5  and  O_48
REMARK    4  A    between atoms: C_10  and  C_40
REMARK    5  A    between atoms: C_11  and  O_14
REMARK    6  A    between atoms: O_14  and  C_15
REMARK    7  A    between atoms: C_17  and  O_39
REMARK    8  A    between atoms: C_18  and  O_27
REMARK    9  A    between atoms: C_20  and  O_26
REMARK   10  A    between atoms: C_22  and  C_24
REMARK   11  A    between atoms: C_24  and  O_25
REMARK   12  A    between atoms: O_27  and  C_28
REMARK   13  A    between atoms: C_30  and  O_38
REMARK   14  A    between atoms: C_31  and  O_37
REMARK   15  A    between atoms: C_33  and  O_36
REMARK   16  A    between atoms: C_42  and  O_47
REMARK   17  A    between atoms: C_43  and  O_46
REMARK                            x       y       z     vdW  Elec       q    Type
REMARK                         _______ _______ _______ _____ _____    ______ ____
ROOT
ATOM      1  O   UNL     1       7.225  -1.266  25.654  0.00  0.00    -0.453 OA
ENDROOT
BRANCH   1   7
ATOM      2  C   UNL     1       4.231   3.286  29.102  0.00  0.00    +0.127 A 
ATOM      3  C   UNL     1       5.136   3.355  28.031  0.00  0.00    +0.092 A 
ATOM      4  C   UNL     1       5.803   2.196  27.599  0.00  0.00    +0.147 A 
ATOM      5  O   UNL     1       6.676   2.282  26.542  0.00  0.00    -0.451 OA
ATOM      6  C   UNL     1       7.209   1.111  25.979  0.00  0.00    +0.181 A 
ATOM      7  C   UNL     1       6.907  -0.142  26.401  0.00  0.00    +0.214 A 
ATOM      8  C   UNL     1       5.964  -0.226  27.537  0.00  0.00    +0.238 A 
ATOM      9  O   UNL     1       5.393  -1.273  27.794  0.00  0.00    -0.283 OA
ATOM     10  C   UNL     1       5.542   0.990  28.224  0.00  0.00    +0.109 A 
ATOM     11  C   UNL     1       4.714   0.939  29.351  0.00  0.00    +0.135 A 
ATOM     12  C   UNL     1       4.055   2.080  29.783  0.00  0.00    +0.092 A 
BRANCH   6  13
ATOM     13  C   UNL     1       8.060   1.373  24.780  0.00  0.00    +0.025 A 
ATOM     14  C   UNL     1       9.448   1.574  24.922  0.00  0.00    +0.015 A 
ATOM     15  C   UNL     1      10.266   1.843  23.817  0.00  0.00    +0.050 A 
ATOM     16  C   UNL     1       9.693   1.939  22.557  0.00  0.00    +0.158 A 
ATOM     17  C   UNL     1       8.335   1.732  22.386  0.00  0.00    +0.159 A 
ATOM     18  C   UNL     1       7.526   1.418  23.475  0.00  0.00    +0.060 A 
BRANCH  17  19
ATOM     19  O   UNL     1       7.825   1.858  21.122  0.00  0.00    -0.503 OA
ATOM     20  H   UNL     1       8.162   1.120  20.585  0.00  0.00    +0.292 HD
ENDBRANCH  17  19
BRANCH  16  21
ATOM     21  O   UNL     1      10.481   2.233  21.485  0.00  0.00    -0.503 OA
ATOM     22  H   UNL     1      10.587   3.205  21.520  0.00  0.00    +0.292 HD
ENDBRANCH  16  21
ENDBRANCH   6  13
BRANCH  11  23
ATOM     23  O   UNL     1       4.549  -0.221  30.051  0.00  0.00    -0.506 OA
ATOM     24  H   UNL     1       4.263  -0.006  30.955  0.00  0.00    +0.292 HD
ENDBRANCH  11  23
BRANCH   2  26
ATOM     25  C   UNL     1       2.048   4.152  29.543  0.00  0.00    +0.277 C 
ATOM     26  O   UNL     1       3.461   4.297  29.603  0.00  0.00    -0.495 OA
ENDBRANCH   2  26
ENDBRANCH   1   7
BRANCH   1  27
ATOM     27  C   UNL     1       8.522  -1.888  25.607  0.00  0.00    +0.340 C 
ATOM     28  O   UNL     1       9.104  -1.573  24.286  0.00  0.00    -0.331 OA
ATOM     29  C   UNL     1       8.407  -2.206  23.165  0.00  0.00    +0.179 C 
ATOM     30  C   UNL     1       8.259  -3.741  23.322  0.00  0.00    +0.177 C 
ATOM     31  C   UNL     1       7.610  -4.052  24.677  0.00  0.00    +0.187 C 
ATOM     32  C   UNL     1       8.599  -3.442  25.687  0.00  0.00    +0.214 C 
BRANCH  32  33
ATOM     33  O   UNL     1       8.553  -4.118  26.932  0.00  0.00    -0.383 OA
ATOM     34  H   UNL     1       9.357  -3.885  27.438  0.00  0.00    +0.210 HD
ENDBRANCH  32  33
BRANCH  30  35
ATOM     35  O   UNL     1       7.568  -4.354  22.235  0.00  0.00    -0.386 OA
ATOM     36  H   UNL     1       6.623  -4.102  22.298  0.00  0.00    +0.210 HD
ENDBRANCH  30  35
BRANCH  31  37
ATOM     37  O   UNL     1       6.272  -3.518  24.878  0.00  0.00    -0.340 OA
BRANCH  37  38
ATOM     38  C   UNL     1       5.156  -4.390  24.635  0.00  0.00    +0.282 C 
ATOM     39  O   UNL     1       3.928  -3.649  24.503  0.00  0.00    -0.346 OA
ATOM     40  C   UNL     1       3.460  -3.017  25.692  0.00  0.00    +0.197 C 
ATOM     41  C   UNL     1       3.301  -4.021  26.835  0.00  0.00    +0.171 C 
ATOM     42  C   UNL     1       4.605  -4.797  27.045  0.00  0.00    +0.178 C 
ATOM     43  C   UNL     1       5.027  -5.469  25.730  0.00  0.00    +0.201 C 
BRANCH  43  44
ATOM     44  O   UNL     1       6.238  -6.216  25.909  0.00  0.00    -0.384 OA
ATOM     45  H   UNL     1       6.538  -6.455  25.007  0.00  0.00    +0.210 HD
ENDBRANCH  43  44
BRANCH  42  46
ATOM     46  O   UNL     1       5.653  -3.945  27.537  0.00  0.00    -0.386 OA
ATOM     47  H   UNL     1       6.520  -4.303  27.242  0.00  0.00    +0.210 HD
ENDBRANCH  42  46
BRANCH  41  48
ATOM     48  O   UNL     1       2.241  -4.942  26.532  0.00  0.00    -0.387 OA
ATOM     49  H   UNL     1       2.226  -5.083  25.566  0.00  0.00    +0.210 HD
ENDBRANCH  41  48
ENDBRANCH  37  38
ENDBRANCH  31  37
BRANCH  29  50
ATOM     50  C   UNL     1       9.164  -1.892  21.860  0.00  0.00    +0.190 C 
BRANCH  50  51
ATOM     51  O   UNL     1      10.563  -1.716  22.080  0.00  0.00    -0.392 OA
ATOM     52  H   UNL     1      10.947  -1.444  21.225  0.00  0.00    +0.210 HD
ENDBRANCH  50  51
ENDBRANCH  29  50
ENDBRANCH   1  27
TORSDOF 16
ENDMDL
MODEL 8
REMARK VINA RESULT:      -5.6      1.439      2.061
REMARK  Name = 
REMARK  17 active torsions:
REMARK  status: ('A' for Active; 'I' for Inactive)
REMARK    1  A    between atoms: C_1  and  O_2
REMARK    2  A    between atoms: O_2  and  C_3
REMARK    3  A    between atoms: C_5  and  O_48
REMARK    4  A    between atoms: C_10  and  C_40
REMARK    5  A    between atoms: C_11  and  O_14
REMARK    6  A    between atoms: O_14  and  C_15
REMARK    7  A    between atoms: C_17  and  O_39
REMARK    8  A    between atoms: C_18  and  O_27
REMARK    9  A    between atoms: C_20  and  O_26
REMARK   10  A    between atoms: C_22  and  C_24
REMARK   11  A    between atoms: C_24  and  O_25
REMARK   12  A    between atoms: O_27  and  C_28
REMARK   13  A    between atoms: C_30  and  O_38
REMARK   14  A    between atoms: C_31  and  O_37
REMARK   15  A    between atoms: C_33  and  O_36
REMARK   16  A    between atoms: C_42  and  O_47
REMARK   17  A    between atoms: C_43  and  O_46
REMARK                            x       y       z     vdW  Elec       q    Type
REMARK                         _______ _______ _______ _____ _____    ______ ____
ROOT
ATOM      1  O   UNL     1       6.872  -1.219  26.007  0.00  0.00    -0.453 OA
ENDROOT
BRANCH   1   7
ATOM      2  C   UNL     1       1.745   1.916  28.347  0.00  0.00    +0.127 A 
ATOM      3  C   UNL     1       2.700   2.259  27.377  0.00  0.00    +0.092 A 
ATOM      4  C   UNL     1       3.848   1.466  27.209  0.00  0.00    +0.147 A 
ATOM      5  O   UNL     1       4.764   1.812  26.246  0.00  0.00    -0.451 OA
ATOM      6  C   UNL     1       5.818   0.936  25.938  0.00  0.00    +0.181 A 
ATOM      7  C   UNL     1       6.000  -0.273  26.526  0.00  0.00    +0.214 A 
ATOM      8  C   UNL     1       5.008  -0.639  27.559  0.00  0.00    +0.238 A 
ATOM      9  O   UNL     1       4.889  -1.797  27.924  0.00  0.00    -0.283 OA
ATOM     10  C   UNL     1       4.014   0.337  27.992  0.00  0.00    +0.109 A 
ATOM     11  C   UNL     1       3.112   0.051  29.023  0.00  0.00    +0.135 A 
ATOM     12  C   UNL     1       1.979   0.830  29.194  0.00  0.00    +0.092 A 
BRANCH   6  13
ATOM     13  C   UNL     1       6.665   1.415  24.805  0.00  0.00    +0.025 A 
ATOM     14  C   UNL     1       6.409   0.978  23.490  0.00  0.00    +0.015 A 
ATOM     15  C   UNL     1       7.200   1.396  22.411  0.00  0.00    +0.050 A 
ATOM     16  C   UNL     1       8.277   2.239  22.647  0.00  0.00    +0.158 A 
ATOM     17  C   UNL     1       8.543   2.695  23.927  0.00  0.00    +0.159 A 
ATOM     18  C   UNL     1       7.730   2.320  24.994  0.00  0.00    +0.060 A 
BRANCH  17  19
ATOM     19  O   UNL     1       9.628   3.511  24.100  0.00  0.00    -0.503 OA
ATOM     20  H   UNL     1       9.827   3.553  25.052  0.00  0.00    +0.292 HD
ENDBRANCH  17  19
BRANCH  16  21
ATOM     21  O   UNL     1       9.067   2.620  21.606  0.00  0.00    -0.503 OA
ATOM     22  H   UNL     1       8.448   2.724  20.855  0.00  0.00    +0.292 HD
ENDBRANCH  16  21
ENDBRANCH   6  13
BRANCH  11  23
ATOM     23  O   UNL     1       3.332  -0.987  29.882  0.00  0.00    -0.506 OA
ATOM     24  H   UNL     1       3.531  -1.787  29.367  0.00  0.00    +0.292 HD
ENDBRANCH  11  23
BRANCH   2  26
ATOM     25  C   UNL     1       0.443   3.917  28.270  0.00  0.00    +0.277 C 
ATOM     26  O   UNL     1       0.556   2.539  28.597  0.00  0.00    -0.495 OA
ENDBRANCH   2  26
ENDBRANCH   1   7
BRANCH   1  27
ATOM     27  C   UNL     1       8.105  -1.631  26.623  0.00  0.00    +0.340 C 
ATOM     28  O   UNL     1       9.174  -0.782  26.056  0.00  0.00    -0.331 OA
ATOM     29  C   UNL     1       9.431  -1.022  24.635  0.00  0.00    +0.179 C 
ATOM     30  C   UNL     1       9.712  -2.510  24.305  0.00  0.00    +0.177 C 
ATOM     31  C   UNL     1       8.571  -3.376  24.857  0.00  0.00    +0.187 C 
ATOM     32  C   UNL     1       8.609  -3.082  26.368  0.00  0.00    +0.214 C 
BRANCH  32  33
ATOM     33  O   UNL     1       8.114  -4.176  27.121  0.00  0.00    -0.383 OA
ATOM     34  H   UNL     1       8.813  -4.859  27.168  0.00  0.00    +0.210 HD
ENDBRANCH  32  33
BRANCH  30  35
ATOM     35  O   UNL     1       9.949  -2.744  22.918  0.00  0.00    -0.386 OA
ATOM     36  H   UNL     1      10.496  -3.553  22.837  0.00  0.00    +0.210 HD
ENDBRANCH  30  35
BRANCH  31  37
ATOM     37  O   UNL     1       7.249  -3.106  24.312  0.00  0.00    -0.340 OA
BRANCH  37  38
ATOM     38  C   UNL     1       6.322  -4.201  24.223  0.00  0.00    +0.282 C 
ATOM     39  O   UNL     1       6.998  -5.470  24.301  0.00  0.00    -0.346 OA
ATOM     40  C   UNL     1       7.828  -5.794  23.188  0.00  0.00    +0.197 C 
ATOM     41  C   UNL     1       7.049  -5.737  21.872  0.00  0.00    +0.171 C 
ATOM     42  C   UNL     1       6.356  -4.380  21.724  0.00  0.00    +0.178 C 
ATOM     43  C   UNL     1       5.461  -4.118  22.946  0.00  0.00    +0.201 C 
BRANCH  43  44
ATOM     44  O   UNL     1       4.789  -2.857  22.819  0.00  0.00    -0.384 OA
ATOM     45  H   UNL     1       3.849  -3.074  22.646  0.00  0.00    +0.210 HD
ENDBRANCH  43  44
BRANCH  42  46
ATOM     46  O   UNL     1       7.308  -3.316  21.557  0.00  0.00    -0.386 OA
ATOM     47  H   UNL     1       8.215  -3.677  21.676  0.00  0.00    +0.210 HD
ENDBRANCH  42  46
BRANCH  41  48
ATOM     48  O   UNL     1       6.065  -6.782  21.842  0.00  0.00    -0.387 OA
ATOM     49  H   UNL     1       6.504  -7.623  22.070  0.00  0.00    +0.210 HD
ENDBRANCH  41  48
ENDBRANCH  37  38
ENDBRANCH  31  37
BRANCH  29  50
ATOM     50  C   UNL     1      10.629  -0.161  24.188  0.00  0.00    +0.190 C 
BRANCH  50  51
ATOM     51  O   UNL     1      10.930   0.869  25.128  0.00  0.00    -0.392 OA
ATOM     52  H   UNL     1      10.103   1.366  25.271  0.00  0.00    +0.210 HD
ENDBRANCH  50  51
ENDBRANCH  29  50
ENDBRANCH   1  27
TORSDOF 16
ENDMDL
MODEL 9
REMARK VINA RESULT:      -5.6      1.749      2.802
REMARK  Name = 
REMARK  17 active torsions:
REMARK  status: ('A' for Active; 'I' for Inactive)
REMARK    1  A    between atoms: C_1  and  O_2
REMARK    2  A    between atoms: O_2  and  C_3
REMARK    3  A    between atoms: C_5  and  O_48
REMARK    4  A    between atoms: C_10  and  C_40
REMARK    5  A    between atoms: C_11  and  O_14
REMARK    6  A    between atoms: O_14  and  C_15
REMARK    7  A    between atoms: C_17  and  O_39
REMARK    8  A    between atoms: C_18  and  O_27
REMARK    9  A    between atoms: C_20  and  O_26
REMARK   10  A    between atoms: C_22  and  C_24
REMARK   11  A    between atoms: C_24  and  O_25
REMARK   12  A    between atoms: O_27  and  C_28
REMARK   13  A    between atoms: C_30  and  O_38
REMARK   14  A    between atoms: C_31  and  O_37
REMARK   15  A    between atoms: C_33  and  O_36
REMARK   16  A    between atoms: C_42  and  O_47
REMARK   17  A    between atoms: C_43  and  O_46
REMARK                            x       y       z     vdW  Elec       q    Type
REMARK                         _______ _______ _______ _____ _____    ______ ____
ROOT
ATOM      1  O   UNL     1       6.305  -2.967  26.418  0.00  0.00    -0.453 OA
ENDROOT
BRANCH   1   7
ATOM      2  C   UNL     1       1.777   0.165  29.773  0.00  0.00    +0.127 A 
ATOM      3  C   UNL     1       2.732   0.601  28.843  0.00  0.00    +0.092 A 
ATOM      4  C   UNL     1       3.747  -0.273  28.415  0.00  0.00    +0.147 A 
ATOM      5  O   UNL     1       4.666   0.169  27.495  0.00  0.00    -0.451 OA
ATOM      6  C   UNL     1       5.571  -0.739  26.920  0.00  0.00    +0.181 A 
ATOM      7  C   UNL     1       5.599  -2.066  27.200  0.00  0.00    +0.214 A 
ATOM      8  C   UNL     1       4.605  -2.533  28.190  0.00  0.00    +0.238 A 
ATOM      9  O   UNL     1       4.336  -3.720  28.287  0.00  0.00    -0.283 OA
ATOM     10  C   UNL     1       3.779  -1.566  28.905  0.00  0.00    +0.109 A 
ATOM     11  C   UNL     1       2.887  -1.969  29.904  0.00  0.00    +0.135 A 
ATOM     12  C   UNL     1       1.885  -1.111  30.330  0.00  0.00    +0.092 A 
BRANCH   6  13
ATOM     13  C   UNL     1       6.432  -0.119  25.869  0.00  0.00    +0.025 A 
ATOM     14  C   UNL     1       7.665   0.470  26.215  0.00  0.00    +0.015 A 
ATOM     15  C   UNL     1       8.484   1.076  25.253  0.00  0.00    +0.050 A 
ATOM     16  C   UNL     1       8.058   1.121  23.933  0.00  0.00    +0.158 A 
ATOM     17  C   UNL     1       6.858   0.539  23.562  0.00  0.00    +0.159 A 
ATOM     18  C   UNL     1       6.065  -0.107  24.507  0.00  0.00    +0.060 A 
BRANCH  17  19
ATOM     19  O   UNL     1       6.484   0.630  22.249  0.00  0.00    -0.503 OA
ATOM     20  H   UNL     1       7.290   0.625  21.703  0.00  0.00    +0.292 HD
ENDBRANCH  17  19
BRANCH  16  21
ATOM     21  O   UNL     1       8.836   1.739  23.001  0.00  0.00    -0.503 OA
ATOM     22  H   UNL     1       9.732   1.746  23.397  0.00  0.00    +0.292 HD
ENDBRANCH  16  21
ENDBRANCH   6  13
BRANCH  11  23
ATOM     23  O   UNL     1       2.989  -3.200  30.485  0.00  0.00    -0.506 OA
ATOM     24  H   UNL     1       2.926  -3.101  31.450  0.00  0.00    +0.292 HD
ENDBRANCH  11  23
BRANCH   2  26
ATOM     25  C   UNL     1       0.858   2.253  30.485  0.00  0.00    +0.277 C 
ATOM     26  O   UNL     1       0.700   0.861  30.243  0.00  0.00    -0.495 OA
ENDBRANCH   2  26
ENDBRANCH   1   7
BRANCH   1  27
ATOM     27  C   UNL     1       7.689  -3.315  26.603  0.00  0.00    +0.340 C 
ATOM     28  O   UNL     1       8.435  -2.733  25.468  0.00  0.00    -0.331 OA
ATOM     29  C   UNL     1       8.123  -3.346  24.175  0.00  0.00    +0.179 C 
ATOM     30  C   UNL     1       8.282  -4.888  24.174  0.00  0.00    +0.177 C 
ATOM     31  C   UNL     1       7.464  -5.484  25.328  0.00  0.00    +0.187 C 
ATOM     32  C   UNL     1       8.083  -4.822  26.572  0.00  0.00    +0.214 C 
BRANCH  32  33
ATOM     33  O   UNL     1       7.942  -5.642  27.720  0.00  0.00    -0.383 OA
ATOM     34  H   UNL     1       8.102  -6.571  27.456  0.00  0.00    +0.210 HD
ENDBRANCH  32  33
BRANCH  30  35
ATOM     35  O   UNL     1       7.963  -5.485  22.918  0.00  0.00    -0.386 OA
ATOM     36  H   UNL     1       7.404  -6.271  23.090  0.00  0.00    +0.210 HD
ENDBRANCH  30  35
BRANCH  31  37
ATOM     37  O   UNL     1       6.029  -5.248  25.277  0.00  0.00    -0.340 OA
BRANCH  37  38
ATOM     38  C   UNL     1       5.181  -6.339  24.880  0.00  0.00    +0.282 C 
ATOM     39  O   UNL     1       5.094  -6.442  23.446  0.00  0.00    -0.346 OA
ATOM     40  C   UNL     1       4.403  -5.378  22.794  0.00  0.00    +0.197 C 
ATOM     41  C   UNL     1       2.992  -5.198  23.357  0.00  0.00    +0.171 C 
ATOM     42  C   UNL     1       3.044  -5.032  24.879  0.00  0.00    +0.178 C 
ATOM     43  C   UNL     1       3.777  -6.227  25.507  0.00  0.00    +0.201 C 
BRANCH  43  44
ATOM     44  O   UNL     1       3.823  -6.100  26.935  0.00  0.00    -0.384 OA
ATOM     45  H   UNL     1       2.930  -5.795  27.202  0.00  0.00    +0.210 HD
ENDBRANCH  43  44
BRANCH  42  46
ATOM     46  O   UNL     1       3.677  -3.797  25.253  0.00  0.00    -0.386 OA
ATOM     47  H   UNL     1       4.566  -3.753  24.834  0.00  0.00    +0.210 HD
ENDBRANCH  42  46
BRANCH  41  48
ATOM     48  O   UNL     1       2.187  -6.341  23.029  0.00  0.00    -0.387 OA
ATOM     49  H   UNL     1       2.257  -6.500  22.069  0.00  0.00    +0.210 HD
ENDBRANCH  41  48
ENDBRANCH  37  38
ENDBRANCH  31  37
BRANCH  29  50
ATOM     50  C   UNL     1       9.034  -2.734  23.094  0.00  0.00    +0.190 C 
BRANCH  50  51
ATOM     51  O   UNL     1       8.301  -1.947  22.157  0.00  0.00    -0.392 OA
ATOM     52  H   UNL     1       7.403  -1.840  22.525  0.00  0.00    +0.210 HD
ENDBRANCH  50  51
ENDBRANCH  29  50
ENDBRANCH   1  27
TORSDOF 16
ENDMDL
