MODEL 1
REMARK VINA RESULT:      -7.6      0.000      0.000
REMARK  Name = 
REMARK  23 active torsions:
REMARK  status: ('A' for Active; 'I' for Inactive)
REMARK    1  A    between atoms: C_1  and  C_2
REMARK    2  A    between atoms: C_4  and  O_62
REMARK    3  A    between atoms: C_6  and  O_61
REMARK    4  A    between atoms: C_7  and  O_60
REMARK    5  A    between atoms: C_8  and  O_11
REMARK    6  A    between atoms: O_11  and  C_12
REMARK    7  A    between atoms: C_12  and  C_13
REMARK    8  A    between atoms: C_14  and  O_59
REMARK    9  A    between atoms: C_16  and  O_58
REMARK   10  A    between atoms: C_18  and  O_57
REMARK   11  A    between atoms: C_19  and  O_22
REMARK   12  A    between atoms: O_22  and  C_23
REMARK   13  A    between atoms: C_25  and  O_56
REMARK   14  A    between atoms: C_30  and  C_48
REMARK   15  A    between atoms: C_31  and  O_34
REMARK   16  A    between atoms: O_34  and  C_35
REMARK   17  A    between atoms: C_37  and  O_47
REMARK   18  A    between atoms: C_38  and  O_46
REMARK   19  A    between atoms: C_39  and  O_45
REMARK   20  A    between atoms: C_41  and  C_43
REMARK   21  A    between atoms: C_43  and  O_44
REMARK   22  A    between atoms: C_50  and  O_55
REMARK   23  A    between atoms: C_51  and  O_54
REMARK                            x       y       z     vdW  Elec       q    Type
REMARK                         _______ _______ _______ _____ _____    ______ ____
ROOT
ATOM      1  C   UNL     1       4.994   2.710  26.228  0.00  0.00    +0.131 A 
ATOM      2  C   UNL     1       5.577   1.638  25.519  0.00  0.00    +0.093 A 
ATOM      3  C   UNL     1       5.187   0.318  25.792  0.00  0.00    +0.147 A 
ATOM      4  O   UNL     1       5.766  -0.738  25.112  0.00  0.00    -0.451 OA
ATOM      5  C   UNL     1       5.172  -2.009  25.227  0.00  0.00    +0.181 A 
ATOM      6  C   UNL     1       4.208  -2.317  26.133  0.00  0.00    +0.214 A 
ATOM      7  C   UNL     1       4.035  -1.291  27.191  0.00  0.00    +0.238 A 
ATOM      8  O   UNL     1       3.874  -1.586  28.369  0.00  0.00    -0.283 OA
ATOM      9  C   UNL     1       4.239   0.092  26.782  0.00  0.00    +0.109 A 
ATOM     10  C   UNL     1       3.581   1.152  27.402  0.00  0.00    +0.135 A 
ATOM     11  C   UNL     1       3.947   2.460  27.117  0.00  0.00    +0.092 A 
ENDROOT
BRANCH   5  12
ATOM     12  C   UNL     1       5.741  -3.043  24.311  0.00  0.00    +0.025 A 
ATOM     13  C   UNL     1       5.114  -3.397  23.102  0.00  0.00    +0.015 A 
ATOM     14  C   UNL     1       5.676  -4.364  22.252  0.00  0.00    +0.050 A 
ATOM     15  C   UNL     1       6.876  -4.972  22.603  0.00  0.00    +0.158 A 
ATOM     16  C   UNL     1       7.531  -4.608  23.771  0.00  0.00    +0.159 A 
ATOM     17  C   UNL     1       6.979  -3.650  24.616  0.00  0.00    +0.060 A 
BRANCH  16  18
ATOM     18  O   UNL     1       8.712  -5.230  24.063  0.00  0.00    -0.503 OA
ATOM     19  H   UNL     1       8.733  -5.413  25.020  0.00  0.00    +0.292 HD
ENDBRANCH  16  18
BRANCH  15  20
ATOM     20  O   UNL     1       7.418  -5.915  21.780  0.00  0.00    -0.503 OA
ATOM     21  H   UNL     1       7.915  -6.511  22.375  0.00  0.00    +0.292 HD
ENDBRANCH  15  20
ENDBRANCH   5  12
BRANCH  10  22
ATOM     22  O   UNL     1       2.559   0.908  28.268  0.00  0.00    -0.506 OA
ATOM     23  H   UNL     1       2.883   0.486  29.078  0.00  0.00    +0.292 HD
ENDBRANCH  10  22
BRANCH   6  24
ATOM     24  O   UNL     1       3.533  -3.539  26.158  0.00  0.00    -0.453 OA
BRANCH  24  25
ATOM     25  C   UNL     1       3.555  -4.305  27.381  0.00  0.00    +0.340 C 
ATOM     26  O   UNL     1       4.905  -4.532  27.818  0.00  0.00    -0.331 OA
ATOM     27  C   UNL     1       5.674  -5.472  27.056  0.00  0.00    +0.179 C 
ATOM     28  C   UNL     1       4.967  -6.827  26.894  0.00  0.00    +0.177 C 
ATOM     29  C   UNL     1       3.539  -6.642  26.393  0.00  0.00    +0.180 C 
ATOM     30  C   UNL     1       2.778  -5.635  27.259  0.00  0.00    +0.214 C 
BRANCH  30  31
ATOM     31  O   UNL     1       1.451  -5.491  26.721  0.00  0.00    -0.383 OA
ATOM     32  H   UNL     1       1.242  -4.539  26.701  0.00  0.00    +0.210 HD
ENDBRANCH  30  31
BRANCH  29  33
ATOM     33  O   UNL     1       2.872  -7.918  26.443  0.00  0.00    -0.386 OA
ATOM     34  H   UNL     1       2.428  -7.966  27.314  0.00  0.00    +0.210 HD
ENDBRANCH  29  33
BRANCH  28  35
ATOM     35  O   UNL     1       4.917  -7.537  28.140  0.00  0.00    -0.386 OA
ATOM     36  H   UNL     1       4.231  -7.080  28.671  0.00  0.00    +0.210 HD
ENDBRANCH  28  35
BRANCH  27  37
ATOM     37  C   UNL     1       7.029  -5.673  27.772  0.00  0.00    +0.190 C 
BRANCH  37  38
ATOM     38  O   UNL     1       8.079  -6.057  26.883  0.00  0.00    -0.392 OA
ATOM     39  H   UNL     1       7.689  -6.532  26.134  0.00  0.00    +0.210 HD
ENDBRANCH  37  38
ENDBRANCH  27  37
ENDBRANCH  24  25
ENDBRANCH   6  24
BRANCH   1  40
ATOM     40  O   UNL     1       5.482   3.973  25.984  0.00  0.00    -0.461 OA
BRANCH  40  43
ATOM     41  C   UNL     1       8.039   4.835  23.451  0.00  0.00    +0.179 C 
ATOM     42  O   UNL     1       7.412   4.557  24.723  0.00  0.00    -0.331 OA
ATOM     43  C   UNL     1       6.013   4.207  24.657  0.00  0.00    +0.339 C 
ATOM     44  C   UNL     1       5.223   5.369  24.004  0.00  0.00    +0.214 C 
ATOM     45  C   UNL     1       5.806   5.634  22.606  0.00  0.00    +0.180 C 
ATOM     46  C   UNL     1       7.298   5.970  22.712  0.00  0.00    +0.177 C 
BRANCH  46  47
ATOM     47  O   UNL     1       7.797   6.231  21.399  0.00  0.00    -0.386 OA
ATOM     48  H   UNL     1       7.697   7.187  21.232  0.00  0.00    +0.210 HD
ENDBRANCH  46  47
BRANCH  45  49
ATOM     49  O   UNL     1       5.121   6.697  21.934  0.00  0.00    -0.386 OA
ATOM     50  H   UNL     1       4.177   6.597  22.175  0.00  0.00    +0.210 HD
ENDBRANCH  45  49
BRANCH  44  51
ATOM     51  O   UNL     1       5.318   6.564  24.804  0.00  0.00    -0.383 OA
ATOM     52  H   UNL     1       5.861   7.207  24.314  0.00  0.00    +0.210 HD
ENDBRANCH  44  51
BRANCH  41  53
ATOM     53  C   UNL     1       8.241   3.543  22.628  0.00  0.00    +0.197 C 
BRANCH  53  54
ATOM     54  O   UNL     1       9.405   2.826  23.045  0.00  0.00    -0.346 OA
BRANCH  54  58
ATOM     55  C   UNL     1       9.142  -0.326  25.992  0.00  0.00    +0.041 C 
ATOM     56  C   UNL     1      10.056  -0.330  24.770  0.00  0.00    +0.149 C 
ATOM     57  O   UNL     1      10.211   1.000  24.249  0.00  0.00    -0.343 OA
ATOM     58  C   UNL     1       9.063   1.538  23.590  0.00  0.00    +0.282 C 
ATOM     59  C   UNL     1       8.639   0.634  22.415  0.00  0.00    +0.201 C 
ATOM     60  C   UNL     1       8.383  -0.788  22.926  0.00  0.00    +0.179 C 
ATOM     61  C   UNL     1       9.611  -1.323  23.682  0.00  0.00    +0.174 C 
BRANCH  61  62
ATOM     62  O   UNL     1      10.703  -1.528  22.768  0.00  0.00    -0.387 OA
ATOM     63  H   UNL     1      10.570  -0.905  22.022  0.00  0.00    +0.210 HD
ENDBRANCH  61  62
BRANCH  60  64
ATOM     64  O   UNL     1       8.060  -1.650  21.831  0.00  0.00    -0.386 OA
ATOM     65  H   UNL     1       7.423  -1.146  21.286  0.00  0.00    +0.210 HD
ENDBRANCH  60  64
BRANCH  59  66
ATOM     66  O   UNL     1       9.704   0.598  21.434  0.00  0.00    -0.384 OA
ATOM     67  H   UNL     1      10.340   1.280  21.730  0.00  0.00    +0.210 HD
ENDBRANCH  59  66
ENDBRANCH  54  58
ENDBRANCH  53  54
ENDBRANCH  41  53
ENDBRANCH  40  43
ENDBRANCH   1  40
TORSDOF 22
ENDMDL
MODEL 2
REMARK VINA RESULT:      -7.0      1.957      8.909
REMARK  Name = 
REMARK  23 active torsions:
REMARK  status: ('A' for Active; 'I' for Inactive)
REMARK    1  A    between atoms: C_1  and  C_2
REMARK    2  A    between atoms: C_4  and  O_62
REMARK    3  A    between atoms: C_6  and  O_61
REMARK    4  A    between atoms: C_7  and  O_60
REMARK    5  A    between atoms: C_8  and  O_11
REMARK    6  A    between atoms: O_11  and  C_12
REMARK    7  A    between atoms: C_12  and  C_13
REMARK    8  A    between atoms: C_14  and  O_59
REMARK    9  A    between atoms: C_16  and  O_58
REMARK   10  A    between atoms: C_18  and  O_57
REMARK   11  A    between atoms: C_19  and  O_22
REMARK   12  A    between atoms: O_22  and  C_23
REMARK   13  A    between atoms: C_25  and  O_56
REMARK   14  A    between atoms: C_30  and  C_48
REMARK   15  A    between atoms: C_31  and  O_34
REMARK   16  A    between atoms: O_34  and  C_35
REMARK   17  A    between atoms: C_37  and  O_47
REMARK   18  A    between atoms: C_38  and  O_46
REMARK   19  A    between atoms: C_39  and  O_45
REMARK   20  A    between atoms: C_41  and  C_43
REMARK   21  A    between atoms: C_43  and  O_44
REMARK   22  A    between atoms: C_50  and  O_55
REMARK   23  A    between atoms: C_51  and  O_54
REMARK                            x       y       z     vdW  Elec       q    Type
REMARK                         _______ _______ _______ _____ _____    ______ ____
ROOT
ATOM      1  C   UNL     1       4.675  -2.205  27.025  0.00  0.00    +0.131 A 
ATOM      2  C   UNL     1       3.958  -1.122  26.474  0.00  0.00    +0.093 A 
ATOM      3  C   UNL     1       4.612   0.089  26.199  0.00  0.00    +0.147 A 
ATOM      4  O   UNL     1       3.911   1.159  25.674  0.00  0.00    -0.451 OA
ATOM      5  C   UNL     1       4.644   2.254  25.176  0.00  0.00    +0.181 A 
ATOM      6  C   UNL     1       5.975   2.431  25.380  0.00  0.00    +0.214 A 
ATOM      7  C   UNL     1       6.544   1.536  26.417  0.00  0.00    +0.238 A 
ATOM      8  O   UNL     1       7.351   1.928  27.251  0.00  0.00    -0.283 OA
ATOM      9  C   UNL     1       5.963   0.202  26.500  0.00  0.00    +0.109 A 
ATOM     10  C   UNL     1       6.697  -0.899  26.937  0.00  0.00    +0.135 A 
ATOM     11  C   UNL     1       6.057  -2.105  27.187  0.00  0.00    +0.092 A 
ENDROOT
BRANCH   5  12
ATOM     12  C   UNL     1       3.823   3.271  24.454  0.00  0.00    +0.025 A 
ATOM     13  C   UNL     1       3.144   4.302  25.131  0.00  0.00    +0.015 A 
ATOM     14  C   UNL     1       2.388   5.254  24.427  0.00  0.00    +0.050 A 
ATOM     15  C   UNL     1       2.319   5.186  23.041  0.00  0.00    +0.158 A 
ATOM     16  C   UNL     1       3.012   4.202  22.351  0.00  0.00    +0.159 A 
ATOM     17  C   UNL     1       3.763   3.258  23.043  0.00  0.00    +0.060 A 
BRANCH  16  18
ATOM     18  O   UNL     1       2.916   4.187  20.988  0.00  0.00    -0.503 OA
ATOM     19  H   UNL     1       1.972   4.189  20.748  0.00  0.00    +0.292 HD
ENDBRANCH  16  18
BRANCH  15  20
ATOM     20  O   UNL     1       1.579   6.107  22.359  0.00  0.00    -0.503 OA
ATOM     21  H   UNL     1       1.999   6.164  21.477  0.00  0.00    +0.292 HD
ENDBRANCH  15  20
ENDBRANCH   5  12
BRANCH  10  22
ATOM     22  O   UNL     1       8.046  -0.802  27.093  0.00  0.00    -0.506 OA
ATOM     23  H   UNL     1       8.512  -1.282  26.390  0.00  0.00    +0.292 HD
ENDBRANCH  10  22
BRANCH   6  24
ATOM     24  O   UNL     1       6.720   3.448  24.778  0.00  0.00    -0.453 OA
BRANCH  24  25
ATOM     25  C   UNL     1       7.391   3.156  23.534  0.00  0.00    +0.340 C 
ATOM     26  O   UNL     1       8.362   2.111  23.710  0.00  0.00    -0.331 OA
ATOM     27  C   UNL     1       9.554   2.461  24.427  0.00  0.00    +0.179 C 
ATOM     28  C   UNL     1      10.253   3.702  23.849  0.00  0.00    +0.177 C 
ATOM     29  C   UNL     1       9.269   4.855  23.680  0.00  0.00    +0.180 C 
ATOM     30  C   UNL     1       8.030   4.411  22.899  0.00  0.00    +0.214 C 
BRANCH  30  31
ATOM     31  O   UNL     1       7.136   5.535  22.795  0.00  0.00    -0.383 OA
ATOM     32  H   UNL     1       7.651   6.291  22.460  0.00  0.00    +0.210 HD
ENDBRANCH  30  31
BRANCH  29  33
ATOM     33  O   UNL     1       9.932   5.916  22.965  0.00  0.00    -0.386 OA
ATOM     34  H   UNL     1      10.894   5.762  23.068  0.00  0.00    +0.210 HD
ENDBRANCH  29  33
BRANCH  28  35
ATOM     35  O   UNL     1      10.837   3.420  22.569  0.00  0.00    -0.386 OA
ATOM     36  H   UNL     1      11.376   4.209  22.351  0.00  0.00    +0.210 HD
ENDBRANCH  28  35
BRANCH  27  37
ATOM     37  C   UNL     1      10.514   1.252  24.376  0.00  0.00    +0.190 C 
BRANCH  37  38
ATOM     38  O   UNL     1      10.407   0.405  25.522  0.00  0.00    -0.392 OA
ATOM     39  H   UNL     1      11.052   0.699  26.183  0.00  0.00    +0.210 HD
ENDBRANCH  37  38
ENDBRANCH  27  37
ENDBRANCH  24  25
ENDBRANCH   6  24
BRANCH   1  40
ATOM     40  O   UNL     1       3.962  -3.333  27.361  0.00  0.00    -0.461 OA
BRANCH  40  43
ATOM     41  C   UNL     1       3.996  -5.292  24.221  0.00  0.00    +0.179 C 
ATOM     42  O   UNL     1       3.845  -4.192  25.146  0.00  0.00    -0.331 OA
ATOM     43  C   UNL     1       4.171  -4.494  26.519  0.00  0.00    +0.339 C 
ATOM     44  C   UNL     1       3.262  -5.643  27.023  0.00  0.00    +0.214 C 
ATOM     45  C   UNL     1       3.464  -6.864  26.113  0.00  0.00    +0.180 C 
ATOM     46  C   UNL     1       3.141  -6.499  24.659  0.00  0.00    +0.177 C 
BRANCH  46  47
ATOM     47  O   UNL     1       3.319  -7.663  23.850  0.00  0.00    -0.386 OA
ATOM     48  H   UNL     1       2.450  -8.098  23.766  0.00  0.00    +0.210 HD
ENDBRANCH  46  47
BRANCH  45  49
ATOM     49  O   UNL     1       2.657  -7.975  26.520  0.00  0.00    -0.386 OA
ATOM     50  H   UNL     1       2.687  -7.979  27.499  0.00  0.00    +0.210 HD
ENDBRANCH  45  49
BRANCH  44  51
ATOM     51  O   UNL     1       1.877  -5.245  27.000  0.00  0.00    -0.383 OA
ATOM     52  H   UNL     1       1.360  -5.944  27.437  0.00  0.00    +0.210 HD
ENDBRANCH  44  51
BRANCH  41  53
ATOM     53  C   UNL     1       5.486  -5.608  23.959  0.00  0.00    +0.197 C 
BRANCH  53  54
ATOM     54  O   UNL     1       5.991  -4.886  22.834  0.00  0.00    -0.346 OA
BRANCH  54  58
ATOM     55  C   UNL     1       9.730  -4.340  24.934  0.00  0.00    +0.041 C 
ATOM     56  C   UNL     1       8.631  -3.292  24.797  0.00  0.00    +0.149 C 
ATOM     57  O   UNL     1       7.387  -3.908  24.424  0.00  0.00    -0.343 OA
ATOM     58  C   UNL     1       7.320  -4.388  23.081  0.00  0.00    +0.282 C 
ATOM     59  C   UNL     1       7.580  -3.243  22.081  0.00  0.00    +0.201 C 
ATOM     60  C   UNL     1       8.935  -2.595  22.382  0.00  0.00    +0.179 C 
ATOM     61  C   UNL     1       9.005  -2.138  23.850  0.00  0.00    +0.174 C 
BRANCH  61  62
ATOM     62  O   UNL     1       8.097  -1.045  24.070  0.00  0.00    -0.387 OA
ATOM     63  H   UNL     1       8.533  -0.238  23.723  0.00  0.00    +0.210 HD
ENDBRANCH  61  62
BRANCH  60  64
ATOM     64  O   UNL     1       9.152  -1.484  21.507  0.00  0.00    -0.386 OA
ATOM     65  H   UNL     1       8.257  -1.179  21.253  0.00  0.00    +0.210 HD
ENDBRANCH  60  64
BRANCH  59  66
ATOM     66  O   UNL     1       6.539  -2.245  22.219  0.00  0.00    -0.384 OA
ATOM     67  H   UNL     1       5.740  -2.663  21.841  0.00  0.00    +0.210 HD
ENDBRANCH  59  66
ENDBRANCH  54  58
ENDBRANCH  53  54
ENDBRANCH  41  53
ENDBRANCH  40  43
ENDBRANCH   1  40
TORSDOF 22
ENDMDL
MODEL 3
REMARK VINA RESULT:      -7.0      1.710      8.840
REMARK  Name = 
REMARK  23 active torsions:
REMARK  status: ('A' for Active; 'I' for Inactive)
REMARK    1  A    between atoms: C_1  and  C_2
REMARK    2  A    between atoms: C_4  and  O_62
REMARK    3  A    between atoms: C_6  and  O_61
REMARK    4  A    between atoms: C_7  and  O_60
REMARK    5  A    between atoms: C_8  and  O_11
REMARK    6  A    between atoms: O_11  and  C_12
REMARK    7  A    between atoms: C_12  and  C_13
REMARK    8  A    between atoms: C_14  and  O_59
REMARK    9  A    between atoms: C_16  and  O_58
REMARK   10  A    between atoms: C_18  and  O_57
REMARK   11  A    between atoms: C_19  and  O_22
REMARK   12  A    between atoms: O_22  and  C_23
REMARK   13  A    between atoms: C_25  and  O_56
REMARK   14  A    between atoms: C_30  and  C_48
REMARK   15  A    between atoms: C_31  and  O_34
REMARK   16  A    between atoms: O_34  and  C_35
REMARK   17  A    between atoms: C_37  and  O_47
REMARK   18  A    between atoms: C_38  and  O_46
REMARK   19  A    between atoms: C_39  and  O_45
REMARK   20  A    between atoms: C_41  and  C_43
REMARK   21  A    between atoms: C_43  and  O_44
REMARK   22  A    between atoms: C_50  and  O_55
REMARK   23  A    between atoms: C_51  and  O_54
REMARK                            x       y       z     vdW  Elec       q    Type
REMARK                         _______ _______ _______ _____ _____    ______ ____
ROOT
ATOM      1  C   UNL     1       2.837  -1.909  27.359  0.00  0.00    +0.131 A 
ATOM      2  C   UNL     1       3.925  -2.120  26.485  0.00  0.00    +0.093 A 
ATOM      3  C   UNL     1       4.706  -1.035  26.057  0.00  0.00    +0.147 A 
ATOM      4  O   UNL     1       5.763  -1.233  25.188  0.00  0.00    -0.451 OA
ATOM      5  C   UNL     1       6.669  -0.173  24.991  0.00  0.00    +0.181 A 
ATOM      6  C   UNL     1       6.453   1.098  25.416  0.00  0.00    +0.214 A 
ATOM      7  C   UNL     1       5.057   1.354  25.848  0.00  0.00    +0.238 A 
ATOM      8  O   UNL     1       4.459   2.382  25.556  0.00  0.00    -0.283 OA
ATOM      9  C   UNL     1       4.372   0.241  26.492  0.00  0.00    +0.109 A 
ATOM     10  C   UNL     1       3.372   0.438  27.442  0.00  0.00    +0.135 A 
ATOM     11  C   UNL     1       2.614  -0.636  27.886  0.00  0.00    +0.092 A 
ENDROOT
BRANCH   5  12
ATOM     12  C   UNL     1       7.880  -0.536  24.196  0.00  0.00    +0.025 A 
ATOM     13  C   UNL     1       9.013  -1.129  24.786  0.00  0.00    +0.015 A 
ATOM     14  C   UNL     1      10.135  -1.470  24.014  0.00  0.00    +0.050 A 
ATOM     15  C   UNL     1      10.124  -1.234  22.645  0.00  0.00    +0.158 A 
ATOM     16  C   UNL     1       9.003  -0.687  22.037  0.00  0.00    +0.159 A 
ATOM     17  C   UNL     1       7.889  -0.347  22.797  0.00  0.00    +0.060 A 
BRANCH  16  18
ATOM     18  O   UNL     1       9.043  -0.483  20.686  0.00  0.00    -0.503 OA
ATOM     19  H   UNL     1       8.863  -1.332  20.243  0.00  0.00    +0.292 HD
ENDBRANCH  16  18
BRANCH  15  20
ATOM     20  O   UNL     1      11.217  -1.560  21.897  0.00  0.00    -0.503 OA
ATOM     21  H   UNL     1      11.969  -1.130  22.350  0.00  0.00    +0.292 HD
ENDBRANCH  15  20
ENDBRANCH   5  12
BRANCH  10  22
ATOM     22  O   UNL     1       3.155   1.679  27.958  0.00  0.00    -0.506 OA
ATOM     23  H   UNL     1       2.282   2.014  27.702  0.00  0.00    +0.292 HD
ENDBRANCH  10  22
BRANCH   6  24
ATOM     24  O   UNL     1       7.408   2.114  25.331  0.00  0.00    -0.453 OA
BRANCH  24  25
ATOM     25  C   UNL     1       7.366   2.995  24.189  0.00  0.00    +0.340 C 
ATOM     26  O   UNL     1       8.503   2.783  23.337  0.00  0.00    -0.331 OA
ATOM     27  C   UNL     1       9.765   3.256  23.826  0.00  0.00    +0.179 C 
ATOM     28  C   UNL     1       9.724   4.734  24.246  0.00  0.00    +0.177 C 
ATOM     29  C   UNL     1       8.554   5.003  25.186  0.00  0.00    +0.180 C 
ATOM     30  C   UNL     1       7.243   4.481  24.595  0.00  0.00    +0.214 C 
BRANCH  30  31
ATOM     31  O   UNL     1       6.187   4.746  25.537  0.00  0.00    -0.383 OA
ATOM     32  H   UNL     1       5.927   3.895  25.935  0.00  0.00    +0.210 HD
ENDBRANCH  30  31
BRANCH  29  33
ATOM     33  O   UNL     1       8.455   6.426  25.392  0.00  0.00    -0.386 OA
ATOM     34  H   UNL     1       8.629   6.582  26.342  0.00  0.00    +0.210 HD
ENDBRANCH  29  33
BRANCH  28  35
ATOM     35  O   UNL     1       9.590   5.594  23.105  0.00  0.00    -0.386 OA
ATOM     36  H   UNL     1      10.333   5.353  22.512  0.00  0.00    +0.210 HD
ENDBRANCH  28  35
BRANCH  27  37
ATOM     37  C   UNL     1      10.814   3.061  22.708  0.00  0.00    +0.190 C 
BRANCH  37  38
ATOM     38  O   UNL     1      10.304   2.342  21.584  0.00  0.00    -0.392 OA
ATOM     39  H   UNL     1      10.035   1.460  21.879  0.00  0.00    +0.210 HD
ENDBRANCH  37  38
ENDBRANCH  27  37
ENDBRANCH  24  25
ENDBRANCH   6  24
BRANCH   1  40
ATOM     40  O   UNL     1       2.051  -2.995  27.668  0.00  0.00    -0.461 OA
BRANCH  40  43
ATOM     41  C   UNL     1       1.898  -6.012  25.530  0.00  0.00    +0.179 C 
ATOM     42  O   UNL     1       1.571  -4.733  26.116  0.00  0.00    -0.331 OA
ATOM     43  C   UNL     1       2.485  -4.270  27.134  0.00  0.00    +0.339 C 
ATOM     44  C   UNL     1       2.534  -5.302  28.288  0.00  0.00    +0.214 C 
ATOM     45  C   UNL     1       2.967  -6.661  27.715  0.00  0.00    +0.180 C 
ATOM     46  C   UNL     1       1.994  -7.104  26.616  0.00  0.00    +0.177 C 
BRANCH  46  47
ATOM     47  O   UNL     1       2.418  -8.377  26.125  0.00  0.00    -0.386 OA
ATOM     48  H   UNL     1       3.356  -8.490  26.370  0.00  0.00    +0.210 HD
ENDBRANCH  46  47
BRANCH  45  49
ATOM     49  O   UNL     1       3.042  -7.670  28.728  0.00  0.00    -0.386 OA
ATOM     50  H   UNL     1       2.262  -7.526  29.302  0.00  0.00    +0.210 HD
ENDBRANCH  45  49
BRANCH  44  51
ATOM     51  O   UNL     1       1.242  -5.430  28.914  0.00  0.00    -0.383 OA
ATOM     52  H   UNL     1       1.226  -4.836  29.685  0.00  0.00    +0.210 HD
ENDBRANCH  44  51
BRANCH  41  53
ATOM     53  C   UNL     1       3.126  -5.908  24.598  0.00  0.00    +0.197 C 
BRANCH  53  54
ATOM     54  O   UNL     1       4.336  -6.256  25.275  0.00  0.00    -0.346 OA
BRANCH  54  58
ATOM     55  C   UNL     1       7.042  -3.938  22.827  0.00  0.00    +0.041 C 
ATOM     56  C   UNL     1       7.427  -5.152  23.666  0.00  0.00    +0.149 C 
ATOM     57  O   UNL     1       6.263  -5.923  24.007  0.00  0.00    -0.343 OA
ATOM     58  C   UNL     1       5.395  -5.328  24.973  0.00  0.00    +0.282 C 
ATOM     59  C   UNL     1       6.155  -5.046  26.285  0.00  0.00    +0.201 C 
ATOM     60  C   UNL     1       7.371  -4.159  25.995  0.00  0.00    +0.179 C 
ATOM     61  C   UNL     1       8.259  -4.792  24.910  0.00  0.00    +0.174 C 
BRANCH  61  62
ATOM     62  O   UNL     1       8.878  -5.989  25.415  0.00  0.00    -0.387 OA
ATOM     63  H   UNL     1       9.537  -5.707  26.084  0.00  0.00    +0.210 HD
ENDBRANCH  61  62
BRANCH  60  64
ATOM     64  O   UNL     1       8.123  -3.953  27.194  0.00  0.00    -0.386 OA
ATOM     65  H   UNL     1       7.465  -3.982  27.918  0.00  0.00    +0.210 HD
ENDBRANCH  60  64
BRANCH  59  66
ATOM     66  O   UNL     1       6.611  -6.300  26.850  0.00  0.00    -0.384 OA
ATOM     67  H   UNL     1       5.892  -6.936  26.658  0.00  0.00    +0.210 HD
ENDBRANCH  59  66
ENDBRANCH  54  58
ENDBRANCH  53  54
ENDBRANCH  41  53
ENDBRANCH  40  43
ENDBRANCH   1  40
TORSDOF 22
ENDMDL
MODEL 4
REMARK VINA RESULT:      -7.0      1.774      8.829
REMARK  Name = 
REMARK  23 active torsions:
REMARK  status: ('A' for Active; 'I' for Inactive)
REMARK    1  A    between atoms: C_1  and  C_2
REMARK    2  A    between atoms: C_4  and  O_62
REMARK    3  A    between atoms: C_6  and  O_61
REMARK    4  A    between atoms: C_7  and  O_60
REMARK    5  A    between atoms: C_8  and  O_11
REMARK    6  A    between atoms: O_11  and  C_12
REMARK    7  A    between atoms: C_12  and  C_13
REMARK    8  A    between atoms: C_14  and  O_59
REMARK    9  A    between atoms: C_16  and  O_58
REMARK   10  A    between atoms: C_18  and  O_57
REMARK   11  A    between atoms: C_19  and  O_22
REMARK   12  A    between atoms: O_22  and  C_23
REMARK   13  A    between atoms: C_25  and  O_56
REMARK   14  A    between atoms: C_30  and  C_48
REMARK   15  A    between atoms: C_31  and  O_34
REMARK   16  A    between atoms: O_34  and  C_35
REMARK   17  A    between atoms: C_37  and  O_47
REMARK   18  A    between atoms: C_38  and  O_46
REMARK   19  A    between atoms: C_39  and  O_45
REMARK   20  A    between atoms: C_41  and  C_43
REMARK   21  A    between atoms: C_43  and  O_44
REMARK   22  A    between atoms: C_50  and  O_55
REMARK   23  A    between atoms: C_51  and  O_54
REMARK                            x       y       z     vdW  Elec       q    Type
REMARK                         _______ _______ _______ _____ _____    ______ ____
ROOT
ATOM      1  C   UNL     1       4.469  -1.686  28.397  0.00  0.00    +0.131 A 
ATOM      2  C   UNL     1       5.453  -1.345  27.445  0.00  0.00    +0.093 A 
ATOM      3  C   UNL     1       5.319  -0.177  26.679  0.00  0.00    +0.147 A 
ATOM      4  O   UNL     1       6.272   0.154  25.734  0.00  0.00    -0.451 OA
ATOM      5  C   UNL     1       6.236   1.448  25.177  0.00  0.00    +0.181 A 
ATOM      6  C   UNL     1       5.201   2.313  25.336  0.00  0.00    +0.214 A 
ATOM      7  C   UNL     1       3.979   1.685  25.896  0.00  0.00    +0.238 A 
ATOM      8  O   UNL     1       2.858   1.940  25.472  0.00  0.00    -0.283 OA
ATOM      9  C   UNL     1       4.194   0.617  26.863  0.00  0.00    +0.109 A 
ATOM     10  C   UNL     1       3.280   0.344  27.879  0.00  0.00    +0.135 A 
ATOM     11  C   UNL     1       3.423  -0.798  28.654  0.00  0.00    +0.092 A 
ENDROOT
BRANCH   5  12
ATOM     12  C   UNL     1       7.410   1.784  24.318  0.00  0.00    +0.025 A 
ATOM     13  C   UNL     1       8.501   2.532  24.800  0.00  0.00    +0.015 A 
ATOM     14  C   UNL     1       9.598   2.824  23.974  0.00  0.00    +0.050 A 
ATOM     15  C   UNL     1       9.616   2.358  22.665  0.00  0.00    +0.158 A 
ATOM     16  C   UNL     1       8.569   1.585  22.181  0.00  0.00    +0.159 A 
ATOM     17  C   UNL     1       7.480   1.292  22.996  0.00  0.00    +0.060 A 
BRANCH  16  18
ATOM     18  O   UNL     1       8.641   1.145  20.890  0.00  0.00    -0.503 OA
ATOM     19  H   UNL     1       7.849   1.456  20.416  0.00  0.00    +0.292 HD
ENDBRANCH  16  18
BRANCH  15  20
ATOM     20  O   UNL     1      10.680   2.648  21.861  0.00  0.00    -0.503 OA
ATOM     21  H   UNL     1      11.464   2.363  22.372  0.00  0.00    +0.292 HD
ENDBRANCH  15  20
ENDBRANCH   5  12
BRANCH  10  22
ATOM     22  O   UNL     1       2.261   1.211  28.132  0.00  0.00    -0.506 OA
ATOM     23  H   UNL     1       1.414   0.851  27.826  0.00  0.00    +0.292 HD
ENDBRANCH  10  22
BRANCH   6  24
ATOM     24  O   UNL     1       5.226   3.637  24.891  0.00  0.00    -0.453 OA
BRANCH  24  25
ATOM     25  C   UNL     1       5.066   3.884  23.479  0.00  0.00    +0.340 C 
ATOM     26  O   UNL     1       6.197   4.598  22.953  0.00  0.00    -0.331 OA
ATOM     27  C   UNL     1       6.307   5.980  23.320  0.00  0.00    +0.179 C 
ATOM     28  C   UNL     1       5.029   6.779  23.021  0.00  0.00    +0.177 C 
ATOM     29  C   UNL     1       3.801   6.080  23.595  0.00  0.00    +0.180 C 
ATOM     30  C   UNL     1       3.745   4.616  23.154  0.00  0.00    +0.214 C 
BRANCH  30  31
ATOM     31  O   UNL     1       2.579   4.012  23.745  0.00  0.00    -0.383 OA
ATOM     32  H   UNL     1       2.515   4.331  24.663  0.00  0.00    +0.210 HD
ENDBRANCH  30  31
BRANCH  29  33
ATOM     33  O   UNL     1       2.626   6.769  23.124  0.00  0.00    -0.386 OA
ATOM     34  H   UNL     1       2.539   7.576  23.671  0.00  0.00    +0.210 HD
ENDBRANCH  29  33
BRANCH  28  35
ATOM     35  O   UNL     1       4.835   6.938  21.608  0.00  0.00    -0.386 OA
ATOM     36  H   UNL     1       5.713   6.767  21.207  0.00  0.00    +0.210 HD
ENDBRANCH  28  35
BRANCH  27  37
ATOM     37  C   UNL     1       7.496   6.587  22.541  0.00  0.00    +0.190 C 
BRANCH  37  38
ATOM     38  O   UNL     1       7.533   6.178  21.173  0.00  0.00    -0.392 OA
ATOM     39  H   UNL     1       8.410   5.813  20.985  0.00  0.00    +0.210 HD
ENDBRANCH  37  38
ENDBRANCH  27  37
ENDBRANCH  24  25
ENDBRANCH   6  24
BRANCH   1  40
ATOM     40  O   UNL     1       4.606  -2.889  29.050  0.00  0.00    -0.461 OA
BRANCH  40  43
ATOM     41  C   UNL     1       3.468  -5.027  26.250  0.00  0.00    +0.179 C 
ATOM     42  O   UNL     1       3.620  -3.890  27.130  0.00  0.00    -0.331 OA
ATOM     43  C   UNL     1       4.548  -4.076  28.220  0.00  0.00    +0.339 C 
ATOM     44  C   UNL     1       4.085  -5.269  29.092  0.00  0.00    +0.214 C 
ATOM     45  C   UNL     1       3.998  -6.521  28.205  0.00  0.00    +0.180 C 
ATOM     46  C   UNL     1       3.030  -6.277  27.041  0.00  0.00    +0.177 C 
BRANCH  46  47
ATOM     47  O   UNL     1       2.960  -7.468  26.255  0.00  0.00    -0.386 OA
ATOM     48  H   UNL     1       3.727  -7.467  25.652  0.00  0.00    +0.210 HD
ENDBRANCH  46  47
BRANCH  45  49
ATOM     49  O   UNL     1       3.579  -7.673  28.945  0.00  0.00    -0.386 OA
ATOM     50  H   UNL     1       3.532  -7.385  29.879  0.00  0.00    +0.210 HD
ENDBRANCH  45  49
BRANCH  44  51
ATOM     51  O   UNL     1       2.797  -5.001  29.681  0.00  0.00    -0.383 OA
ATOM     52  H   UNL     1       2.148  -5.588  29.255  0.00  0.00    +0.210 HD
ENDBRANCH  44  51
BRANCH  41  53
ATOM     53  C   UNL     1       4.715  -5.221  25.359  0.00  0.00    +0.197 C 
BRANCH  53  54
ATOM     54  O   UNL     1       5.143  -3.991  24.770  0.00  0.00    -0.346 OA
BRANCH  54  58
ATOM     55  C   UNL     1       9.334  -4.975  25.166  0.00  0.00    +0.041 C 
ATOM     56  C   UNL     1       8.727  -3.590  25.370  0.00  0.00    +0.149 C 
ATOM     57  O   UNL     1       7.307  -3.685  25.578  0.00  0.00    -0.343 OA
ATOM     58  C   UNL     1       6.541  -4.030  24.424  0.00  0.00    +0.282 C 
ATOM     59  C   UNL     1       6.768  -3.004  23.295  0.00  0.00    +0.201 C 
ATOM     60  C   UNL     1       8.263  -2.916  22.973  0.00  0.00    +0.179 C 
ATOM     61  C   UNL     1       9.075  -2.602  24.243  0.00  0.00    +0.174 C 
BRANCH  61  62
ATOM     62  O   UNL     1       8.788  -1.266  24.693  0.00  0.00    -0.387 OA
ATOM     63  H   UNL     1       8.199  -1.348  25.472  0.00  0.00    +0.210 HD
ENDBRANCH  61  62
BRANCH  60  64
ATOM     64  O   UNL     1       8.492  -1.914  21.978  0.00  0.00    -0.386 OA
ATOM     65  H   UNL     1       9.002  -1.213  22.433  0.00  0.00    +0.210 HD
ENDBRANCH  60  64
BRANCH  59  66
ATOM     66  O   UNL     1       6.302  -1.704  23.732  0.00  0.00    -0.384 OA
ATOM     67  H   UNL     1       6.965  -1.409  24.389  0.00  0.00    +0.210 HD
ENDBRANCH  59  66
ENDBRANCH  54  58
ENDBRANCH  53  54
ENDBRANCH  41  53
ENDBRANCH  40  43
ENDBRANCH   1  40
TORSDOF 22
ENDMDL
MODEL 5
REMARK VINA RESULT:      -6.9      1.740      2.645
REMARK  Name = 
REMARK  23 active torsions:
REMARK  status: ('A' for Active; 'I' for Inactive)
REMARK    1  A    between atoms: C_1  and  C_2
REMARK    2  A    between atoms: C_4  and  O_62
REMARK    3  A    between atoms: C_6  and  O_61
REMARK    4  A    between atoms: C_7  and  O_60
REMARK    5  A    between atoms: C_8  and  O_11
REMARK    6  A    between atoms: O_11  and  C_12
REMARK    7  A    between atoms: C_12  and  C_13
REMARK    8  A    between atoms: C_14  and  O_59
REMARK    9  A    between atoms: C_16  and  O_58
REMARK   10  A    between atoms: C_18  and  O_57
REMARK   11  A    between atoms: C_19  and  O_22
REMARK   12  A    between atoms: O_22  and  C_23
REMARK   13  A    between atoms: C_25  and  O_56
REMARK   14  A    between atoms: C_30  and  C_48
REMARK   15  A    between atoms: C_31  and  O_34
REMARK   16  A    between atoms: O_34  and  C_35
REMARK   17  A    between atoms: C_37  and  O_47
REMARK   18  A    between atoms: C_38  and  O_46
REMARK   19  A    between atoms: C_39  and  O_45
REMARK   20  A    between atoms: C_41  and  C_43
REMARK   21  A    between atoms: C_43  and  O_44
REMARK   22  A    between atoms: C_50  and  O_55
REMARK   23  A    between atoms: C_51  and  O_54
REMARK                            x       y       z     vdW  Elec       q    Type
REMARK                         _______ _______ _______ _____ _____    ______ ____
ROOT
ATOM      1  C   UNL     1       4.354   2.251  26.816  0.00  0.00    +0.131 A 
ATOM      2  C   UNL     1       5.432   1.349  26.681  0.00  0.00    +0.093 A 
ATOM      3  C   UNL     1       5.222  -0.029  26.843  0.00  0.00    +0.147 A 
ATOM      4  O   UNL     1       6.277  -0.915  26.727  0.00  0.00    -0.451 OA
ATOM      5  C   UNL     1       5.984  -2.290  26.639  0.00  0.00    +0.181 A 
ATOM      6  C   UNL     1       4.759  -2.821  26.887  0.00  0.00    +0.214 A 
ATOM      7  C   UNL     1       3.821  -1.878  27.544  0.00  0.00    +0.238 A 
ATOM      8  O   UNL     1       3.082  -2.219  28.459  0.00  0.00    -0.283 OA
ATOM      9  C   UNL     1       3.947  -0.478  27.159  0.00  0.00    +0.109 A 
ATOM     10  C   UNL     1       2.862   0.396  27.181  0.00  0.00    +0.135 A 
ATOM     11  C   UNL     1       3.062   1.756  26.997  0.00  0.00    +0.092 A 
ENDROOT
BRANCH   5  12
ATOM     12  C   UNL     1       7.160  -3.154  26.321  0.00  0.00    +0.025 A 
ATOM     13  C   UNL     1       7.382  -4.384  26.969  0.00  0.00    +0.015 A 
ATOM     14  C   UNL     1       8.489  -5.184  26.643  0.00  0.00    +0.050 A 
ATOM     15  C   UNL     1       9.373  -4.763  25.656  0.00  0.00    +0.158 A 
ATOM     16  C   UNL     1       9.151  -3.573  24.977  0.00  0.00    +0.159 A 
ATOM     17  C   UNL     1       8.055  -2.778  25.296  0.00  0.00    +0.060 A 
BRANCH  16  18
ATOM     18  O   UNL     1      10.046  -3.211  24.010  0.00  0.00    -0.503 OA
ATOM     19  H   UNL     1       9.632  -3.358  23.140  0.00  0.00    +0.292 HD
ENDBRANCH  16  18
BRANCH  15  20
ATOM     20  O   UNL     1      10.451  -5.537  25.344  0.00  0.00    -0.503 OA
ATOM     21  H   UNL     1      10.664  -6.016  26.170  0.00  0.00    +0.292 HD
ENDBRANCH  15  20
ENDBRANCH   5  12
BRANCH  10  22
ATOM     22  O   UNL     1       1.600  -0.087  27.355  0.00  0.00    -0.506 OA
ATOM     23  H   UNL     1       1.412  -0.234  28.295  0.00  0.00    +0.292 HD
ENDBRANCH  10  22
BRANCH   6  24
ATOM     24  O   UNL     1       4.443  -4.165  26.675  0.00  0.00    -0.453 OA
BRANCH  24  25
ATOM     25  C   UNL     1       3.431  -4.480  25.694  0.00  0.00    +0.340 C 
ATOM     26  O   UNL     1       2.358  -5.229  26.289  0.00  0.00    -0.331 OA
ATOM     27  C   UNL     1       2.643  -6.592  26.632  0.00  0.00    +0.179 C 
ATOM     28  C   UNL     1       3.220  -7.393  25.455  0.00  0.00    +0.177 C 
ATOM     29  C   UNL     1       4.390  -6.657  24.813  0.00  0.00    +0.180 C 
ATOM     30  C   UNL     1       4.010  -5.216  24.465  0.00  0.00    +0.214 C 
BRANCH  30  31
ATOM     31  O   UNL     1       5.160  -4.574  23.886  0.00  0.00    -0.383 OA
ATOM     32  H   UNL     1       5.231  -3.685  24.278  0.00  0.00    +0.210 HD
ENDBRANCH  30  31
BRANCH  29  33
ATOM     33  O   UNL     1       4.762  -7.359  23.609  0.00  0.00    -0.386 OA
ATOM     34  H   UNL     1       5.741  -7.388  23.596  0.00  0.00    +0.210 HD
ENDBRANCH  29  33
BRANCH  28  35
ATOM     35  O   UNL     1       2.224  -7.621  24.446  0.00  0.00    -0.386 OA
ATOM     36  H   UNL     1       2.230  -8.588  24.291  0.00  0.00    +0.210 HD
ENDBRANCH  28  35
BRANCH  27  37
ATOM     37  C   UNL     1       1.330  -7.247  27.116  0.00  0.00    +0.190 C 
BRANCH  37  38
ATOM     38  O   UNL     1       1.360  -8.673  27.048  0.00  0.00    -0.392 OA
ATOM     39  H   UNL     1       1.271  -9.026  27.946  0.00  0.00    +0.210 HD
ENDBRANCH  37  38
ENDBRANCH  27  37
ENDBRANCH  24  25
ENDBRANCH   6  24
BRANCH   1  40
ATOM     40  O   UNL     1       4.637   3.595  26.740  0.00  0.00    -0.461 OA
BRANCH  40  43
ATOM     41  C   UNL     1       7.357   5.593  25.220  0.00  0.00    +0.179 C 
ATOM     42  O   UNL     1       6.389   5.101  26.174  0.00  0.00    -0.331 OA
ATOM     43  C   UNL     1       5.586   3.991  25.719  0.00  0.00    +0.339 C 
ATOM     44  C   UNL     1       4.803   4.409  24.449  0.00  0.00    +0.214 C 
ATOM     45  C   UNL     1       5.810   4.855  23.376  0.00  0.00    +0.180 C 
ATOM     46  C   UNL     1       6.667   6.011  23.905  0.00  0.00    +0.177 C 
BRANCH  46  47
ATOM     47  O   UNL     1       7.572   6.410  22.874  0.00  0.00    -0.386 OA
ATOM     48  H   UNL     1       7.038   6.718  22.117  0.00  0.00    +0.210 HD
ENDBRANCH  46  47
BRANCH  45  49
ATOM     49  O   UNL     1       5.159   5.253  22.165  0.00  0.00    -0.386 OA
ATOM     50  H   UNL     1       4.997   6.214  22.255  0.00  0.00    +0.210 HD
ENDBRANCH  45  49
BRANCH  44  51
ATOM     51  O   UNL     1       3.896   5.489  24.742  0.00  0.00    -0.383 OA
ATOM     52  H   UNL     1       3.558   5.831  23.895  0.00  0.00    +0.210 HD
ENDBRANCH  44  51
BRANCH  41  53
ATOM     53  C   UNL     1       8.536   4.607  25.054  0.00  0.00    +0.197 C 
BRANCH  53  54
ATOM     54  O   UNL     1       8.463   3.898  23.815  0.00  0.00    -0.346 OA
BRANCH  54  58
ATOM     55  C   UNL     1      10.556   0.260  24.849  0.00  0.00    +0.041 C 
ATOM     56  C   UNL     1      10.210   0.710  23.433  0.00  0.00    +0.149 C 
ATOM     57  O   UNL     1       9.907   2.115  23.408  0.00  0.00    -0.343 OA
ATOM     58  C   UNL     1       8.663   2.485  24.004  0.00  0.00    +0.282 C 
ATOM     59  C   UNL     1       7.493   1.754  23.315  0.00  0.00    +0.201 C 
ATOM     60  C   UNL     1       7.722   0.240  23.379  0.00  0.00    +0.179 C 
ATOM     61  C   UNL     1       9.093  -0.127  22.785  0.00  0.00    +0.174 C 
BRANCH  61  62
ATOM     62  O   UNL     1       9.097   0.114  21.367  0.00  0.00    -0.387 OA
ATOM     63  H   UNL     1       9.113   1.086  21.244  0.00  0.00    +0.210 HD
ENDBRANCH  61  62
BRANCH  60  64
ATOM     64  O   UNL     1       6.679  -0.443  22.678  0.00  0.00    -0.386 OA
ATOM     65  H   UNL     1       5.976   0.225  22.549  0.00  0.00    +0.210 HD
ENDBRANCH  60  64
BRANCH  59  66
ATOM     66  O   UNL     1       7.428   2.162  21.926  0.00  0.00    -0.384 OA
ATOM     67  H   UNL     1       7.675   1.363  21.419  0.00  0.00    +0.210 HD
ENDBRANCH  59  66
ENDBRANCH  54  58
ENDBRANCH  53  54
ENDBRANCH  41  53
ENDBRANCH  40  43
ENDBRANCH   1  40
TORSDOF 22
ENDMDL
MODEL 6
REMARK VINA RESULT:      -6.9      1.850      5.184
REMARK  Name = 
REMARK  23 active torsions:
REMARK  status: ('A' for Active; 'I' for Inactive)
REMARK    1  A    between atoms: C_1  and  C_2
REMARK    2  A    between atoms: C_4  and  O_62
REMARK    3  A    between atoms: C_6  and  O_61
REMARK    4  A    between atoms: C_7  and  O_60
REMARK    5  A    between atoms: C_8  and  O_11
REMARK    6  A    between atoms: O_11  and  C_12
REMARK    7  A    between atoms: C_12  and  C_13
REMARK    8  A    between atoms: C_14  and  O_59
REMARK    9  A    between atoms: C_16  and  O_58
REMARK   10  A    between atoms: C_18  and  O_57
REMARK   11  A    between atoms: C_19  and  O_22
REMARK   12  A    between atoms: O_22  and  C_23
REMARK   13  A    between atoms: C_25  and  O_56
REMARK   14  A    between atoms: C_30  and  C_48
REMARK   15  A    between atoms: C_31  and  O_34
REMARK   16  A    between atoms: O_34  and  C_35
REMARK   17  A    between atoms: C_37  and  O_47
REMARK   18  A    between atoms: C_38  and  O_46
REMARK   19  A    between atoms: C_39  and  O_45
REMARK   20  A    between atoms: C_41  and  C_43
REMARK   21  A    between atoms: C_43  and  O_44
REMARK   22  A    between atoms: C_50  and  O_55
REMARK   23  A    between atoms: C_51  and  O_54
REMARK                            x       y       z     vdW  Elec       q    Type
REMARK                         _______ _______ _______ _____ _____    ______ ____
ROOT
ATOM      1  C   UNL     1       9.766   0.215  24.193  0.00  0.00    +0.131 A 
ATOM      2  C   UNL     1       9.065  -0.371  25.269  0.00  0.00    +0.093 A 
ATOM      3  C   UNL     1       8.168  -1.425  25.036  0.00  0.00    +0.147 A 
ATOM      4  O   UNL     1       7.467  -1.992  26.085  0.00  0.00    -0.451 OA
ATOM      5  C   UNL     1       6.783  -3.200  25.850  0.00  0.00    +0.181 A 
ATOM      6  C   UNL     1       6.577  -3.728  24.616  0.00  0.00    +0.214 A 
ATOM      7  C   UNL     1       6.871  -2.787  23.508  0.00  0.00    +0.238 A 
ATOM      8  O   UNL     1       6.149  -2.688  22.523  0.00  0.00    -0.283 OA
ATOM      9  C   UNL     1       7.971  -1.858  23.732  0.00  0.00    +0.109 A 
ATOM     10  C   UNL     1       8.743  -1.360  22.684  0.00  0.00    +0.135 A 
ATOM     11  C   UNL     1       9.649  -0.334  22.915  0.00  0.00    +0.092 A 
ENDROOT
BRANCH   5  12
ATOM     12  C   UNL     1       6.220  -3.840  27.077  0.00  0.00    +0.025 A 
ATOM     13  C   UNL     1       5.177  -3.252  27.816  0.00  0.00    +0.015 A 
ATOM     14  C   UNL     1       4.657  -3.880  28.959  0.00  0.00    +0.050 A 
ATOM     15  C   UNL     1       5.170  -5.108  29.361  0.00  0.00    +0.158 A 
ATOM     16  C   UNL     1       6.171  -5.724  28.625  0.00  0.00    +0.159 A 
ATOM     17  C   UNL     1       6.689  -5.106  27.491  0.00  0.00    +0.060 A 
BRANCH  16  18
ATOM     18  O   UNL     1       6.633  -6.934  29.059  0.00  0.00    -0.503 OA
ATOM     19  H   UNL     1       7.372  -7.204  28.484  0.00  0.00    +0.292 HD
ENDBRANCH  16  18
BRANCH  15  20
ATOM     20  O   UNL     1       4.669  -5.714  30.476  0.00  0.00    -0.503 OA
ATOM     21  H   UNL     1       5.011  -6.630  30.438  0.00  0.00    +0.292 HD
ENDBRANCH  15  20
ENDBRANCH   5  12
BRANCH  10  22
ATOM     22  O   UNL     1       8.631  -1.897  21.438  0.00  0.00    -0.506 OA
ATOM     23  H   UNL     1       8.978  -2.802  21.417  0.00  0.00    +0.292 HD
ENDBRANCH  10  22
BRANCH   6  24
ATOM     24  O   UNL     1       6.012  -4.987  24.399  0.00  0.00    -0.453 OA
BRANCH  24  25
ATOM     25  C   UNL     1       4.815  -5.067  23.596  0.00  0.00    +0.340 C 
ATOM     26  O   UNL     1       3.812  -4.160  24.081  0.00  0.00    -0.331 OA
ATOM     27  C   UNL     1       3.171  -4.516  25.314  0.00  0.00    +0.179 C 
ATOM     28  C   UNL     1       2.591  -5.939  25.294  0.00  0.00    +0.177 C 
ATOM     29  C   UNL     1       3.633  -6.947  24.822  0.00  0.00    +0.180 C 
ATOM     30  C   UNL     1       4.265  -6.507  23.499  0.00  0.00    +0.214 C 
BRANCH  30  31
ATOM     31  O   UNL     1       5.250  -7.487  23.123  0.00  0.00    -0.383 OA
ATOM     32  H   UNL     1       4.825  -8.363  23.160  0.00  0.00    +0.210 HD
ENDBRANCH  30  31
BRANCH  29  33
ATOM     33  O   UNL     1       2.983  -8.221  24.643  0.00  0.00    -0.386 OA
ATOM     34  H   UNL     1       3.623  -8.797  24.177  0.00  0.00    +0.210 HD
ENDBRANCH  29  33
BRANCH  28  35
ATOM     35  O   UNL     1       1.456  -6.024  24.419  0.00  0.00    -0.386 OA
ATOM     36  H   UNL     1       1.630  -5.374  23.707  0.00  0.00    +0.210 HD
ENDBRANCH  28  35
BRANCH  27  37
ATOM     37  C   UNL     1       2.041  -3.496  25.576  0.00  0.00    +0.190 C 
BRANCH  37  38
ATOM     38  O   UNL     1       2.528  -2.187  25.874  0.00  0.00    -0.392 OA
ATOM     39  H   UNL     1       1.824  -1.690  26.317  0.00  0.00    +0.210 HD
ENDBRANCH  37  38
ENDBRANCH  27  37
ENDBRANCH  24  25
ENDBRANCH   6  24
BRANCH   1  40
ATOM     40  O   UNL     1      10.559   1.304  24.469  0.00  0.00    -0.461 OA
BRANCH  40  43
ATOM     41  C   UNL     1       7.850   3.738  23.806  0.00  0.00    +0.179 C 
ATOM     42  O   UNL     1       8.593   2.500  23.863  0.00  0.00    -0.331 OA
ATOM     43  C   UNL     1       9.893   2.591  24.485  0.00  0.00    +0.339 C 
ATOM     44  C   UNL     1      10.764   3.611  23.709  0.00  0.00    +0.214 C 
ATOM     45  C   UNL     1      10.043   4.969  23.704  0.00  0.00    +0.180 C 
ATOM     46  C   UNL     1       8.655   4.827  23.068  0.00  0.00    +0.177 C 
BRANCH  46  47
ATOM     47  O   UNL     1       8.028   6.111  23.062  0.00  0.00    -0.386 OA
ATOM     48  H   UNL     1       7.587   6.218  22.198  0.00  0.00    +0.210 HD
ENDBRANCH  46  47
BRANCH  45  49
ATOM     49  O   UNL     1      10.792   5.969  23.006  0.00  0.00    -0.386 OA
ATOM     50  H   UNL     1      11.569   6.159  23.571  0.00  0.00    +0.210 HD
ENDBRANCH  45  49
BRANCH  44  51
ATOM     51  O   UNL     1      10.979   3.171  22.354  0.00  0.00    -0.383 OA
ATOM     52  H   UNL     1      10.799   2.214  22.320  0.00  0.00    +0.210 HD
ENDBRANCH  44  51
BRANCH  41  53
ATOM     53  C   UNL     1       7.325   4.146  25.200  0.00  0.00    +0.197 C 
BRANCH  53  54
ATOM     54  O   UNL     1       5.901   4.050  25.280  0.00  0.00    -0.346 OA
BRANCH  54  58
ATOM     55  C   UNL     1       6.285   1.375  28.654  0.00  0.00    +0.041 C 
ATOM     56  C   UNL     1       6.149   0.947  27.196  0.00  0.00    +0.149 C 
ATOM     57  O   UNL     1       6.462   2.039  26.316  0.00  0.00    -0.343 OA
ATOM     58  C   UNL     1       5.492   3.085  26.268  0.00  0.00    +0.282 C 
ATOM     59  C   UNL     1       4.118   2.532  25.838  0.00  0.00    +0.201 C 
ATOM     60  C   UNL     1       3.693   1.411  26.791  0.00  0.00    +0.179 C 
ATOM     61  C   UNL     1       4.780   0.324  26.871  0.00  0.00    +0.174 C 
BRANCH  61  62
ATOM     62  O   UNL     1       4.874  -0.372  25.615  0.00  0.00    -0.387 OA
ATOM     63  H   UNL     1       5.248   0.261  24.966  0.00  0.00    +0.210 HD
ENDBRANCH  61  62
BRANCH  60  64
ATOM     64  O   UNL     1       2.454   0.842  26.356  0.00  0.00    -0.386 OA
ATOM     65  H   UNL     1       1.940   1.592  25.995  0.00  0.00    +0.210 HD
ENDBRANCH  60  64
BRANCH  59  66
ATOM     66  O   UNL     1       4.220   1.997  24.495  0.00  0.00    -0.384 OA
ATOM     67  H   UNL     1       5.124   2.228  24.202  0.00  0.00    +0.210 HD
ENDBRANCH  59  66
ENDBRANCH  54  58
ENDBRANCH  53  54
ENDBRANCH  41  53
ENDBRANCH  40  43
ENDBRANCH   1  40
TORSDOF 22
ENDMDL
MODEL 7
REMARK VINA RESULT:      -6.8      2.127      9.110
REMARK  Name = 
REMARK  23 active torsions:
REMARK  status: ('A' for Active; 'I' for Inactive)
REMARK    1  A    between atoms: C_1  and  C_2
REMARK    2  A    between atoms: C_4  and  O_62
REMARK    3  A    between atoms: C_6  and  O_61
REMARK    4  A    between atoms: C_7  and  O_60
REMARK    5  A    between atoms: C_8  and  O_11
REMARK    6  A    between atoms: O_11  and  C_12
REMARK    7  A    between atoms: C_12  and  C_13
REMARK    8  A    between atoms: C_14  and  O_59
REMARK    9  A    between atoms: C_16  and  O_58
REMARK   10  A    between atoms: C_18  and  O_57
REMARK   11  A    between atoms: C_19  and  O_22
REMARK   12  A    between atoms: O_22  and  C_23
REMARK   13  A    between atoms: C_25  and  O_56
REMARK   14  A    between atoms: C_30  and  C_48
REMARK   15  A    between atoms: C_31  and  O_34
REMARK   16  A    between atoms: O_34  and  C_35
REMARK   17  A    between atoms: C_37  and  O_47
REMARK   18  A    between atoms: C_38  and  O_46
REMARK   19  A    between atoms: C_39  and  O_45
REMARK   20  A    between atoms: C_41  and  C_43
REMARK   21  A    between atoms: C_43  and  O_44
REMARK   22  A    between atoms: C_50  and  O_55
REMARK   23  A    between atoms: C_51  and  O_54
REMARK                            x       y       z     vdW  Elec       q    Type
REMARK                         _______ _______ _______ _____ _____    ______ ____
ROOT
ATOM      1  C   UNL     1       5.177  -1.918  26.951  0.00  0.00    +0.131 A 
ATOM      2  C   UNL     1       4.382  -0.948  26.305  0.00  0.00    +0.093 A 
ATOM      3  C   UNL     1       4.849   0.368  26.167  0.00  0.00    +0.147 A 
ATOM      4  O   UNL     1       4.068   1.327  25.549  0.00  0.00    -0.451 OA
ATOM      5  C   UNL     1       4.669   2.553  25.203  0.00  0.00    +0.181 A 
ATOM      6  C   UNL     1       5.896   2.944  25.635  0.00  0.00    +0.214 A 
ATOM      7  C   UNL     1       6.435   2.110  26.737  0.00  0.00    +0.238 A 
ATOM      8  O   UNL     1       7.011   2.595  27.704  0.00  0.00    -0.283 OA
ATOM      9  C   UNL     1       6.091   0.695  26.696  0.00  0.00    +0.109 A 
ATOM     10  C   UNL     1       6.924  -0.284  27.232  0.00  0.00    +0.135 A 
ATOM     11  C   UNL     1       6.475  -1.592  27.348  0.00  0.00    +0.092 A 
ENDROOT
BRANCH   5  12
ATOM     12  C   UNL     1       3.813   3.449  24.370  0.00  0.00    +0.025 A 
ATOM     13  C   UNL     1       3.122   4.546  24.919  0.00  0.00    +0.015 A 
ATOM     14  C   UNL     1       2.332   5.380  24.111  0.00  0.00    +0.050 A 
ATOM     15  C   UNL     1       2.240   5.128  22.747  0.00  0.00    +0.158 A 
ATOM     16  C   UNL     1       2.945   4.076  22.179  0.00  0.00    +0.159 A 
ATOM     17  C   UNL     1       3.729   3.247  22.975  0.00  0.00    +0.060 A 
BRANCH  16  18
ATOM     18  O   UNL     1       2.827   3.879  20.833  0.00  0.00    -0.503 OA
ATOM     19  H   UNL     1       3.235   4.636  20.375  0.00  0.00    +0.292 HD
ENDBRANCH  16  18
BRANCH  15  20
ATOM     20  O   UNL     1       1.468   5.935  21.964  0.00  0.00    -0.503 OA
ATOM     21  H   UNL     1       2.071   6.645  21.664  0.00  0.00    +0.292 HD
ENDBRANCH  15  20
ENDBRANCH   5  12
BRANCH  10  22
ATOM     22  O   UNL     1       8.191   0.033  27.618  0.00  0.00    -0.506 OA
ATOM     23  H   UNL     1       8.678   0.457  26.894  0.00  0.00    +0.292 HD
ENDBRANCH  10  22
BRANCH   6  24
ATOM     24  O   UNL     1       6.540   4.100  25.187  0.00  0.00    -0.453 OA
BRANCH  24  25
ATOM     25  C   UNL     1       7.845   3.964  24.585  0.00  0.00    +0.340 C 
ATOM     26  O   UNL     1       8.819   4.747  25.295  0.00  0.00    -0.331 OA
ATOM     27  C   UNL     1       8.741   6.169  25.126  0.00  0.00    +0.179 C 
ATOM     28  C   UNL     1       8.736   6.594  23.649  0.00  0.00    +0.177 C 
ATOM     29  C   UNL     1       7.689   5.817  22.860  0.00  0.00    +0.180 C 
ATOM     30  C   UNL     1       7.840   4.310  23.080  0.00  0.00    +0.214 C 
BRANCH  30  31
ATOM     31  O   UNL     1       6.812   3.639  22.328  0.00  0.00    -0.383 OA
ATOM     32  H   UNL     1       6.537   4.235  21.608  0.00  0.00    +0.210 HD
ENDBRANCH  30  31
BRANCH  29  33
ATOM     33  O   UNL     1       7.860   6.117  21.461  0.00  0.00    -0.386 OA
ATOM     34  H   UNL     1       7.595   7.052  21.343  0.00  0.00    +0.210 HD
ENDBRANCH  29  33
BRANCH  28  35
ATOM     35  O   UNL     1      10.016   6.367  23.041  0.00  0.00    -0.386 OA
ATOM     36  H   UNL     1      10.143   5.396  23.062  0.00  0.00    +0.210 HD
ENDBRANCH  28  35
BRANCH  27  37
ATOM     37  C   UNL     1       9.952   6.802  25.847  0.00  0.00    +0.190 C 
BRANCH  37  38
ATOM     38  O   UNL     1       9.845   6.747  27.271  0.00  0.00    -0.392 OA
ATOM     39  H   UNL     1       9.675   5.830  27.532  0.00  0.00    +0.210 HD
ENDBRANCH  37  38
ENDBRANCH  27  37
ENDBRANCH  24  25
ENDBRANCH   6  24
BRANCH   1  40
ATOM     40  O   UNL     1       4.629  -3.165  27.141  0.00  0.00    -0.461 OA
BRANCH  40  43
ATOM     41  C   UNL     1       5.598  -4.809  23.969  0.00  0.00    +0.179 C 
ATOM     42  O   UNL     1       5.127  -3.816  24.907  0.00  0.00    -0.331 OA
ATOM     43  C   UNL     1       5.140  -4.223  26.292  0.00  0.00    +0.339 C 
ATOM     44  C   UNL     1       4.246  -5.477  26.468  0.00  0.00    +0.214 C 
ATOM     45  C   UNL     1       4.774  -6.589  25.547  0.00  0.00    +0.180 C 
ATOM     46  C   UNL     1       4.777  -6.110  24.090  0.00  0.00    +0.177 C 
BRANCH  46  47
ATOM     47  O   UNL     1       5.252  -7.176  23.266  0.00  0.00    -0.386 OA
ATOM     48  H   UNL     1       5.764  -6.778  22.537  0.00  0.00    +0.210 HD
ENDBRANCH  46  47
BRANCH  45  49
ATOM     49  O   UNL     1       3.999  -7.787  25.658  0.00  0.00    -0.386 OA
ATOM     50  H   UNL     1       3.950  -8.155  24.752  0.00  0.00    +0.210 HD
ENDBRANCH  45  49
BRANCH  44  51
ATOM     51  O   UNL     1       2.877  -5.178  26.133  0.00  0.00    -0.383 OA
ATOM     52  H   UNL     1       2.560  -4.500  26.755  0.00  0.00    +0.210 HD
ENDBRANCH  44  51
BRANCH  41  53
ATOM     53  C   UNL     1       7.129  -4.992  24.062  0.00  0.00    +0.197 C 
BRANCH  53  54
ATOM     54  O   UNL     1       7.817  -4.203  23.088  0.00  0.00    -0.346 OA
BRANCH  54  58
ATOM     55  C   UNL     1       6.608  -0.059  22.855  0.00  0.00    +0.041 C 
ATOM     56  C   UNL     1       7.955  -0.615  22.402  0.00  0.00    +0.149 C 
ATOM     57  O   UNL     1       7.880  -2.039  22.224  0.00  0.00    -0.343 OA
ATOM     58  C   UNL     1       7.786  -2.803  23.427  0.00  0.00    +0.282 C 
ATOM     59  C   UNL     1       8.993  -2.521  24.345  0.00  0.00    +0.201 C 
ATOM     60  C   UNL     1       9.078  -1.019  24.635  0.00  0.00    +0.179 C 
ATOM     61  C   UNL     1       9.119  -0.214  23.324  0.00  0.00    +0.174 C 
BRANCH  61  62
ATOM     62  O   UNL     1      10.359  -0.455  22.636  0.00  0.00    -0.387 OA
ATOM     63  H   UNL     1      10.281  -1.333  22.208  0.00  0.00    +0.210 HD
ENDBRANCH  61  62
BRANCH  60  64
ATOM     64  O   UNL     1      10.237  -0.738  25.426  0.00  0.00    -0.386 OA
ATOM     65  H   UNL     1       9.967  -0.017  26.030  0.00  0.00    +0.210 HD
ENDBRANCH  60  64
BRANCH  59  66
ATOM     66  O   UNL     1      10.208  -2.942  23.678  0.00  0.00    -0.384 OA
ATOM     67  H   UNL     1      10.217  -2.442  22.836  0.00  0.00    +0.210 HD
ENDBRANCH  59  66
ENDBRANCH  54  58
ENDBRANCH  53  54
ENDBRANCH  41  53
ENDBRANCH  40  43
ENDBRANCH   1  40
TORSDOF 22
ENDMDL
MODEL 8
REMARK VINA RESULT:      -6.8      1.969      8.739
REMARK  Name = 
REMARK  23 active torsions:
REMARK  status: ('A' for Active; 'I' for Inactive)
REMARK    1  A    between atoms: C_1  and  C_2
REMARK    2  A    between atoms: C_4  and  O_62
REMARK    3  A    between atoms: C_6  and  O_61
REMARK    4  A    between atoms: C_7  and  O_60
REMARK    5  A    between atoms: C_8  and  O_11
REMARK    6  A    between atoms: O_11  and  C_12
REMARK    7  A    between atoms: C_12  and  C_13
REMARK    8  A    between atoms: C_14  and  O_59
REMARK    9  A    between atoms: C_16  and  O_58
REMARK   10  A    between atoms: C_18  and  O_57
REMARK   11  A    between atoms: C_19  and  O_22
REMARK   12  A    between atoms: O_22  and  C_23
REMARK   13  A    between atoms: C_25  and  O_56
REMARK   14  A    between atoms: C_30  and  C_48
REMARK   15  A    between atoms: C_31  and  O_34
REMARK   16  A    between atoms: O_34  and  C_35
REMARK   17  A    between atoms: C_37  and  O_47
REMARK   18  A    between atoms: C_38  and  O_46
REMARK   19  A    between atoms: C_39  and  O_45
REMARK   20  A    between atoms: C_41  and  C_43
REMARK   21  A    between atoms: C_43  and  O_44
REMARK   22  A    between atoms: C_50  and  O_55
REMARK   23  A    between atoms: C_51  and  O_54
REMARK                            x       y       z     vdW  Elec       q    Type
REMARK                         _______ _______ _______ _____ _____    ______ ____
ROOT
ATOM      1  C   UNL     1       3.616  -2.353  29.116  0.00  0.00    +0.131 A 
ATOM      2  C   UNL     1       4.533  -2.549  28.061  0.00  0.00    +0.093 A 
ATOM      3  C   UNL     1       5.123  -1.445  27.427  0.00  0.00    +0.147 A 
ATOM      4  O   UNL     1       6.010  -1.631  26.382  0.00  0.00    -0.451 OA
ATOM      5  C   UNL     1       6.769  -0.526  25.949  0.00  0.00    +0.181 A 
ATOM      6  C   UNL     1       6.530   0.755  26.333  0.00  0.00    +0.214 A 
ATOM      7  C   UNL     1       5.224   0.940  27.012  0.00  0.00    +0.238 A 
ATOM      8  O   UNL     1       4.496   1.899  26.783  0.00  0.00    -0.283 OA
ATOM      9  C   UNL     1       4.771  -0.168  27.842  0.00  0.00    +0.109 A 
ATOM     10  C   UNL     1       3.956   0.026  28.955  0.00  0.00    +0.135 A 
ATOM     11  C   UNL     1       3.389  -1.064  29.600  0.00  0.00    +0.092 A 
ENDROOT
BRANCH   5  12
ATOM     12  C   UNL     1       7.834  -0.858  24.957  0.00  0.00    +0.025 A 
ATOM     13  C   UNL     1       9.096  -1.344  25.348  0.00  0.00    +0.015 A 
ATOM     14  C   UNL     1      10.076  -1.660  24.394  0.00  0.00    +0.050 A 
ATOM     15  C   UNL     1       9.794  -1.504  23.042  0.00  0.00    +0.158 A 
ATOM     16  C   UNL     1       8.543  -1.064  22.633  0.00  0.00    +0.159 A 
ATOM     17  C   UNL     1       7.568  -0.750  23.574  0.00  0.00    +0.060 A 
BRANCH  16  18
ATOM     18  O   UNL     1       8.316  -0.937  21.292  0.00  0.00    -0.503 OA
ATOM     19  H   UNL     1       7.893  -0.073  21.134  0.00  0.00    +0.292 HD
ENDBRANCH  16  18
BRANCH  15  20
ATOM     20  O   UNL     1      10.750  -1.806  22.116  0.00  0.00    -0.503 OA
ATOM     21  H   UNL     1      11.301  -1.000  22.053  0.00  0.00    +0.292 HD
ENDBRANCH  15  20
ENDBRANCH   5  12
BRANCH  10  22
ATOM     22  O   UNL     1       3.736   1.284  29.429  0.00  0.00    -0.506 OA
ATOM     23  H   UNL     1       3.517   1.893  28.708  0.00  0.00    +0.292 HD
ENDBRANCH  10  22
BRANCH   6  24
ATOM     24  O   UNL     1       7.362   1.827  26.004  0.00  0.00    -0.453 OA
BRANCH  24  25
ATOM     25  C   UNL     1       7.066   2.577  24.807  0.00  0.00    +0.340 C 
ATOM     26  O   UNL     1       7.984   2.241  23.753  0.00  0.00    -0.331 OA
ATOM     27  C   UNL     1       9.324   2.733  23.893  0.00  0.00    +0.179 C 
ATOM     28  C   UNL     1       9.379   4.249  24.140  0.00  0.00    +0.177 C 
ATOM     29  C   UNL     1       8.448   4.651  25.278  0.00  0.00    +0.180 C 
ATOM     30  C   UNL     1       7.038   4.101  25.057  0.00  0.00    +0.214 C 
BRANCH  30  31
ATOM     31  O   UNL     1       6.219   4.497  26.173  0.00  0.00    -0.383 OA
ATOM     32  H   UNL     1       5.522   5.087  25.834  0.00  0.00    +0.210 HD
ENDBRANCH  30  31
BRANCH  29  33
ATOM     33  O   UNL     1       8.399   6.091  25.337  0.00  0.00    -0.386 OA
ATOM     34  H   UNL     1       7.818   6.379  24.603  0.00  0.00    +0.210 HD
ENDBRANCH  29  33
BRANCH  28  35
ATOM     35  O   UNL     1       8.994   4.979  22.966  0.00  0.00    -0.386 OA
ATOM     36  H   UNL     1       8.058   5.230  23.113  0.00  0.00    +0.210 HD
ENDBRANCH  28  35
BRANCH  27  37
ATOM     37  C   UNL     1      10.096   2.387  22.600  0.00  0.00    +0.190 C 
BRANCH  37  38
ATOM     38  O   UNL     1       9.237   2.154  21.482  0.00  0.00    -0.392 OA
ATOM     39  H   UNL     1       8.327   2.353  21.747  0.00  0.00    +0.210 HD
ENDBRANCH  37  38
ENDBRANCH  27  37
ENDBRANCH  24  25
ENDBRANCH   6  24
BRANCH   1  40
ATOM     40  O   UNL     1       2.998  -3.467  29.636  0.00  0.00    -0.461 OA
BRANCH  40  43
ATOM     41  C   UNL     1       2.565  -5.770  26.771  0.00  0.00    +0.179 C 
ATOM     42  O   UNL     1       2.493  -4.588  27.600  0.00  0.00    -0.331 OA
ATOM     43  C   UNL     1       3.152  -4.694  28.880  0.00  0.00    +0.339 C 
ATOM     44  C   UNL     1       2.523  -5.856  29.688  0.00  0.00    +0.214 C 
ATOM     45  C   UNL     1       2.662  -7.152  28.873  0.00  0.00    +0.180 C 
ATOM     46  C   UNL     1       1.981  -6.993  27.508  0.00  0.00    +0.177 C 
BRANCH  46  47
ATOM     47  O   UNL     1       2.113  -8.222  26.792  0.00  0.00    -0.386 OA
ATOM     48  H   UNL     1       2.921  -8.664  27.114  0.00  0.00    +0.210 HD
ENDBRANCH  46  47
BRANCH  45  49
ATOM     49  O   UNL     1       2.106  -8.279  29.560  0.00  0.00    -0.386 OA
ATOM     50  H   UNL     1       2.712  -9.025  29.378  0.00  0.00    +0.210 HD
ENDBRANCH  45  49
BRANCH  44  51
ATOM     51  O   UNL     1       1.130  -5.598  29.954  0.00  0.00    -0.383 OA
ATOM     52  H   UNL     1       0.949  -5.866  30.873  0.00  0.00    +0.210 HD
ENDBRANCH  44  51
BRANCH  41  53
ATOM     53  C   UNL     1       3.986  -5.971  26.198  0.00  0.00    +0.197 C 
BRANCH  53  54
ATOM     54  O   UNL     1       4.378  -4.882  25.358  0.00  0.00    -0.346 OA
BRANCH  54  58
ATOM     55  C   UNL     1       8.522  -5.228  24.180  0.00  0.00    +0.041 C 
ATOM     56  C   UNL     1       7.505  -4.270  23.568  0.00  0.00    +0.149 C 
ATOM     57  O   UNL     1       6.374  -4.107  24.440  0.00  0.00    -0.343 OA
ATOM     58  C   UNL     1       5.502  -5.234  24.530  0.00  0.00    +0.282 C 
ATOM     59  C   UNL     1       4.954  -5.608  23.137  0.00  0.00    +0.201 C 
ATOM     60  C   UNL     1       6.120  -5.871  22.179  0.00  0.00    +0.179 C 
ATOM     61  C   UNL     1       7.077  -4.667  22.144  0.00  0.00    +0.174 C 
BRANCH  61  62
ATOM     62  O   UNL     1       6.431  -3.541  21.524  0.00  0.00    -0.387 OA
ATOM     63  H   UNL     1       5.650  -3.323  22.074  0.00  0.00    +0.210 HD
ENDBRANCH  61  62
BRANCH  60  64
ATOM     64  O   UNL     1       5.622  -6.147  20.866  0.00  0.00    -0.386 OA
ATOM     65  H   UNL     1       5.252  -7.051  20.917  0.00  0.00    +0.210 HD
ENDBRANCH  60  64
BRANCH  59  66
ATOM     66  O   UNL     1       4.162  -4.507  22.626  0.00  0.00    -0.384 OA
ATOM     67  H   UNL     1       4.511  -3.715  23.083  0.00  0.00    +0.210 HD
ENDBRANCH  59  66
ENDBRANCH  54  58
ENDBRANCH  53  54
ENDBRANCH  41  53
ENDBRANCH  40  43
ENDBRANCH   1  40
TORSDOF 22
ENDMDL
MODEL 9
REMARK VINA RESULT:      -6.8      2.156      9.916
REMARK  Name = 
REMARK  23 active torsions:
REMARK  status: ('A' for Active; 'I' for Inactive)
REMARK    1  A    between atoms: C_1  and  C_2
REMARK    2  A    between atoms: C_4  and  O_62
REMARK    3  A    between atoms: C_6  and  O_61
REMARK    4  A    between atoms: C_7  and  O_60
REMARK    5  A    between atoms: C_8  and  O_11
REMARK    6  A    between atoms: O_11  and  C_12
REMARK    7  A    between atoms: C_12  and  C_13
REMARK    8  A    between atoms: C_14  and  O_59
REMARK    9  A    between atoms: C_16  and  O_58
REMARK   10  A    between atoms: C_18  and  O_57
REMARK   11  A    between atoms: C_19  and  O_22
REMARK   12  A    between atoms: O_22  and  C_23
REMARK   13  A    between atoms: C_25  and  O_56
REMARK   14  A    between atoms: C_30  and  C_48
REMARK   15  A    between atoms: C_31  and  O_34
REMARK   16  A    between atoms: O_34  and  C_35
REMARK   17  A    between atoms: C_37  and  O_47
REMARK   18  A    between atoms: C_38  and  O_46
REMARK   19  A    between atoms: C_39  and  O_45
REMARK   20  A    between atoms: C_41  and  C_43
REMARK   21  A    between atoms: C_43  and  O_44
REMARK   22  A    between atoms: C_50  and  O_55
REMARK   23  A    between atoms: C_51  and  O_54
REMARK                            x       y       z     vdW  Elec       q    Type
REMARK                         _______ _______ _______ _____ _____    ______ ____
ROOT
ATOM      1  C   UNL     1       6.982  -3.555  23.342  0.00  0.00    +0.131 A 
ATOM      2  C   UNL     1       6.742  -2.731  24.462  0.00  0.00    +0.093 A 
ATOM      3  C   UNL     1       7.478  -1.549  24.638  0.00  0.00    +0.147 A 
ATOM      4  O   UNL     1       7.258  -0.745  25.742  0.00  0.00    -0.451 OA
ATOM      5  C   UNL     1       7.824   0.544  25.749  0.00  0.00    +0.181 A 
ATOM      6  C   UNL     1       8.752   0.970  24.854  0.00  0.00    +0.214 A 
ATOM      7  C   UNL     1       9.345  -0.123  24.045  0.00  0.00    +0.238 A 
ATOM      8  O   UNL     1      10.543  -0.177  23.794  0.00  0.00    -0.283 OA
ATOM      9  C   UNL     1       8.454  -1.224  23.705  0.00  0.00    +0.109 A 
ATOM     10  C   UNL     1       8.615  -1.975  22.542  0.00  0.00    +0.135 A 
ATOM     11  C   UNL     1       7.871  -3.131  22.353  0.00  0.00    +0.092 A 
ENDROOT
BRANCH   5  12
ATOM     12  C   UNL     1       7.377   1.409  26.881  0.00  0.00    +0.025 A 
ATOM     13  C   UNL     1       7.070   2.772  26.706  0.00  0.00    +0.015 A 
ATOM     14  C   UNL     1       6.640   3.561  27.785  0.00  0.00    +0.050 A 
ATOM     15  C   UNL     1       6.502   2.986  29.044  0.00  0.00    +0.158 A 
ATOM     16  C   UNL     1       6.761   1.636  29.230  0.00  0.00    +0.159 A 
ATOM     17  C   UNL     1       7.186   0.850  28.164  0.00  0.00    +0.060 A 
BRANCH  16  18
ATOM     18  O   UNL     1       6.601   1.120  30.485  0.00  0.00    -0.503 OA
ATOM     19  H   UNL     1       6.966   0.217  30.494  0.00  0.00    +0.292 HD
ENDBRANCH  16  18
BRANCH  15  20
ATOM     20  O   UNL     1       6.090   3.755  30.093  0.00  0.00    -0.503 OA
ATOM     21  H   UNL     1       5.266   4.181  29.783  0.00  0.00    +0.292 HD
ENDBRANCH  15  20
ENDBRANCH   5  12
BRANCH  10  22
ATOM     22  O   UNL     1       9.481  -1.560  21.576  0.00  0.00    -0.506 OA
ATOM     23  H   UNL     1       9.103  -0.831  21.061  0.00  0.00    +0.292 HD
ENDBRANCH  10  22
BRANCH   6  24
ATOM     24  O   UNL     1       9.214   2.286  24.787  0.00  0.00    -0.453 OA
BRANCH  24  25
ATOM     25  C   UNL     1       9.277   2.921  23.492  0.00  0.00    +0.340 C 
ATOM     26  O   UNL     1      10.473   3.707  23.366  0.00  0.00    -0.331 OA
ATOM     27  C   UNL     1      10.517   4.928  24.117  0.00  0.00    +0.179 C 
ATOM     28  C   UNL     1       9.298   5.828  23.862  0.00  0.00    +0.177 C 
ATOM     29  C   UNL     1       7.999   5.047  24.024  0.00  0.00    +0.180 C 
ATOM     30  C   UNL     1       8.020   3.766  23.187  0.00  0.00    +0.214 C 
BRANCH  30  31
ATOM     31  O   UNL     1       6.779   3.068  23.401  0.00  0.00    -0.383 OA
ATOM     32  H   UNL     1       6.492   3.249  24.314  0.00  0.00    +0.210 HD
ENDBRANCH  30  31
BRANCH  29  33
ATOM     33  O   UNL     1       6.909   5.885  23.590  0.00  0.00    -0.386 OA
ATOM     34  H   UNL     1       6.230   5.287  23.217  0.00  0.00    +0.210 HD
ENDBRANCH  29  33
BRANCH  28  35
ATOM     35  O   UNL     1       9.329   6.380  22.538  0.00  0.00    -0.386 OA
ATOM     36  H   UNL     1       8.408   6.662  22.354  0.00  0.00    +0.210 HD
ENDBRANCH  28  35
BRANCH  27  37
ATOM     37  C   UNL     1      11.811   5.680  23.730  0.00  0.00    +0.190 C 
BRANCH  37  38
ATOM     38  O   UNL     1      12.182   5.484  22.365  0.00  0.00    -0.392 OA
ATOM     39  H   UNL     1      13.144   5.572  22.292  0.00  0.00    +0.210 HD
ENDBRANCH  37  38
ENDBRANCH  27  37
ENDBRANCH  24  25
ENDBRANCH   6  24
BRANCH   1  40
ATOM     40  O   UNL     1       6.298  -4.746  23.271  0.00  0.00    -0.461 OA
BRANCH  40  43
ATOM     41  C   UNL     1       5.143  -6.345  26.404  0.00  0.00    +0.179 C 
ATOM     42  O   UNL     1       5.977  -5.975  25.283  0.00  0.00    -0.331 OA
ATOM     43  C   UNL     1       5.390  -5.027  24.366  0.00  0.00    +0.339 C 
ATOM     44  C   UNL     1       4.080  -5.617  23.785  0.00  0.00    +0.214 C 
ATOM     45  C   UNL     1       3.129  -5.940  24.949  0.00  0.00    +0.180 C 
ATOM     46  C   UNL     1       3.797  -6.922  25.919  0.00  0.00    +0.177 C 
BRANCH  46  47
ATOM     47  O   UNL     1       2.876  -7.213  26.971  0.00  0.00    -0.386 OA
ATOM     48  H   UNL     1       2.600  -8.144  26.871  0.00  0.00    +0.210 HD
ENDBRANCH  46  47
BRANCH  45  49
ATOM     49  O   UNL     1       1.888  -6.486  24.489  0.00  0.00    -0.386 OA
ATOM     50  H   UNL     1       2.023  -6.688  23.541  0.00  0.00    +0.210 HD
ENDBRANCH  45  49
BRANCH  44  51
ATOM     51  O   UNL     1       4.350  -6.815  23.032  0.00  0.00    -0.383 OA
ATOM     52  H   UNL     1       4.165  -6.625  22.095  0.00  0.00    +0.210 HD
ENDBRANCH  44  51
BRANCH  41  53
ATOM     53  C   UNL     1       5.029  -5.191  27.426  0.00  0.00    +0.197 C 
BRANCH  53  54
ATOM     54  O   UNL     1       3.722  -4.612  27.427  0.00  0.00    -0.346 OA
BRANCH  54  58
ATOM     55  C   UNL     1       3.043  -1.323  30.149  0.00  0.00    +0.041 C 
ATOM     56  C   UNL     1       2.289  -1.562  28.844  0.00  0.00    +0.149 C 
ATOM     57  O   UNL     1       2.452  -2.922  28.408  0.00  0.00    -0.343 OA
ATOM     58  C   UNL     1       3.748  -3.255  27.910  0.00  0.00    +0.282 C 
ATOM     59  C   UNL     1       4.123  -2.347  26.721  0.00  0.00    +0.201 C 
ATOM     60  C   UNL     1       4.043  -0.878  27.151  0.00  0.00    +0.179 C 
ATOM     61  C   UNL     1       2.657  -0.558  27.738  0.00  0.00    +0.174 C 
BRANCH  61  62
ATOM     62  O   UNL     1       1.658  -0.620  26.705  0.00  0.00    -0.387 OA
ATOM     63  H   UNL     1       1.641   0.259  26.272  0.00  0.00    +0.210 HD
ENDBRANCH  61  62
BRANCH  60  64
ATOM     64  O   UNL     1       4.318  -0.026  26.035  0.00  0.00    -0.386 OA
ATOM     65  H   UNL     1       3.807   0.792  26.205  0.00  0.00    +0.210 HD
ENDBRANCH  60  64
BRANCH  59  66
ATOM     66  O   UNL     1       3.189  -2.572  25.637  0.00  0.00    -0.384 OA
ATOM     67  H   UNL     1       3.105  -1.703  25.195  0.00  0.00    +0.210 HD
ENDBRANCH  59  66
ENDBRANCH  54  58
ENDBRANCH  53  54
ENDBRANCH  41  53
ENDBRANCH  40  43
ENDBRANCH   1  40
TORSDOF 22
ENDMDL
