MODEL 1
REMARK VINA RESULT:      -7.4      0.000      0.000
REMARK  Name = 
REMARK  18 active torsions:
REMARK  status: ('A' for Active; 'I' for Inactive)
REMARK    1  A    between atoms: C_3  and  O_49
REMARK    2  A    between atoms: C_4  and  O_48
REMARK    3  A    between atoms: C_6  and  C_7
REMARK    4  A    between atoms: C_8  and  O_20
REMARK    5  A    between atoms: C_12  and  O_19
REMARK    6  A    between atoms: C_14  and  O_18
REMARK    7  A    between atoms: O_20  and  C_21
REMARK    8  A    between atoms: C_23  and  O_33
REMARK    9  A    between atoms: C_24  and  O_32
REMARK   10  A    between atoms: C_25  and  O_31
REMARK   11  A    between atoms: C_27  and  C_29
REMARK   12  A    between atoms: C_29  and  O_30
REMARK   13  A    between atoms: O_33  and  C_34
REMARK   14  A    between atoms: C_36  and  O_47
REMARK   15  A    between atoms: C_38  and  O_46
REMARK   16  A    between atoms: C_39  and  O_45
REMARK   17  A    between atoms: C_41  and  C_43
REMARK   18  A    between atoms: C_43  and  O_44
REMARK                            x       y       z     vdW  Elec       q    Type
REMARK                         _______ _______ _______ _____ _____    ______ ____
ROOT
ATOM      1  C   UNL     1       5.958  -2.610  26.683  0.00  0.00    +0.340 C 
ATOM      2  O   UNL     1       5.124  -2.684  27.878  0.00  0.00    -0.331 OA
ATOM      3  C   UNL     1       4.781  -3.953  28.513  0.00  0.00    +0.179 C 
ATOM      4  C   UNL     1       5.762  -5.112  28.256  0.00  0.00    +0.177 C 
ATOM      5  C   UNL     1       6.808  -4.750  27.217  0.00  0.00    +0.180 C 
ATOM      6  C   UNL     1       6.056  -3.991  26.085  0.00  0.00    +0.221 C 
ENDROOT
BRANCH   5   7
ATOM      7  O   UNL     1       7.529  -5.904  26.859  0.00  0.00    -0.386 OA
ATOM      8  H   UNL     1       8.170  -5.625  26.174  0.00  0.00    +0.210 HD
ENDBRANCH   5   7
BRANCH   4   9
ATOM      9  O   UNL     1       6.398  -5.528  29.468  0.00  0.00    -0.386 OA
ATOM     10  H   UNL     1       7.099  -6.167  29.243  0.00  0.00    +0.210 HD
ENDBRANCH   4   9
BRANCH   6  11
ATOM     11  O   UNL     1       6.440  -4.027  24.736  0.00  0.00    -0.337 OA
BRANCH  11  12
ATOM     12  C   UNL     1       5.773  -3.485  23.609  0.00  0.00    +0.282 C 
ATOM     13  O   UNL     1       4.484  -4.163  23.533  0.00  0.00    -0.341 OA
ATOM     14  C   UNL     1       4.656  -5.579  23.750  0.00  0.00    +0.178 C 
ATOM     15  C   UNL     1       5.574  -6.200  22.676  0.00  0.00    +0.177 C 
ATOM     16  C   UNL     1       6.793  -5.330  22.331  0.00  0.00    +0.179 C 
ATOM     17  C   UNL     1       6.506  -3.823  22.313  0.00  0.00    +0.201 C 
BRANCH  17  18
ATOM     18  O   UNL     1       5.754  -3.493  21.132  0.00  0.00    -0.384 OA
ATOM     19  H   UNL     1       4.814  -3.433  21.407  0.00  0.00    +0.210 HD
ENDBRANCH  17  18
BRANCH  16  20
ATOM     20  O   UNL     1       7.353  -5.758  21.080  0.00  0.00    -0.386 OA
ATOM     21  H   UNL     1       8.072  -5.126  20.879  0.00  0.00    +0.210 HD
ENDBRANCH  16  20
BRANCH  15  22
ATOM     22  O   UNL     1       4.880  -6.464  21.453  0.00  0.00    -0.386 OA
ATOM     23  H   UNL     1       5.607  -6.648  20.818  0.00  0.00    +0.210 HD
ENDBRANCH  15  22
BRANCH  14  24
ATOM     24  C   UNL     1       3.306  -6.285  23.892  0.00  0.00    +0.190 C 
BRANCH  24  25
ATOM     25  O   UNL     1       3.486  -7.704  23.839  0.00  0.00    -0.392 OA
ATOM     26  H   UNL     1       4.388  -7.894  24.147  0.00  0.00    +0.210 HD
ENDBRANCH  24  25
ENDBRANCH  14  24
ENDBRANCH  11  12
ENDBRANCH   6  11
BRANCH   3  27
ATOM     27  C   UNL     1       3.355  -4.565  28.295  0.00  0.00    +0.190 C 
BRANCH  27  28
ATOM     28  O   UNL     1       3.326  -5.762  27.541  0.00  0.00    -0.392 OA
ATOM     29  H   UNL     1       4.033  -6.343  27.869  0.00  0.00    +0.210 HD
ENDBRANCH  27  28
ENDBRANCH   3  27
BRANCH   1  30
ATOM     30  O   UNL     1       7.418  -2.289  26.821  0.00  0.00    -0.453 OA
BRANCH  30  41
ATOM     31  C   UNL     1       7.807   0.108  26.416  0.00  0.00    +0.181 A 
ATOM     32  O   UNL     1       8.584   1.013  25.647  0.00  0.00    -0.451 OA
ATOM     33  C   UNL     1       9.012   0.657  24.407  0.00  0.00    +0.147 A 
ATOM     34  C   UNL     1       9.126  -0.662  24.034  0.00  0.00    +0.109 A 
ATOM     35  C   UNL     1       9.460  -1.024  22.738  0.00  0.00    +0.135 A 
ATOM     36  C   UNL     1       9.772  -0.027  21.823  0.00  0.00    +0.091 A 
ATOM     37  C   UNL     1       9.754   1.307  22.237  0.00  0.00    +0.124 A 
ATOM     38  C   UNL     1       8.925  -1.628  25.082  0.00  0.00    +0.238 A 
ATOM     39  O   UNL     1       9.478  -2.721  25.004  0.00  0.00    -0.283 OA
ATOM     40  C   UNL     1       9.362   1.662  23.522  0.00  0.00    +0.092 A 
ATOM     41  C   UNL     1       7.979  -1.237  26.165  0.00  0.00    +0.214 A 
BRANCH  31  43
ATOM     42  C   UNL     1       6.946   2.395  27.060  0.00  0.00    +0.015 A 
ATOM     43  C   UNL     1       6.980   0.997  27.385  0.00  0.00    +0.025 A 
ATOM     44  C   UNL     1       6.062   0.633  28.377  0.00  0.00    +0.060 A 
ATOM     45  C   UNL     1       5.179   1.584  28.961  0.00  0.00    +0.159 A 
ATOM     46  C   UNL     1       5.174   2.935  28.585  0.00  0.00    +0.158 A 
ATOM     47  C   UNL     1       6.078   3.345  27.639  0.00  0.00    +0.050 A 
BRANCH  46  48
ATOM     48  O   UNL     1       4.257   3.792  29.132  0.00  0.00    -0.503 OA
ATOM     49  H   UNL     1       4.728   4.521  29.577  0.00  0.00    +0.292 HD
ENDBRANCH  46  48
BRANCH  45  50
ATOM     50  O   UNL     1       4.262   1.204  29.904  0.00  0.00    -0.503 OA
ATOM     51  H   UNL     1       4.369   0.231  29.996  0.00  0.00    +0.292 HD
ENDBRANCH  45  50
ENDBRANCH  31  43
BRANCH  37  52
ATOM     52  O   UNL     1      10.120   2.312  21.397  0.00  0.00    -0.507 OA
ATOM     53  H   UNL     1       9.315   2.775  21.111  0.00  0.00    +0.292 HD
ENDBRANCH  37  52
BRANCH  35  54
ATOM     54  O   UNL     1       9.470  -2.323  22.314  0.00  0.00    -0.506 OA
ATOM     55  H   UNL     1       9.347  -2.908  23.096  0.00  0.00    +0.292 HD
ENDBRANCH  35  54
ENDBRANCH  30  41
ENDBRANCH   1  30
TORSDOF 18
ENDMDL
MODEL 2
REMARK VINA RESULT:      -7.0      2.088      5.818
REMARK  Name = 
REMARK  18 active torsions:
REMARK  status: ('A' for Active; 'I' for Inactive)
REMARK    1  A    between atoms: C_3  and  O_49
REMARK    2  A    between atoms: C_4  and  O_48
REMARK    3  A    between atoms: C_6  and  C_7
REMARK    4  A    between atoms: C_8  and  O_20
REMARK    5  A    between atoms: C_12  and  O_19
REMARK    6  A    between atoms: C_14  and  O_18
REMARK    7  A    between atoms: O_20  and  C_21
REMARK    8  A    between atoms: C_23  and  O_33
REMARK    9  A    between atoms: C_24  and  O_32
REMARK   10  A    between atoms: C_25  and  O_31
REMARK   11  A    between atoms: C_27  and  C_29
REMARK   12  A    between atoms: C_29  and  O_30
REMARK   13  A    between atoms: O_33  and  C_34
REMARK   14  A    between atoms: C_36  and  O_47
REMARK   15  A    between atoms: C_38  and  O_46
REMARK   16  A    between atoms: C_39  and  O_45
REMARK   17  A    between atoms: C_41  and  C_43
REMARK   18  A    between atoms: C_43  and  O_44
REMARK                            x       y       z     vdW  Elec       q    Type
REMARK                         _______ _______ _______ _____ _____    ______ ____
ROOT
ATOM      1  C   UNL     1       4.069  -1.513  26.487  0.00  0.00    +0.340 C 
ATOM      2  O   UNL     1       3.059  -0.464  26.394  0.00  0.00    -0.331 OA
ATOM      3  C   UNL     1       2.358   0.050  27.567  0.00  0.00    +0.179 C 
ATOM      4  C   UNL     1       3.099  -0.110  28.908  0.00  0.00    +0.177 C 
ATOM      5  C   UNL     1       4.350  -0.960  28.767  0.00  0.00    +0.180 C 
ATOM      6  C   UNL     1       3.965  -2.155  27.847  0.00  0.00    +0.221 C 
ENDROOT
BRANCH   5   7
ATOM      7  O   UNL     1       4.857  -1.259  30.045  0.00  0.00    -0.386 OA
ATOM      8  H   UNL     1       4.617  -0.504  30.619  0.00  0.00    +0.210 HD
ENDBRANCH   5   7
BRANCH   4   9
ATOM      9  O   UNL     1       3.432   1.163  29.469  0.00  0.00    -0.386 OA
ATOM     10  H   UNL     1       2.637   1.528  29.898  0.00  0.00    +0.210 HD
ENDBRANCH   4   9
BRANCH   6  11
ATOM     11  O   UNL     1       4.542  -3.431  27.947  0.00  0.00    -0.337 OA
BRANCH  11  12
ATOM     12  C   UNL     1       4.396  -4.540  27.079  0.00  0.00    +0.282 C 
ATOM     13  O   UNL     1       3.739  -5.584  27.857  0.00  0.00    -0.341 OA
ATOM     14  C   UNL     1       4.336  -5.673  29.168  0.00  0.00    +0.178 C 
ATOM     15  C   UNL     1       5.834  -6.033  29.075  0.00  0.00    +0.177 C 
ATOM     16  C   UNL     1       6.575  -5.293  27.951  0.00  0.00    +0.179 C 
ATOM     17  C   UNL     1       5.753  -5.108  26.669  0.00  0.00    +0.201 C 
BRANCH  17  18
ATOM     18  O   UNL     1       5.656  -6.365  25.976  0.00  0.00    -0.384 OA
ATOM     19  H   UNL     1       5.485  -6.153  25.034  0.00  0.00    +0.210 HD
ENDBRANCH  17  18
BRANCH  16  20
ATOM     20  O   UNL     1       7.815  -5.961  27.669  0.00  0.00    -0.386 OA
ATOM     21  H   UNL     1       7.992  -5.806  26.719  0.00  0.00    +0.210 HD
ENDBRANCH  16  20
BRANCH  15  22
ATOM     22  O   UNL     1       6.045  -7.434  28.874  0.00  0.00    -0.386 OA
ATOM     23  H   UNL     1       5.155  -7.759  28.612  0.00  0.00    +0.210 HD
ENDBRANCH  15  22
BRANCH  14  24
ATOM     24  C   UNL     1       3.533  -6.603  30.080  0.00  0.00    +0.190 C 
BRANCH  24  25
ATOM     25  O   UNL     1       3.348  -7.873  29.446  0.00  0.00    -0.392 OA
ATOM     26  H   UNL     1       2.698  -7.750  28.734  0.00  0.00    +0.210 HD
ENDBRANCH  24  25
ENDBRANCH  14  24
ENDBRANCH  11  12
ENDBRANCH   6  11
BRANCH   3  27
ATOM     27  C   UNL     1       0.888  -0.412  27.852  0.00  0.00    +0.190 C 
BRANCH  27  28
ATOM     28  O   UNL     1       0.487  -0.335  29.207  0.00  0.00    -0.392 OA
ATOM     29  H   UNL     1       0.794   0.516  29.565  0.00  0.00    +0.210 HD
ENDBRANCH  27  28
ENDBRANCH   3  27
BRANCH   1  30
ATOM     30  O   UNL     1       5.523  -1.140  26.492  0.00  0.00    -0.453 OA
BRANCH  30  41
ATOM     31  C   UNL     1       6.496  -1.494  24.259  0.00  0.00    +0.181 A 
ATOM     32  O   UNL     1       7.070  -0.812  23.155  0.00  0.00    -0.451 OA
ATOM     33  C   UNL     1       7.755   0.344  23.352  0.00  0.00    +0.147 A 
ATOM     34  C   UNL     1       7.551   1.123  24.467  0.00  0.00    +0.109 A 
ATOM     35  C   UNL     1       8.325   2.245  24.722  0.00  0.00    +0.135 A 
ATOM     36  C   UNL     1       9.267   2.637  23.779  0.00  0.00    +0.091 A 
ATOM     37  C   UNL     1       9.398   1.900  22.600  0.00  0.00    +0.124 A 
ATOM     38  C   UNL     1       6.460   0.724  25.317  0.00  0.00    +0.238 A 
ATOM     39  O   UNL     1       5.888   1.572  25.995  0.00  0.00    -0.283 OA
ATOM     40  C   UNL     1       8.658   0.744  22.382  0.00  0.00    +0.092 A 
ATOM     41  C   UNL     1       6.156  -0.735  25.358  0.00  0.00    +0.214 A 
BRANCH  31  43
ATOM     42  C   UNL     1       5.113  -3.404  23.348  0.00  0.00    +0.015 A 
ATOM     43  C   UNL     1       6.402  -2.982  23.819  0.00  0.00    +0.025 A 
ATOM     44  C   UNL     1       7.418  -3.913  23.572  0.00  0.00    +0.060 A 
ATOM     45  C   UNL     1       7.160  -5.135  22.891  0.00  0.00    +0.159 A 
ATOM     46  C   UNL     1       5.882  -5.483  22.430  0.00  0.00    +0.158 A 
ATOM     47  C   UNL     1       4.848  -4.617  22.677  0.00  0.00    +0.050 A 
BRANCH  46  48
ATOM     48  O   UNL     1       5.704  -6.641  21.721  0.00  0.00    -0.503 OA
ATOM     49  H   UNL     1       6.088  -6.531  20.832  0.00  0.00    +0.292 HD
ENDBRANCH  46  48
BRANCH  45  50
ATOM     50  O   UNL     1       8.172  -6.017  22.625  0.00  0.00    -0.503 OA
ATOM     51  H   UNL     1       7.733  -6.823  22.274  0.00  0.00    +0.292 HD
ENDBRANCH  45  50
ENDBRANCH  31  43
BRANCH  37  52
ATOM     52  O   UNL     1      10.256   2.285  21.619  0.00  0.00    -0.507 OA
ATOM     53  H   UNL     1      11.120   2.468  22.026  0.00  0.00    +0.292 HD
ENDBRANCH  37  52
BRANCH  35  54
ATOM     54  O   UNL     1       8.217   2.970  25.875  0.00  0.00    -0.506 OA
ATOM     55  H   UNL     1       8.061   3.912  25.638  0.00  0.00    +0.292 HD
ENDBRANCH  35  54
ENDBRANCH  30  41
ENDBRANCH   1  30
TORSDOF 18
ENDMDL
MODEL 3
REMARK VINA RESULT:      -7.0      2.765      7.415
REMARK  Name = 
REMARK  18 active torsions:
REMARK  status: ('A' for Active; 'I' for Inactive)
REMARK    1  A    between atoms: C_3  and  O_49
REMARK    2  A    between atoms: C_4  and  O_48
REMARK    3  A    between atoms: C_6  and  C_7
REMARK    4  A    between atoms: C_8  and  O_20
REMARK    5  A    between atoms: C_12  and  O_19
REMARK    6  A    between atoms: C_14  and  O_18
REMARK    7  A    between atoms: O_20  and  C_21
REMARK    8  A    between atoms: C_23  and  O_33
REMARK    9  A    between atoms: C_24  and  O_32
REMARK   10  A    between atoms: C_25  and  O_31
REMARK   11  A    between atoms: C_27  and  C_29
REMARK   12  A    between atoms: C_29  and  O_30
REMARK   13  A    between atoms: O_33  and  C_34
REMARK   14  A    between atoms: C_36  and  O_47
REMARK   15  A    between atoms: C_38  and  O_46
REMARK   16  A    between atoms: C_39  and  O_45
REMARK   17  A    between atoms: C_41  and  C_43
REMARK   18  A    between atoms: C_43  and  O_44
REMARK                            x       y       z     vdW  Elec       q    Type
REMARK                         _______ _______ _______ _____ _____    ______ ____
ROOT
ATOM      1  C   UNL     1       5.908   0.350  26.487  0.00  0.00    +0.340 C 
ATOM      2  O   UNL     1       5.519  -0.264  27.753  0.00  0.00    -0.331 OA
ATOM      3  C   UNL     1       4.444   0.273  28.581  0.00  0.00    +0.179 C 
ATOM      4  C   UNL     1       3.384   1.107  27.838  0.00  0.00    +0.177 C 
ATOM      5  C   UNL     1       3.780   1.373  26.396  0.00  0.00    +0.180 C 
ATOM      6  C   UNL     1       5.296   1.726  26.417  0.00  0.00    +0.221 C 
ENDROOT
BRANCH   5   7
ATOM      7  O   UNL     1       2.899   2.318  25.837  0.00  0.00    -0.386 OA
ATOM      8  H   UNL     1       3.459   2.976  25.378  0.00  0.00    +0.210 HD
ENDBRANCH   5   7
BRANCH   4   9
ATOM      9  O   UNL     1       2.102   0.475  27.886  0.00  0.00    -0.386 OA
ATOM     10  H   UNL     1       1.750   0.561  28.790  0.00  0.00    +0.210 HD
ENDBRANCH   4   9
BRANCH   6  11
ATOM     11  O   UNL     1       5.904   2.600  25.502  0.00  0.00    -0.337 OA
BRANCH  11  12
ATOM     12  C   UNL     1       5.816   4.012  25.433  0.00  0.00    +0.282 C 
ATOM     13  O   UNL     1       4.801   4.309  24.430  0.00  0.00    -0.341 OA
ATOM     14  C   UNL     1       4.985   3.467  23.273  0.00  0.00    +0.178 C 
ATOM     15  C   UNL     1       6.366   3.705  22.625  0.00  0.00    +0.177 C 
ATOM     16  C   UNL     1       7.505   3.859  23.644  0.00  0.00    +0.179 C 
ATOM     17  C   UNL     1       7.115   4.625  24.915  0.00  0.00    +0.201 C 
BRANCH  17  18
ATOM     18  O   UNL     1       7.001   6.027  24.613  0.00  0.00    -0.384 OA
ATOM     19  H   UNL     1       6.388   6.407  25.278  0.00  0.00    +0.210 HD
ENDBRANCH  17  18
BRANCH  16  20
ATOM     20  O   UNL     1       8.641   4.468  23.010  0.00  0.00    -0.386 OA
ATOM     21  H   UNL     1       8.989   5.119  23.653  0.00  0.00    +0.210 HD
ENDBRANCH  16  20
BRANCH  15  22
ATOM     22  O   UNL     1       6.382   4.868  21.791  0.00  0.00    -0.386 OA
ATOM     23  H   UNL     1       6.375   4.491  20.883  0.00  0.00    +0.210 HD
ENDBRANCH  15  22
BRANCH  14  24
ATOM     24  C   UNL     1       3.814   3.600  22.298  0.00  0.00    +0.190 C 
BRANCH  24  25
ATOM     25  O   UNL     1       2.734   2.756  22.710  0.00  0.00    -0.392 OA
ATOM     26  H   UNL     1       2.462   2.235  21.936  0.00  0.00    +0.210 HD
ENDBRANCH  24  25
ENDBRANCH  14  24
ENDBRANCH  11  12
ENDBRANCH   6  11
BRANCH   3  27
ATOM     27  C   UNL     1       4.797   1.103  29.862  0.00  0.00    +0.190 C 
BRANCH  27  28
ATOM     28  O   UNL     1       6.138   1.549  29.937  0.00  0.00    -0.392 OA
ATOM     29  H   UNL     1       6.616   1.199  29.166  0.00  0.00    +0.210 HD
ENDBRANCH  27  28
ENDBRANCH   3  27
BRANCH   1  30
ATOM     30  O   UNL     1       5.393  -0.224  25.199  0.00  0.00    -0.453 OA
BRANCH  30  41
ATOM     31  C   UNL     1       7.116  -1.485  23.975  0.00  0.00    +0.181 A 
ATOM     32  O   UNL     1       7.501  -2.797  23.594  0.00  0.00    -0.451 OA
ATOM     33  C   UNL     1       6.554  -3.751  23.394  0.00  0.00    +0.147 A 
ATOM     34  C   UNL     1       5.304  -3.658  23.961  0.00  0.00    +0.109 A 
ATOM     35  C   UNL     1       4.305  -4.574  23.671  0.00  0.00    +0.135 A 
ATOM     36  C   UNL     1       4.606  -5.659  22.857  0.00  0.00    +0.091 A 
ATOM     37  C   UNL     1       5.905  -5.802  22.367  0.00  0.00    +0.124 A 
ATOM     38  C   UNL     1       5.123  -2.585  24.903  0.00  0.00    +0.238 A 
ATOM     39  O   UNL     1       4.294  -2.707  25.799  0.00  0.00    -0.283 OA
ATOM     40  C   UNL     1       6.883  -4.848  22.616  0.00  0.00    +0.092 A 
ATOM     41  C   UNL     1       5.927  -1.353  24.660  0.00  0.00    +0.214 A 
BRANCH  31  43
ATOM     42  C   UNL     1       8.392  -0.434  22.063  0.00  0.00    +0.015 A 
ATOM     43  C   UNL     1       8.267  -0.562  23.487  0.00  0.00    +0.025 A 
ATOM     44  C   UNL     1       9.045   0.358  24.199  0.00  0.00    +0.060 A 
ATOM     45  C   UNL     1       9.847   1.329  23.535  0.00  0.00    +0.159 A 
ATOM     46  C   UNL     1       9.910   1.422  22.138  0.00  0.00    +0.158 A 
ATOM     47  C   UNL     1       9.189   0.521  21.397  0.00  0.00    +0.050 A 
BRANCH  46  48
ATOM     48  O   UNL     1      10.645   2.419  21.553  0.00  0.00    -0.503 OA
ATOM     49  H   UNL     1      10.517   2.383  20.587  0.00  0.00    +0.292 HD
ENDBRANCH  46  48
BRANCH  45  50
ATOM     50  O   UNL     1      10.573   2.245  24.248  0.00  0.00    -0.503 OA
ATOM     51  H   UNL     1      10.311   2.114  25.187  0.00  0.00    +0.292 HD
ENDBRANCH  45  50
ENDBRANCH  31  43
BRANCH  37  52
ATOM     52  O   UNL     1       6.264  -6.883  21.625  0.00  0.00    -0.507 OA
ATOM     53  H   UNL     1       7.213  -6.811  21.424  0.00  0.00    +0.292 HD
ENDBRANCH  37  52
BRANCH  35  54
ATOM     54  O   UNL     1       3.025  -4.441  24.132  0.00  0.00    -0.506 OA
ATOM     55  H   UNL     1       2.796  -5.246  24.651  0.00  0.00    +0.292 HD
ENDBRANCH  35  54
ENDBRANCH  30  41
ENDBRANCH   1  30
TORSDOF 18
ENDMDL
MODEL 4
REMARK VINA RESULT:      -7.0      2.640      7.761
REMARK  Name = 
REMARK  18 active torsions:
REMARK  status: ('A' for Active; 'I' for Inactive)
REMARK    1  A    between atoms: C_3  and  O_49
REMARK    2  A    between atoms: C_4  and  O_48
REMARK    3  A    between atoms: C_6  and  C_7
REMARK    4  A    between atoms: C_8  and  O_20
REMARK    5  A    between atoms: C_12  and  O_19
REMARK    6  A    between atoms: C_14  and  O_18
REMARK    7  A    between atoms: O_20  and  C_21
REMARK    8  A    between atoms: C_23  and  O_33
REMARK    9  A    between atoms: C_24  and  O_32
REMARK   10  A    between atoms: C_25  and  O_31
REMARK   11  A    between atoms: C_27  and  C_29
REMARK   12  A    between atoms: C_29  and  O_30
REMARK   13  A    between atoms: O_33  and  C_34
REMARK   14  A    between atoms: C_36  and  O_47
REMARK   15  A    between atoms: C_38  and  O_46
REMARK   16  A    between atoms: C_39  and  O_45
REMARK   17  A    between atoms: C_41  and  C_43
REMARK   18  A    between atoms: C_43  and  O_44
REMARK                            x       y       z     vdW  Elec       q    Type
REMARK                         _______ _______ _______ _____ _____    ______ ____
ROOT
ATOM      1  C   UNL     1       6.422   0.841  26.229  0.00  0.00    +0.340 C 
ATOM      2  O   UNL     1       6.637   0.339  27.582  0.00  0.00    -0.331 OA
ATOM      3  C   UNL     1       5.870   0.825  28.725  0.00  0.00    +0.179 C 
ATOM      4  C   UNL     1       4.487   1.416  28.396  0.00  0.00    +0.177 C 
ATOM      5  C   UNL     1       4.271   1.555  26.899  0.00  0.00    +0.180 C 
ATOM      6  C   UNL     1       5.604   2.105  26.314  0.00  0.00    +0.221 C 
ENDROOT
BRANCH   5   7
ATOM      7  O   UNL     1       3.100   2.299  26.663  0.00  0.00    -0.386 OA
ATOM      8  H   UNL     1       2.362   1.771  27.029  0.00  0.00    +0.210 HD
ENDBRANCH   5   7
BRANCH   4   9
ATOM      9  O   UNL     1       3.439   0.630  28.971  0.00  0.00    -0.386 OA
ATOM     10  H   UNL     1       2.646   1.189  29.055  0.00  0.00    +0.210 HD
ENDBRANCH   4   9
BRANCH   6  11
ATOM     11  O   UNL     1       5.674   2.934  25.184  0.00  0.00    -0.337 OA
BRANCH  11  12
ATOM     12  C   UNL     1       6.188   2.639  23.898  0.00  0.00    +0.282 C 
ATOM     13  O   UNL     1       7.566   3.117  23.889  0.00  0.00    -0.341 OA
ATOM     14  C   UNL     1       7.639   4.426  24.492  0.00  0.00    +0.178 C 
ATOM     15  C   UNL     1       6.784   5.448  23.714  0.00  0.00    +0.177 C 
ATOM     16  C   UNL     1       5.425   4.894  23.261  0.00  0.00    +0.179 C 
ATOM     17  C   UNL     1       5.459   3.427  22.812  0.00  0.00    +0.201 C 
BRANCH  17  18
ATOM     18  O   UNL     1       6.090   3.335  21.523  0.00  0.00    -0.384 OA
ATOM     19  H   UNL     1       6.285   4.254  21.241  0.00  0.00    +0.210 HD
ENDBRANCH  17  18
BRANCH  16  20
ATOM     20  O   UNL     1       4.883   5.731  22.226  0.00  0.00    -0.386 OA
ATOM     21  H   UNL     1       5.100   5.286  21.382  0.00  0.00    +0.210 HD
ENDBRANCH  16  20
BRANCH  15  22
ATOM     22  O   UNL     1       7.453   5.940  22.547  0.00  0.00    -0.386 OA
ATOM     23  H   UNL     1       6.825   6.608  22.195  0.00  0.00    +0.210 HD
ENDBRANCH  15  22
BRANCH  14  24
ATOM     24  C   UNL     1       9.092   4.862  24.695  0.00  0.00    +0.190 C 
BRANCH  24  25
ATOM     25  O   UNL     1       9.853   4.598  23.512  0.00  0.00    -0.392 OA
ATOM     26  H   UNL     1      10.600   4.031  23.769  0.00  0.00    +0.210 HD
ENDBRANCH  24  25
ENDBRANCH  14  24
ENDBRANCH  11  12
ENDBRANCH   6  11
BRANCH   3  27
ATOM     27  C   UNL     1       6.527   1.845  29.718  0.00  0.00    +0.190 C 
BRANCH  27  28
ATOM     28  O   UNL     1       7.647   2.541  29.209  0.00  0.00    -0.392 OA
ATOM     29  H   UNL     1       7.719   2.345  28.259  0.00  0.00    +0.210 HD
ENDBRANCH  27  28
ENDBRANCH   3  27
BRANCH   1  30
ATOM     30  O   UNL     1       5.572   0.052  25.276  0.00  0.00    -0.453 OA
BRANCH  30  41
ATOM     31  C   UNL     1       7.148  -1.334  23.991  0.00  0.00    +0.181 A 
ATOM     32  O   UNL     1       7.433  -2.674  23.621  0.00  0.00    -0.451 OA
ATOM     33  C   UNL     1       6.423  -3.573  23.494  0.00  0.00    +0.147 A 
ATOM     34  C   UNL     1       5.213  -3.395  24.124  0.00  0.00    +0.109 A 
ATOM     35  C   UNL     1       4.147  -4.254  23.909  0.00  0.00    +0.135 A 
ATOM     36  C   UNL     1       4.339  -5.371  23.106  0.00  0.00    +0.091 A 
ATOM     37  C   UNL     1       5.599  -5.602  22.551  0.00  0.00    +0.124 A 
ATOM     38  C   UNL     1       5.148  -2.294  25.049  0.00  0.00    +0.238 A 
ATOM     39  O   UNL     1       4.363  -2.348  25.991  0.00  0.00    -0.283 OA
ATOM     40  C   UNL     1       6.644  -4.704  22.725  0.00  0.00    +0.092 A 
ATOM     41  C   UNL     1       6.009  -1.118  24.735  0.00  0.00    +0.214 A 
BRANCH  31  43
ATOM     42  C   UNL     1       8.169  -0.063  22.059  0.00  0.00    +0.015 A 
ATOM     43  C   UNL     1       8.323  -0.492  23.420  0.00  0.00    +0.025 A 
ATOM     44  C   UNL     1       9.390   0.127  24.082  0.00  0.00    +0.060 A 
ATOM     45  C   UNL     1      10.202   1.103  23.439  0.00  0.00    +0.159 A 
ATOM     46  C   UNL     1       9.988   1.500  22.112  0.00  0.00    +0.158 A 
ATOM     47  C   UNL     1       8.974   0.899  21.412  0.00  0.00    +0.050 A 
BRANCH  46  48
ATOM     48  O   UNL     1      10.757   2.493  21.564  0.00  0.00    -0.503 OA
ATOM     49  H   UNL     1      11.219   2.968  22.279  0.00  0.00    +0.292 HD
ENDBRANCH  46  48
BRANCH  45  50
ATOM     50  O   UNL     1      11.218   1.725  24.113  0.00  0.00    -0.503 OA
ATOM     51  H   UNL     1      11.425   2.531  23.590  0.00  0.00    +0.292 HD
ENDBRANCH  45  50
ENDBRANCH  31  43
BRANCH  37  52
ATOM     52  O   UNL     1       5.853  -6.718  21.816  0.00  0.00    -0.507 OA
ATOM     53  H   UNL     1       6.725  -7.060  22.077  0.00  0.00    +0.292 HD
ENDBRANCH  37  52
BRANCH  35  54
ATOM     54  O   UNL     1       2.905  -4.036  24.435  0.00  0.00    -0.506 OA
ATOM     55  H   UNL     1       2.340  -4.816  24.235  0.00  0.00    +0.292 HD
ENDBRANCH  35  54
ENDBRANCH  30  41
ENDBRANCH   1  30
TORSDOF 18
ENDMDL
MODEL 5
REMARK VINA RESULT:      -6.9      1.386      2.117
REMARK  Name = 
REMARK  18 active torsions:
REMARK  status: ('A' for Active; 'I' for Inactive)
REMARK    1  A    between atoms: C_3  and  O_49
REMARK    2  A    between atoms: C_4  and  O_48
REMARK    3  A    between atoms: C_6  and  C_7
REMARK    4  A    between atoms: C_8  and  O_20
REMARK    5  A    between atoms: C_12  and  O_19
REMARK    6  A    between atoms: C_14  and  O_18
REMARK    7  A    between atoms: O_20  and  C_21
REMARK    8  A    between atoms: C_23  and  O_33
REMARK    9  A    between atoms: C_24  and  O_32
REMARK   10  A    between atoms: C_25  and  O_31
REMARK   11  A    between atoms: C_27  and  C_29
REMARK   12  A    between atoms: C_29  and  O_30
REMARK   13  A    between atoms: O_33  and  C_34
REMARK   14  A    between atoms: C_36  and  O_47
REMARK   15  A    between atoms: C_38  and  O_46
REMARK   16  A    between atoms: C_39  and  O_45
REMARK   17  A    between atoms: C_41  and  C_43
REMARK   18  A    between atoms: C_43  and  O_44
REMARK                            x       y       z     vdW  Elec       q    Type
REMARK                         _______ _______ _______ _____ _____    ______ ____
ROOT
ATOM      1  C   UNL     1       5.140  -2.194  27.041  0.00  0.00    +0.340 C 
ATOM      2  O   UNL     1       4.495  -2.010  28.337  0.00  0.00    -0.331 OA
ATOM      3  C   UNL     1       4.101  -3.135  29.179  0.00  0.00    +0.179 C 
ATOM      4  C   UNL     1       4.883  -4.442  28.951  0.00  0.00    +0.177 C 
ATOM      5  C   UNL     1       5.795  -4.354  27.739  0.00  0.00    +0.180 C 
ATOM      6  C   UNL     1       4.976  -3.635  26.628  0.00  0.00    +0.221 C 
ENDROOT
BRANCH   5   7
ATOM      7  O   UNL     1       6.306  -5.632  27.447  0.00  0.00    -0.386 OA
ATOM      8  H   UNL     1       7.021  -5.796  28.095  0.00  0.00    +0.210 HD
ENDBRANCH   5   7
BRANCH   4   9
ATOM      9  O   UNL     1       5.642  -4.799  30.110  0.00  0.00    -0.386 OA
ATOM     10  H   UNL     1       5.608  -4.058  30.740  0.00  0.00    +0.210 HD
ENDBRANCH   4   9
BRANCH   6  11
ATOM     11  O   UNL     1       5.142  -3.881  25.256  0.00  0.00    -0.337 OA
BRANCH  11  12
ATOM     12  C   UNL     1       4.875  -5.068  24.531  0.00  0.00    +0.282 C 
ATOM     13  O   UNL     1       6.122  -5.824  24.512  0.00  0.00    -0.341 OA
ATOM     14  C   UNL     1       7.229  -4.947  24.220  0.00  0.00    +0.178 C 
ATOM     15  C   UNL     1       7.065  -4.283  22.837  0.00  0.00    +0.177 C 
ATOM     16  C   UNL     1       5.630  -3.820  22.543  0.00  0.00    +0.179 C 
ATOM     17  C   UNL     1       4.542  -4.765  23.072  0.00  0.00    +0.201 C 
BRANCH  17  18
ATOM     18  O   UNL     1       4.487  -5.941  22.245  0.00  0.00    -0.384 OA
ATOM     19  H   UNL     1       3.761  -6.498  22.600  0.00  0.00    +0.210 HD
ENDBRANCH  17  18
BRANCH  16  20
ATOM     20  O   UNL     1       5.472  -3.600  21.133  0.00  0.00    -0.386 OA
ATOM     21  H   UNL     1       6.249  -4.018  20.709  0.00  0.00    +0.210 HD
ENDBRANCH  16  20
BRANCH  15  22
ATOM     22  O   UNL     1       7.460  -5.149  21.768  0.00  0.00    -0.386 OA
ATOM     23  H   UNL     1       8.229  -5.631  22.144  0.00  0.00    +0.210 HD
ENDBRANCH  15  22
BRANCH  14  24
ATOM     24  C   UNL     1       8.568  -5.663  24.406  0.00  0.00    +0.190 C 
BRANCH  24  25
ATOM     25  O   UNL     1       9.632  -4.707  24.469  0.00  0.00    -0.392 OA
ATOM     26  H   UNL     1      10.275  -4.944  23.780  0.00  0.00    +0.210 HD
ENDBRANCH  24  25
ENDBRANCH  14  24
ENDBRANCH  11  12
ENDBRANCH   6  11
BRANCH   3  27
ATOM     27  C   UNL     1       2.595  -3.563  29.242  0.00  0.00    +0.190 C 
BRANCH  27  28
ATOM     28  O   UNL     1       2.312  -4.841  28.705  0.00  0.00    -0.392 OA
ATOM     29  H   UNL     1       1.371  -5.032  28.862  0.00  0.00    +0.210 HD
ENDBRANCH  27  28
ENDBRANCH   3  27
BRANCH   1  30
ATOM     30  O   UNL     1       6.631  -2.066  26.934  0.00  0.00    -0.453 OA
BRANCH  30  41
ATOM     31  C   UNL     1       6.817   0.301  26.284  0.00  0.00    +0.181 A 
ATOM     32  O   UNL     1       7.650   1.223  25.600  0.00  0.00    -0.451 OA
ATOM     33  C   UNL     1       8.426   0.801  24.567  0.00  0.00    +0.147 A 
ATOM     34  C   UNL     1       8.793  -0.517  24.432  0.00  0.00    +0.109 A 
ATOM     35  C   UNL     1       9.493  -0.966  23.323  0.00  0.00    +0.135 A 
ATOM     36  C   UNL     1       9.908  -0.041  22.373  0.00  0.00    +0.091 A 
ATOM     37  C   UNL     1       9.620   1.311  22.568  0.00  0.00    +0.124 A 
ATOM     38  C   UNL     1       8.447  -1.379  25.531  0.00  0.00    +0.238 A 
ATOM     39  O   UNL     1       9.130  -2.374  25.751  0.00  0.00    -0.283 OA
ATOM     40  C   UNL     1       8.868   1.743  23.653  0.00  0.00    +0.092 A 
ATOM     41  C   UNL     1       7.211  -1.020  26.284  0.00  0.00    +0.214 A 
BRANCH  31  43
ATOM     42  C   UNL     1       4.664   1.580  25.946  0.00  0.00    +0.015 A 
ATOM     43  C   UNL     1       5.664   1.154  26.882  0.00  0.00    +0.025 A 
ATOM     44  C   UNL     1       5.305   1.370  28.218  0.00  0.00    +0.060 A 
ATOM     45  C   UNL     1       4.047   1.934  28.571  0.00  0.00    +0.159 A 
ATOM     46  C   UNL     1       3.097   2.310  27.611  0.00  0.00    +0.158 A 
ATOM     47  C   UNL     1       3.417   2.147  26.288  0.00  0.00    +0.050 A 
BRANCH  46  48
ATOM     48  O   UNL     1       1.876   2.785  28.009  0.00  0.00    -0.503 OA
ATOM     49  H   UNL     1       1.474   3.284  27.274  0.00  0.00    +0.292 HD
ENDBRANCH  46  48
BRANCH  45  50
ATOM     50  O   UNL     1       3.698   2.104  29.884  0.00  0.00    -0.503 OA
ATOM     51  H   UNL     1       2.743   1.874  29.933  0.00  0.00    +0.292 HD
ENDBRANCH  45  50
ENDBRANCH  31  43
BRANCH  37  52
ATOM     52  O   UNL     1      10.066   2.260  21.702  0.00  0.00    -0.507 OA
ATOM     53  H   UNL     1       9.343   2.474  21.088  0.00  0.00    +0.292 HD
ENDBRANCH  37  52
BRANCH  35  54
ATOM     54  O   UNL     1       9.772  -2.287  23.111  0.00  0.00    -0.506 OA
ATOM     55  H   UNL     1       9.087  -2.827  23.567  0.00  0.00    +0.292 HD
ENDBRANCH  35  54
ENDBRANCH  30  41
ENDBRANCH   1  30
TORSDOF 18
ENDMDL
MODEL 6
REMARK VINA RESULT:      -6.8      2.554      8.197
REMARK  Name = 
REMARK  18 active torsions:
REMARK  status: ('A' for Active; 'I' for Inactive)
REMARK    1  A    between atoms: C_3  and  O_49
REMARK    2  A    between atoms: C_4  and  O_48
REMARK    3  A    between atoms: C_6  and  C_7
REMARK    4  A    between atoms: C_8  and  O_20
REMARK    5  A    between atoms: C_12  and  O_19
REMARK    6  A    between atoms: C_14  and  O_18
REMARK    7  A    between atoms: O_20  and  C_21
REMARK    8  A    between atoms: C_23  and  O_33
REMARK    9  A    between atoms: C_24  and  O_32
REMARK   10  A    between atoms: C_25  and  O_31
REMARK   11  A    between atoms: C_27  and  C_29
REMARK   12  A    between atoms: C_29  and  O_30
REMARK   13  A    between atoms: O_33  and  C_34
REMARK   14  A    between atoms: C_36  and  O_47
REMARK   15  A    between atoms: C_38  and  O_46
REMARK   16  A    between atoms: C_39  and  O_45
REMARK   17  A    between atoms: C_41  and  C_43
REMARK   18  A    between atoms: C_43  and  O_44
REMARK                            x       y       z     vdW  Elec       q    Type
REMARK                         _______ _______ _______ _____ _____    ______ ____
ROOT
ATOM      1  C   UNL     1       6.070   0.202  26.631  0.00  0.00    +0.340 C 
ATOM      2  O   UNL     1       5.569   0.880  27.822  0.00  0.00    -0.331 OA
ATOM      3  C   UNL     1       5.303   2.315  27.849  0.00  0.00    +0.179 C 
ATOM      4  C   UNL     1       5.009   2.963  26.483  0.00  0.00    +0.177 C 
ATOM      5  C   UNL     1       5.248   1.998  25.334  0.00  0.00    +0.180 C 
ATOM      6  C   UNL     1       6.570   1.245  25.664  0.00  0.00    +0.221 C 
ENDROOT
BRANCH   5   7
ATOM      7  O   UNL     1       5.185   2.699  24.115  0.00  0.00    -0.386 OA
ATOM      8  H   UNL     1       5.899   3.366  24.146  0.00  0.00    +0.210 HD
ENDBRANCH   5   7
BRANCH   4   9
ATOM      9  O   UNL     1       3.672   3.468  26.428  0.00  0.00    -0.386 OA
ATOM     10  H   UNL     1       3.466   3.693  25.503  0.00  0.00    +0.210 HD
ENDBRANCH   4   9
BRANCH   6  11
ATOM     11  O   UNL     1       7.459   0.771  24.687  0.00  0.00    -0.337 OA
BRANCH  11  12
ATOM     12  C   UNL     1       8.872   0.691  24.739  0.00  0.00    +0.282 C 
ATOM     13  O   UNL     1       9.365   2.051  24.556  0.00  0.00    -0.341 OA
ATOM     14  C   UNL     1       8.644   2.699  23.487  0.00  0.00    +0.178 C 
ATOM     15  C   UNL     1       8.835   1.949  22.151  0.00  0.00    +0.177 C 
ATOM     16  C   UNL     1       8.777   0.420  22.291  0.00  0.00    +0.179 C 
ATOM     17  C   UNL     1       9.427  -0.121  23.571  0.00  0.00    +0.201 C 
BRANCH  17  18
ATOM     18  O   UNL     1      10.858  -0.041  23.452  0.00  0.00    -0.384 OA
ATOM     19  H   UNL     1      11.087  -0.414  22.574  0.00  0.00    +0.210 HD
ENDBRANCH  17  18
BRANCH  16  20
ATOM     20  O   UNL     1       9.354  -0.193  21.127  0.00  0.00    -0.386 OA
ATOM     21  H   UNL     1       9.303  -1.159  21.281  0.00  0.00    +0.210 HD
ENDBRANCH  16  20
BRANCH  15  22
ATOM     22  O   UNL     1      10.078   2.272  21.519  0.00  0.00    -0.386 OA
ATOM     23  H   UNL     1       9.803   2.564  20.622  0.00  0.00    +0.210 HD
ENDBRANCH  15  22
BRANCH  14  24
ATOM     24  C   UNL     1       8.984   4.189  23.412  0.00  0.00    +0.190 C 
BRANCH  24  25
ATOM     25  O   UNL     1      10.404   4.369  23.404  0.00  0.00    -0.392 OA
ATOM     26  H   UNL     1      10.763   3.810  22.694  0.00  0.00    +0.210 HD
ENDBRANCH  24  25
ENDBRANCH  14  24
ENDBRANCH  11  12
ENDBRANCH   6  11
BRANCH   3  27
ATOM     27  C   UNL     1       6.324   3.277  28.547  0.00  0.00    +0.190 C 
BRANCH  27  28
ATOM     28  O   UNL     1       7.523   2.665  28.983  0.00  0.00    -0.392 OA
ATOM     29  H   UNL     1       7.346   2.220  29.829  0.00  0.00    +0.210 HD
ENDBRANCH  27  28
ENDBRANCH   3  27
BRANCH   1  30
ATOM     30  O   UNL     1       5.110  -0.532  25.741  0.00  0.00    -0.453 OA
BRANCH  30  41
ATOM     31  C   UNL     1       5.393  -2.933  26.201  0.00  0.00    +0.181 A 
ATOM     32  O   UNL     1       4.695  -4.092  26.631  0.00  0.00    -0.451 OA
ATOM     33  C   UNL     1       3.368  -4.221  26.369  0.00  0.00    +0.147 A 
ATOM     34  C   UNL     1       2.571  -3.129  26.118  0.00  0.00    +0.109 A 
ATOM     35  C   UNL     1       1.243  -3.268  25.746  0.00  0.00    +0.135 A 
ATOM     36  C   UNL     1       0.686  -4.540  25.714  0.00  0.00    +0.091 A 
ATOM     37  C   UNL     1       1.473  -5.637  26.069  0.00  0.00    +0.124 A 
ATOM     38  C   UNL     1       3.191  -1.845  26.314  0.00  0.00    +0.238 A 
ATOM     39  O   UNL     1       2.493  -0.882  26.615  0.00  0.00    -0.283 OA
ATOM     40  C   UNL     1       2.818  -5.492  26.384  0.00  0.00    +0.092 A 
ATOM     41  C   UNL     1       4.658  -1.776  26.056  0.00  0.00    +0.214 A 
BRANCH  31  43
ATOM     42  C   UNL     1       7.250  -4.529  26.826  0.00  0.00    +0.015 A 
ATOM     43  C   UNL     1       6.875  -3.376  26.058  0.00  0.00    +0.025 A 
ATOM     44  C   UNL     1       7.841  -2.994  25.120  0.00  0.00    +0.060 A 
ATOM     45  C   UNL     1       9.053  -3.722  24.957  0.00  0.00    +0.159 A 
ATOM     46  C   UNL     1       9.354  -4.858  25.722  0.00  0.00    +0.158 A 
ATOM     47  C   UNL     1       8.452  -5.253  26.676  0.00  0.00    +0.050 A 
BRANCH  46  48
ATOM     48  O   UNL     1      10.504  -5.560  25.477  0.00  0.00    -0.503 OA
ATOM     49  H   UNL     1      10.610  -6.247  26.161  0.00  0.00    +0.292 HD
ENDBRANCH  46  48
BRANCH  45  50
ATOM     50  O   UNL     1       9.970  -3.355  24.009  0.00  0.00    -0.503 OA
ATOM     51  H   UNL     1       9.456  -2.887  23.314  0.00  0.00    +0.292 HD
ENDBRANCH  45  50
ENDBRANCH  31  43
BRANCH  37  52
ATOM     52  O   UNL     1       0.952  -6.892  26.121  0.00  0.00    -0.507 OA
ATOM     53  H   UNL     1       1.687  -7.527  26.067  0.00  0.00    +0.292 HD
ENDBRANCH  37  52
BRANCH  35  54
ATOM     54  O   UNL     1       0.462  -2.206  25.384  0.00  0.00    -0.506 OA
ATOM     55  H   UNL     1       1.050  -1.475  25.085  0.00  0.00    +0.292 HD
ENDBRANCH  35  54
ENDBRANCH  30  41
ENDBRANCH   1  30
TORSDOF 18
ENDMDL
MODEL 7
REMARK VINA RESULT:      -6.8      1.967      7.119
REMARK  Name = 
REMARK  18 active torsions:
REMARK  status: ('A' for Active; 'I' for Inactive)
REMARK    1  A    between atoms: C_3  and  O_49
REMARK    2  A    between atoms: C_4  and  O_48
REMARK    3  A    between atoms: C_6  and  C_7
REMARK    4  A    between atoms: C_8  and  O_20
REMARK    5  A    between atoms: C_12  and  O_19
REMARK    6  A    between atoms: C_14  and  O_18
REMARK    7  A    between atoms: O_20  and  C_21
REMARK    8  A    between atoms: C_23  and  O_33
REMARK    9  A    between atoms: C_24  and  O_32
REMARK   10  A    between atoms: C_25  and  O_31
REMARK   11  A    between atoms: C_27  and  C_29
REMARK   12  A    between atoms: C_29  and  O_30
REMARK   13  A    between atoms: O_33  and  C_34
REMARK   14  A    between atoms: C_36  and  O_47
REMARK   15  A    between atoms: C_38  and  O_46
REMARK   16  A    between atoms: C_39  and  O_45
REMARK   17  A    between atoms: C_41  and  C_43
REMARK   18  A    between atoms: C_43  and  O_44
REMARK                            x       y       z     vdW  Elec       q    Type
REMARK                         _______ _______ _______ _____ _____    ______ ____
ROOT
ATOM      1  C   UNL     1       6.393  -2.294  24.243  0.00  0.00    +0.340 C 
ATOM      2  O   UNL     1       5.918  -3.660  24.046  0.00  0.00    -0.331 OA
ATOM      3  C   UNL     1       6.743  -4.690  23.423  0.00  0.00    +0.179 C 
ATOM      4  C   UNL     1       8.264  -4.471  23.517  0.00  0.00    +0.177 C 
ATOM      5  C   UNL     1       8.607  -3.103  24.081  0.00  0.00    +0.180 C 
ATOM      6  C   UNL     1       7.632  -2.095  23.407  0.00  0.00    +0.221 C 
ENDROOT
BRANCH   5   7
ATOM      7  O   UNL     1       9.987  -2.871  23.935  0.00  0.00    -0.386 OA
ATOM      8  H   UNL     1      10.144  -2.743  22.977  0.00  0.00    +0.210 HD
ENDBRANCH   5   7
BRANCH   4   9
ATOM      9  O   UNL     1       8.886  -5.494  24.300  0.00  0.00    -0.386 OA
ATOM     10  H   UNL     1       9.609  -5.091  24.814  0.00  0.00    +0.210 HD
ENDBRANCH   4   9
BRANCH   6  11
ATOM     11  O   UNL     1       7.959  -0.757  23.139  0.00  0.00    -0.337 OA
BRANCH  11  12
ATOM     12  C   UNL     1       8.480   0.221  24.020  0.00  0.00    +0.282 C 
ATOM     13  O   UNL     1       7.443   1.236  24.164  0.00  0.00    -0.341 OA
ATOM     14  C   UNL     1       6.875   1.549  22.875  0.00  0.00    +0.178 C 
ATOM     15  C   UNL     1       7.946   2.109  21.915  0.00  0.00    +0.177 C 
ATOM     16  C   UNL     1       9.290   1.369  21.994  0.00  0.00    +0.179 C 
ATOM     17  C   UNL     1       9.686   0.933  23.411  0.00  0.00    +0.201 C 
BRANCH  17  18
ATOM     18  O   UNL     1      10.109   2.082  24.166  0.00  0.00    -0.384 OA
ATOM     19  H   UNL     1       9.559   2.835  23.860  0.00  0.00    +0.210 HD
ENDBRANCH  17  18
BRANCH  16  20
ATOM     20  O   UNL     1      10.321   2.175  21.402  0.00  0.00    -0.386 OA
ATOM     21  H   UNL     1      11.125   1.618  21.396  0.00  0.00    +0.210 HD
ENDBRANCH  16  20
BRANCH  15  22
ATOM     22  O   UNL     1       8.210   3.497  22.145  0.00  0.00    -0.386 OA
ATOM     23  H   UNL     1       9.143   3.498  22.454  0.00  0.00    +0.210 HD
ENDBRANCH  15  22
BRANCH  14  24
ATOM     24  C   UNL     1       5.642   2.445  23.015  0.00  0.00    +0.190 C 
BRANCH  24  25
ATOM     25  O   UNL     1       4.764   1.919  24.016  0.00  0.00    -0.392 OA
ATOM     26  H   UNL     1       4.086   1.395  23.559  0.00  0.00    +0.210 HD
ENDBRANCH  24  25
ENDBRANCH  14  24
ENDBRANCH  11  12
ENDBRANCH   6  11
BRANCH   3  27
ATOM     27  C   UNL     1       6.478  -5.096  21.933  0.00  0.00    +0.190 C 
BRANCH  27  28
ATOM     28  O   UNL     1       5.641  -4.213  21.211  0.00  0.00    -0.392 OA
ATOM     29  H   UNL     1       6.153  -3.413  21.003  0.00  0.00    +0.210 HD
ENDBRANCH  27  28
ENDBRANCH   3  27
BRANCH   1  30
ATOM     30  O   UNL     1       6.924  -1.884  25.585  0.00  0.00    -0.453 OA
BRANCH  30  41
ATOM     31  C   UNL     1       5.193  -2.366  27.268  0.00  0.00    +0.181 A 
ATOM     32  O   UNL     1       4.503  -1.804  28.373  0.00  0.00    -0.451 OA
ATOM     33  C   UNL     1       4.293  -0.463  28.432  0.00  0.00    +0.147 A 
ATOM     34  C   UNL     1       5.079   0.423  27.732  0.00  0.00    +0.109 A 
ATOM     35  C   UNL     1       4.798   1.780  27.706  0.00  0.00    +0.135 A 
ATOM     36  C   UNL     1       3.749   2.262  28.479  0.00  0.00    +0.091 A 
ATOM     37  C   UNL     1       3.018   1.371  29.267  0.00  0.00    +0.124 A 
ATOM     38  C   UNL     1       6.228  -0.144  27.077  0.00  0.00    +0.238 A 
ATOM     39  O   UNL     1       7.215   0.558  26.884  0.00  0.00    -0.283 OA
ATOM     40  C   UNL     1       3.271   0.005  29.241  0.00  0.00    +0.092 A 
ATOM     41  C   UNL     1       6.090  -1.553  26.609  0.00  0.00    +0.214 A 
BRANCH  31  43
ATOM     42  C   UNL     1       3.655  -4.078  26.223  0.00  0.00    +0.015 A 
ATOM     43  C   UNL     1       4.697  -3.836  27.179  0.00  0.00    +0.025 A 
ATOM     44  C   UNL     1       5.262  -5.008  27.695  0.00  0.00    +0.060 A 
ATOM     45  C   UNL     1       4.834  -6.295  27.265  0.00  0.00    +0.159 A 
ATOM     46  C   UNL     1       3.826  -6.469  26.307  0.00  0.00    +0.158 A 
ATOM     47  C   UNL     1       3.220  -5.350  25.795  0.00  0.00    +0.050 A 
BRANCH  46  48
ATOM     48  O   UNL     1       3.501  -7.729  25.879  0.00  0.00    -0.503 OA
ATOM     49  H   UNL     1       4.136  -8.006  25.193  0.00  0.00    +0.292 HD
ENDBRANCH  46  48
BRANCH  45  50
ATOM     50  O   UNL     1       5.424  -7.430  27.753  0.00  0.00    -0.503 OA
ATOM     51  H   UNL     1       5.396  -8.079  27.014  0.00  0.00    +0.292 HD
ENDBRANCH  45  50
ENDBRANCH  31  43
BRANCH  37  52
ATOM     52  O   UNL     1       2.030   1.806  30.093  0.00  0.00    -0.507 OA
ATOM     53  H   UNL     1       1.206   1.856  29.579  0.00  0.00    +0.292 HD
ENDBRANCH  37  52
BRANCH  35  54
ATOM     54  O   UNL     1       5.495   2.663  26.931  0.00  0.00    -0.506 OA
ATOM     55  H   UNL     1       5.777   2.201  26.109  0.00  0.00    +0.292 HD
ENDBRANCH  35  54
ENDBRANCH  30  41
ENDBRANCH   1  30
TORSDOF 18
ENDMDL
MODEL 8
REMARK VINA RESULT:      -6.8      1.980      6.745
REMARK  Name = 
REMARK  18 active torsions:
REMARK  status: ('A' for Active; 'I' for Inactive)
REMARK    1  A    between atoms: C_3  and  O_49
REMARK    2  A    between atoms: C_4  and  O_48
REMARK    3  A    between atoms: C_6  and  C_7
REMARK    4  A    between atoms: C_8  and  O_20
REMARK    5  A    between atoms: C_12  and  O_19
REMARK    6  A    between atoms: C_14  and  O_18
REMARK    7  A    between atoms: O_20  and  C_21
REMARK    8  A    between atoms: C_23  and  O_33
REMARK    9  A    between atoms: C_24  and  O_32
REMARK   10  A    between atoms: C_25  and  O_31
REMARK   11  A    between atoms: C_27  and  C_29
REMARK   12  A    between atoms: C_29  and  O_30
REMARK   13  A    between atoms: O_33  and  C_34
REMARK   14  A    between atoms: C_36  and  O_47
REMARK   15  A    between atoms: C_38  and  O_46
REMARK   16  A    between atoms: C_39  and  O_45
REMARK   17  A    between atoms: C_41  and  C_43
REMARK   18  A    between atoms: C_43  and  O_44
REMARK                            x       y       z     vdW  Elec       q    Type
REMARK                         _______ _______ _______ _____ _____    ______ ____
ROOT
ATOM      1  C   UNL     1       7.461  -3.104  23.648  0.00  0.00    +0.340 C 
ATOM      2  O   UNL     1       7.426  -4.512  24.027  0.00  0.00    -0.331 OA
ATOM      3  C   UNL     1       8.044  -5.005  25.254  0.00  0.00    +0.179 C 
ATOM      4  C   UNL     1       8.206  -3.967  26.380  0.00  0.00    +0.177 C 
ATOM      5  C   UNL     1       7.861  -2.564  25.913  0.00  0.00    +0.180 C 
ATOM      6  C   UNL     1       8.491  -2.406  24.499  0.00  0.00    +0.221 C 
ENDROOT
BRANCH   5   7
ATOM      7  O   UNL     1       8.239  -1.637  26.902  0.00  0.00    -0.386 OA
ATOM      8  H   UNL     1       8.699  -2.149  27.597  0.00  0.00    +0.210 HD
ENDBRANCH   5   7
BRANCH   4   9
ATOM      9  O   UNL     1       7.414  -4.313  27.520  0.00  0.00    -0.386 OA
ATOM     10  H   UNL     1       7.945  -4.158  28.322  0.00  0.00    +0.210 HD
ENDBRANCH   4   9
BRANCH   6  11
ATOM     11  O   UNL     1       8.956  -1.185  23.986  0.00  0.00    -0.337 OA
BRANCH  11  12
ATOM     12  C   UNL     1       9.867  -0.269  24.568  0.00  0.00    +0.282 C 
ATOM     13  O   UNL     1       9.059   0.704  25.294  0.00  0.00    -0.341 OA
ATOM     14  C   UNL     1       7.930   1.107  24.492  0.00  0.00    +0.178 C 
ATOM     15  C   UNL     1       8.389   1.770  23.175  0.00  0.00    +0.177 C 
ATOM     16  C   UNL     1       9.579   1.060  22.512  0.00  0.00    +0.179 C 
ATOM     17  C   UNL     1      10.621   0.519  23.500  0.00  0.00    +0.201 C 
BRANCH  17  18
ATOM     18  O   UNL     1      11.386   1.614  24.036  0.00  0.00    -0.384 OA
ATOM     19  H   UNL     1      12.256   1.596  23.582  0.00  0.00    +0.210 HD
ENDBRANCH  17  18
BRANCH  16  20
ATOM     20  O   UNL     1      10.192   1.937  21.554  0.00  0.00    -0.386 OA
ATOM     21  H   UNL     1      10.442   1.371  20.795  0.00  0.00    +0.210 HD
ENDBRANCH  16  20
BRANCH  15  22
ATOM     22  O   UNL     1       8.759   3.141  23.358  0.00  0.00    -0.386 OA
ATOM     23  H   UNL     1       7.963   3.629  23.049  0.00  0.00    +0.210 HD
ENDBRANCH  15  22
BRANCH  14  24
ATOM     24  C   UNL     1       6.949   1.957  25.302  0.00  0.00    +0.190 C 
BRANCH  24  25
ATOM     25  O   UNL     1       7.628   2.579  26.398  0.00  0.00    -0.392 OA
ATOM     26  H   UNL     1       6.960   3.051  26.923  0.00  0.00    +0.210 HD
ENDBRANCH  24  25
ENDBRANCH  14  24
ENDBRANCH  11  12
ENDBRANCH   6  11
BRANCH   3  27
ATOM     27  C   UNL     1       9.421  -5.749  25.180  0.00  0.00    +0.190 C 
BRANCH  27  28
ATOM     28  O   UNL     1      10.532  -4.927  24.877  0.00  0.00    -0.392 OA
ATOM     29  H   UNL     1      10.340  -4.452  24.051  0.00  0.00    +0.210 HD
ENDBRANCH  27  28
ENDBRANCH   3  27
BRANCH   1  30
ATOM     30  O   UNL     1       6.269  -2.235  23.927  0.00  0.00    -0.453 OA
BRANCH  30  41
ATOM     31  C   UNL     1       4.207  -2.496  25.246  0.00  0.00    +0.181 A 
ATOM     32  O   UNL     1       2.932  -3.118  25.239  0.00  0.00    -0.451 OA
ATOM     33  C   UNL     1       2.756  -4.299  24.591  0.00  0.00    +0.147 A 
ATOM     34  C   UNL     1       3.600  -4.702  23.582  0.00  0.00    +0.109 A 
ATOM     35  C   UNL     1       3.486  -5.953  22.996  0.00  0.00    +0.135 A 
ATOM     36  C   UNL     1       2.438  -6.780  23.379  0.00  0.00    +0.091 A 
ATOM     37  C   UNL     1       1.524  -6.324  24.331  0.00  0.00    +0.124 A 
ATOM     38  C   UNL     1       4.566  -3.727  23.149  0.00  0.00    +0.238 A 
ATOM     39  O   UNL     1       4.985  -3.769  21.997  0.00  0.00    -0.283 OA
ATOM     40  C   UNL     1       1.681  -5.092  24.955  0.00  0.00    +0.092 A 
ATOM     41  C   UNL     1       5.045  -2.769  24.186  0.00  0.00    +0.214 A 
BRANCH  31  43
ATOM     42  C   UNL     1       3.675  -2.227  27.702  0.00  0.00    +0.015 A 
ATOM     43  C   UNL     1       4.228  -1.616  26.527  0.00  0.00    +0.025 A 
ATOM     44  C   UNL     1       4.915  -0.425  26.789  0.00  0.00    +0.060 A 
ATOM     45  C   UNL     1       5.053   0.081  28.112  0.00  0.00    +0.159 A 
ATOM     46  C   UNL     1       4.511  -0.574  29.227  0.00  0.00    +0.158 A 
ATOM     47  C   UNL     1       3.802  -1.729  29.016  0.00  0.00    +0.050 A 
BRANCH  46  48
ATOM     48  O   UNL     1       4.732  -0.078  30.484  0.00  0.00    -0.503 OA
ATOM     49  H   UNL     1       4.486  -0.756  31.141  0.00  0.00    +0.292 HD
ENDBRANCH  46  48
BRANCH  45  50
ATOM     50  O   UNL     1       5.760   1.228  28.354  0.00  0.00    -0.503 OA
ATOM     51  H   UNL     1       6.615   1.113  27.882  0.00  0.00    +0.292 HD
ENDBRANCH  45  50
ENDBRANCH  31  43
BRANCH  37  52
ATOM     52  O   UNL     1       0.443  -7.069  24.686  0.00  0.00    -0.507 OA
ATOM     53  H   UNL     1       0.761  -7.926  25.016  0.00  0.00    +0.292 HD
ENDBRANCH  37  52
BRANCH  35  54
ATOM     54  O   UNL     1       4.378  -6.419  22.071  0.00  0.00    -0.506 OA
ATOM     55  H   UNL     1       4.085  -6.125  21.179  0.00  0.00    +0.292 HD
ENDBRANCH  35  54
ENDBRANCH  30  41
ENDBRANCH   1  30
TORSDOF 18
ENDMDL
MODEL 9
REMARK VINA RESULT:      -6.8      2.633      6.594
REMARK  Name = 
REMARK  18 active torsions:
REMARK  status: ('A' for Active; 'I' for Inactive)
REMARK    1  A    between atoms: C_3  and  O_49
REMARK    2  A    between atoms: C_4  and  O_48
REMARK    3  A    between atoms: C_6  and  C_7
REMARK    4  A    between atoms: C_8  and  O_20
REMARK    5  A    between atoms: C_12  and  O_19
REMARK    6  A    between atoms: C_14  and  O_18
REMARK    7  A    between atoms: O_20  and  C_21
REMARK    8  A    between atoms: C_23  and  O_33
REMARK    9  A    between atoms: C_24  and  O_32
REMARK   10  A    between atoms: C_25  and  O_31
REMARK   11  A    between atoms: C_27  and  C_29
REMARK   12  A    between atoms: C_29  and  O_30
REMARK   13  A    between atoms: O_33  and  C_34
REMARK   14  A    between atoms: C_36  and  O_47
REMARK   15  A    between atoms: C_38  and  O_46
REMARK   16  A    between atoms: C_39  and  O_45
REMARK   17  A    between atoms: C_41  and  C_43
REMARK   18  A    between atoms: C_43  and  O_44
REMARK                            x       y       z     vdW  Elec       q    Type
REMARK                         _______ _______ _______ _____ _____    ______ ____
ROOT
ATOM      1  C   UNL     1       8.276   0.122  25.069  0.00  0.00    +0.340 C 
ATOM      2  O   UNL     1       8.924   1.386  24.736  0.00  0.00    -0.331 OA
ATOM      3  C   UNL     1       9.834   1.522  23.602  0.00  0.00    +0.179 C 
ATOM      4  C   UNL     1       9.639   0.501  22.467  0.00  0.00    +0.177 C 
ATOM      5  C   UNL     1       8.647  -0.586  22.844  0.00  0.00    +0.180 C 
ATOM      6  C   UNL     1       8.972  -0.983  24.314  0.00  0.00    +0.221 C 
ENDROOT
BRANCH   5   7
ATOM      7  O   UNL     1       8.678  -1.604  21.873  0.00  0.00    -0.386 OA
ATOM      8  H   UNL     1       9.497  -1.466  21.357  0.00  0.00    +0.210 HD
ENDBRANCH   5   7
BRANCH   4   9
ATOM      9  O   UNL     1       9.224   1.144  21.258  0.00  0.00    -0.386 OA
ATOM     10  H   UNL     1       9.738   0.771  20.520  0.00  0.00    +0.210 HD
ENDBRANCH   4   9
BRANCH   6  11
ATOM     11  O   UNL     1       8.775  -2.272  24.833  0.00  0.00    -0.337 OA
BRANCH  11  12
ATOM     12  C   UNL     1       9.111  -3.521  24.256  0.00  0.00    +0.282 C 
ATOM     13  O   UNL     1       7.942  -3.946  23.495  0.00  0.00    -0.341 OA
ATOM     14  C   UNL     1       6.742  -3.723  24.264  0.00  0.00    +0.178 C 
ATOM     15  C   UNL     1       6.763  -4.532  25.578  0.00  0.00    +0.177 C 
ATOM     16  C   UNL     1       8.130  -4.528  26.281  0.00  0.00    +0.179 C 
ATOM     17  C   UNL     1       9.330  -4.588  25.326  0.00  0.00    +0.201 C 
BRANCH  17  18
ATOM     18  O   UNL     1       9.448  -5.916  24.788  0.00  0.00    -0.384 OA
ATOM     19  H   UNL     1       9.943  -5.834  23.945  0.00  0.00    +0.210 HD
ENDBRANCH  17  18
BRANCH  16  20
ATOM     20  O   UNL     1       8.185  -5.599  27.236  0.00  0.00    -0.386 OA
ATOM     21  H   UNL     1       8.610  -6.349  26.773  0.00  0.00    +0.210 HD
ENDBRANCH  16  20
BRANCH  15  22
ATOM     22  O   UNL     1       6.392  -5.900  25.380  0.00  0.00    -0.386 OA
ATOM     23  H   UNL     1       7.228  -6.317  25.076  0.00  0.00    +0.210 HD
ENDBRANCH  15  22
BRANCH  14  24
ATOM     24  C   UNL     1       5.489  -3.954  23.417  0.00  0.00    +0.190 C 
BRANCH  24  25
ATOM     25  O   UNL     1       4.322  -3.909  24.244  0.00  0.00    -0.392 OA
ATOM     26  H   UNL     1       3.828  -4.732  24.094  0.00  0.00    +0.210 HD
ENDBRANCH  24  25
ENDBRANCH  14  24
ENDBRANCH  11  12
ENDBRANCH   6  11
BRANCH   3  27
ATOM     27  C   UNL     1      11.380   1.566  23.855  0.00  0.00    +0.190 C 
BRANCH  27  28
ATOM     28  O   UNL     1      11.843   0.721  24.890  0.00  0.00    -0.392 OA
ATOM     29  H   UNL     1      12.052   1.275  25.662  0.00  0.00    +0.210 HD
ENDBRANCH  27  28
ENDBRANCH   3  27
BRANCH   1  30
ATOM     30  O   UNL     1       6.862  -0.122  24.628  0.00  0.00    -0.453 OA
BRANCH  30  41
ATOM     31  C   UNL     1       5.602   1.980  24.865  0.00  0.00    +0.181 A 
ATOM     32  O   UNL     1       4.397   2.523  25.383  0.00  0.00    -0.451 OA
ATOM     33  C   UNL     1       3.812   1.961  26.472  0.00  0.00    +0.147 A 
ATOM     34  C   UNL     1       4.055   0.656  26.831  0.00  0.00    +0.109 A 
ATOM     35  C   UNL     1       3.543   0.115  28.000  0.00  0.00    +0.135 A 
ATOM     36  C   UNL     1       2.692   0.889  28.779  0.00  0.00    +0.091 A 
ATOM     37  C   UNL     1       2.367   2.179  28.356  0.00  0.00    +0.124 A 
ATOM     38  C   UNL     1       4.829  -0.115  25.894  0.00  0.00    +0.238 A 
ATOM     39  O   UNL     1       4.674  -1.332  25.846  0.00  0.00    -0.283 OA
ATOM     40  C   UNL     1       2.931   2.731  27.213  0.00  0.00    +0.092 A 
ATOM     41  C   UNL     1       5.833   0.640  25.090  0.00  0.00    +0.214 A 
BRANCH  31  43
ATOM     42  C   UNL     1       6.613   2.922  22.749  0.00  0.00    +0.015 A 
ATOM     43  C   UNL     1       6.301   3.156  24.130  0.00  0.00    +0.025 A 
ATOM     44  C   UNL     1       6.456   4.493  24.517  0.00  0.00    +0.060 A 
ATOM     45  C   UNL     1       6.858   5.496  23.591  0.00  0.00    +0.159 A 
ATOM     46  C   UNL     1       7.125   5.210  22.244  0.00  0.00    +0.158 A 
ATOM     47  C   UNL     1       7.018   3.909  21.826  0.00  0.00    +0.050 A 
BRANCH  46  48
ATOM     48  O   UNL     1       7.443   6.225  21.382  0.00  0.00    -0.503 OA
ATOM     49  H   UNL     1       6.664   6.801  21.267  0.00  0.00    +0.292 HD
ENDBRANCH  46  48
BRANCH  45  50
ATOM     50  O   UNL     1       6.968   6.804  23.977  0.00  0.00    -0.503 OA
ATOM     51  H   UNL     1       6.680   7.333  23.200  0.00  0.00    +0.292 HD
ENDBRANCH  45  50
ENDBRANCH  31  43
BRANCH  37  52
ATOM     52  O   UNL     1       1.483   2.947  29.048  0.00  0.00    -0.507 OA
ATOM     53  H   UNL     1       1.644   2.813  29.998  0.00  0.00    +0.292 HD
ENDBRANCH  37  52
BRANCH  35  54
ATOM     54  O   UNL     1       3.861  -1.141  28.434  0.00  0.00    -0.506 OA
ATOM     55  H   UNL     1       3.907  -1.738  27.653  0.00  0.00    +0.292 HD
ENDBRANCH  35  54
ENDBRANCH  30  41
ENDBRANCH   1  30
TORSDOF 18
ENDMDL
