MODEL 1
REMARK VINA RESULT:      -6.6      0.000      0.000
REMARK  Name = 
REMARK  25 active torsions:
REMARK  status: ('A' for Active; 'I' for Inactive)
REMARK    1  A    between atoms: C_1  and  C_2
REMARK    2  A    between atoms: C_3  and  O_61
REMARK    3  A    between atoms: C_5  and  O_60
REMARK    4  A    between atoms: C_6  and  O_33
REMARK    5  A    between atoms: C_8  and  O_11
REMARK    6  A    between atoms: O_11  and  C_12
REMARK    7  A    between atoms: C_13  and  C_25
REMARK    8  A    between atoms: C_17  and  O_24
REMARK    9  A    between atoms: C_19  and  O_23
REMARK   10  A    between atoms: C_27  and  O_32
REMARK   11  A    between atoms: C_28  and  O_31
REMARK   12  A    between atoms: O_33  and  C_34
REMARK   13  A    between atoms: C_36  and  O_59
REMARK   14  A    between atoms: C_37  and  O_58
REMARK   15  A    between atoms: C_39  and  O_57
REMARK   16  A    between atoms: C_41  and  C_43
REMARK   17  A    between atoms: C_43  and  O_44
REMARK   18  A    between atoms: O_44  and  C_45
REMARK   19  A    between atoms: C_47  and  O_56
REMARK   20  A    between atoms: C_48  and  O_55
REMARK   21  A    between atoms: C_50  and  O_54
REMARK   22  A    between atoms: O_61  and  C_62
REMARK   23  A    between atoms: C_64  and  O_73
REMARK   24  A    between atoms: C_65  and  O_72
REMARK   25  A    between atoms: C_67  and  O_71
REMARK                            x       y       z     vdW  Elec       q    Type
REMARK                         _______ _______ _______ _____ _____    ______ ____
ROOT
ATOM      1  C   UNL     1       6.120  -4.499  27.569  0.00  0.00    +0.041 C 
ATOM      2  C   UNL     1       5.168  -4.031  26.445  0.00  0.00    +0.151 C 
ATOM      3  O   UNL     1       5.490  -2.801  25.769  0.00  0.00    -0.334 OA
ATOM      4  C   UNL     1       5.111  -1.503  26.311  0.00  0.00    +0.340 C 
ATOM      5  C   UNL     1       3.852  -1.436  27.272  0.00  0.00    +0.221 C 
ATOM      6  C   UNL     1       3.759  -2.756  27.998  0.00  0.00    +0.181 C 
ATOM      7  C   UNL     1       3.744  -3.990  26.968  0.00  0.00    +0.181 C 
ENDROOT
BRANCH   6   8
ATOM      8  O   UNL     1       2.765  -2.707  29.036  0.00  0.00    -0.386 OA
ATOM      9  H   UNL     1       2.867  -3.512  29.600  0.00  0.00    +0.210 HD
ENDBRANCH   6   8
BRANCH   5  10
ATOM     10  O   UNL     1       2.560  -0.872  26.933  0.00  0.00    -0.337 OA
BRANCH  10  11
ATOM     11  C   UNL     1       1.859  -0.022  27.842  0.00  0.00    +0.282 C 
ATOM     12  O   UNL     1       1.208   1.060  27.106  0.00  0.00    -0.341 OA
ATOM     13  C   UNL     1       2.093   2.137  26.764  0.00  0.00    +0.178 C 
ATOM     14  C   UNL     1       2.737   2.814  27.985  0.00  0.00    +0.177 C 
ATOM     15  C   UNL     1       3.572   1.826  28.712  0.00  0.00    +0.179 C 
ATOM     16  C   UNL     1       2.661   0.659  29.051  0.00  0.00    +0.201 C 
BRANCH  16  17
ATOM     17  O   UNL     1       3.398   0.019  30.100  0.00  0.00    -0.384 OA
ATOM     18  H   UNL     1       4.134  -0.454  29.659  0.00  0.00    +0.210 HD
ENDBRANCH  16  17
BRANCH  15  19
ATOM     19  O   UNL     1       4.754   1.457  28.040  0.00  0.00    -0.386 OA
ATOM     20  H   UNL     1       5.152   2.304  27.753  0.00  0.00    +0.210 HD
ENDBRANCH  15  19
BRANCH  14  21
ATOM     21  O   UNL     1       1.845   3.156  29.028  0.00  0.00    -0.386 OA
ATOM     22  H   UNL     1       1.680   2.371  29.584  0.00  0.00    +0.210 HD
ENDBRANCH  14  21
BRANCH  13  23
ATOM     23  C   UNL     1       1.411   3.134  25.806  0.00  0.00    +0.197 C 
BRANCH  23  24
ATOM     24  O   UNL     1       1.983   3.343  24.518  0.00  0.00    -0.346 OA
BRANCH  24  25
ATOM     25  C   UNL     1       2.114   4.699  24.048  0.00  0.00    +0.281 C 
ATOM     26  O   UNL     1       1.221   5.009  22.988  0.00  0.00    -0.346 OA
ATOM     27  C   UNL     1       1.223   3.981  21.974  0.00  0.00    +0.197 C 
ATOM     28  C   UNL     1       2.573   3.850  21.297  0.00  0.00    +0.171 C 
ATOM     29  C   UNL     1       3.715   3.825  22.327  0.00  0.00    +0.178 C 
ATOM     30  C   UNL     1       3.507   4.892  23.425  0.00  0.00    +0.201 C 
BRANCH  30  31
ATOM     31  O   UNL     1       4.525   4.829  24.420  0.00  0.00    -0.384 OA
ATOM     32  H   UNL     1       4.684   5.754  24.694  0.00  0.00    +0.210 HD
ENDBRANCH  30  31
BRANCH  29  33
ATOM     33  O   UNL     1       3.835   2.514  22.910  0.00  0.00    -0.386 OA
ATOM     34  H   UNL     1       3.361   2.534  23.771  0.00  0.00    +0.210 HD
ENDBRANCH  29  33
BRANCH  28  35
ATOM     35  O   UNL     1       2.720   4.975  20.426  0.00  0.00    -0.387 OA
ATOM     36  H   UNL     1       3.285   4.688  19.685  0.00  0.00    +0.210 HD
ENDBRANCH  28  35
ENDBRANCH  24  25
ENDBRANCH  23  24
ENDBRANCH  13  23
ENDBRANCH  10  11
ENDBRANCH   5  10
BRANCH   7  37
ATOM     37  O   UNL     1       2.826  -3.840  25.848  0.00  0.00    -0.340 OA
BRANCH  37  38
ATOM     38  C   UNL     1       2.184  -4.919  25.132  0.00  0.00    +0.282 C 
ATOM     39  O   UNL     1       1.703  -5.944  26.040  0.00  0.00    -0.346 OA
ATOM     40  C   UNL     1       2.489  -7.113  26.325  0.00  0.00    +0.197 C 
ATOM     41  C   UNL     1       3.278  -7.752  25.172  0.00  0.00    +0.171 C 
ATOM     42  C   UNL     1       3.801  -6.770  24.128  0.00  0.00    +0.178 C 
ATOM     43  C   UNL     1       2.856  -5.576  23.898  0.00  0.00    +0.201 C 
BRANCH  43  44
ATOM     44  O   UNL     1       3.429  -4.641  22.985  0.00  0.00    -0.384 OA
ATOM     45  H   UNL     1       2.806  -4.583  22.235  0.00  0.00    +0.210 HD
ENDBRANCH  43  44
BRANCH  42  46
ATOM     46  O   UNL     1       5.174  -6.439  24.338  0.00  0.00    -0.386 OA
ATOM     47  H   UNL     1       5.428  -5.792  23.651  0.00  0.00    +0.210 HD
ENDBRANCH  42  46
BRANCH  41  48
ATOM     48  O   UNL     1       2.393  -8.673  24.506  0.00  0.00    -0.387 OA
ATOM     49  H   UNL     1       2.286  -9.448  25.088  0.00  0.00    +0.210 HD
ENDBRANCH  41  48
ENDBRANCH  37  38
ENDBRANCH   7  37
BRANCH   4  50
ATOM     50  O   UNL     1       5.014  -0.548  25.221  0.00  0.00    -0.453 OA
BRANCH  50  51
ATOM     51  C   UNL     1       6.161   0.081  24.727  0.00  0.00    +0.214 A 
ATOM     52  C   UNL     1       6.386   1.568  24.952  0.00  0.00    +0.238 A 
ATOM     53  O   UNL     1       5.560   2.303  25.517  0.00  0.00    -0.283 OA
ATOM     54  C   UNL     1       7.626   2.187  24.479  0.00  0.00    +0.109 A 
ATOM     55  C   UNL     1       8.500   1.406  23.725  0.00  0.00    +0.147 A 
ATOM     56  C   UNL     1       9.670   1.941  23.240  0.00  0.00    +0.092 A 
ATOM     57  C   UNL     1      10.009   3.263  23.517  0.00  0.00    +0.124 A 
ATOM     58  C   UNL     1       9.173   4.063  24.275  0.00  0.00    +0.091 A 
ATOM     59  O   UNL     1       8.203   0.107  23.443  0.00  0.00    -0.451 OA
ATOM     60  C   UNL     1       7.962   3.534  24.748  0.00  0.00    +0.135 A 
ATOM     61  C   UNL     1       7.077  -0.556  23.943  0.00  0.00    +0.181 A 
BRANCH  61  62
ATOM     62  C   UNL     1       7.103  -1.996  23.420  0.00  0.00    +0.025 A 
ATOM     63  C   UNL     1       8.052  -2.888  24.008  0.00  0.00    +0.015 A 
ATOM     64  C   UNL     1       8.211  -4.226  23.621  0.00  0.00    +0.050 A 
ATOM     65  C   UNL     1       7.410  -4.721  22.619  0.00  0.00    +0.158 A 
ATOM     66  C   UNL     1       6.471  -3.895  22.008  0.00  0.00    +0.159 A 
ATOM     67  C   UNL     1       6.302  -2.544  22.400  0.00  0.00    +0.060 A 
BRANCH  66  68
ATOM     68  O   UNL     1       5.729  -4.471  21.006  0.00  0.00    -0.503 OA
ATOM     69  H   UNL     1       6.334  -4.921  20.392  0.00  0.00    +0.292 HD
ENDBRANCH  66  68
BRANCH  65  70
ATOM     70  O   UNL     1       7.553  -6.025  22.241  0.00  0.00    -0.503 OA
ATOM     71  H   UNL     1       6.808  -6.190  21.632  0.00  0.00    +0.292 HD
ENDBRANCH  65  70
ENDBRANCH  61  62
BRANCH  60  72
ATOM     72  O   UNL     1       7.166   4.396  25.444  0.00  0.00    -0.506 OA
ATOM     73  H   UNL     1       7.768   4.985  25.973  0.00  0.00    +0.292 HD
ENDBRANCH  60  72
BRANCH  57  74
ATOM     74  O   UNL     1      11.163   3.822  23.045  0.00  0.00    -0.507 OA
ATOM     75  H   UNL     1      11.041   4.778  22.923  0.00  0.00    +0.292 HD
ENDBRANCH  57  74
ENDBRANCH  50  51
ENDBRANCH   4  50
TORSDOF 24
ENDMDL
MODEL 2
REMARK VINA RESULT:      -6.6      2.250      8.037
REMARK  Name = 
REMARK  25 active torsions:
REMARK  status: ('A' for Active; 'I' for Inactive)
REMARK    1  A    between atoms: C_1  and  C_2
REMARK    2  A    between atoms: C_3  and  O_61
REMARK    3  A    between atoms: C_5  and  O_60
REMARK    4  A    between atoms: C_6  and  O_33
REMARK    5  A    between atoms: C_8  and  O_11
REMARK    6  A    between atoms: O_11  and  C_12
REMARK    7  A    between atoms: C_13  and  C_25
REMARK    8  A    between atoms: C_17  and  O_24
REMARK    9  A    between atoms: C_19  and  O_23
REMARK   10  A    between atoms: C_27  and  O_32
REMARK   11  A    between atoms: C_28  and  O_31
REMARK   12  A    between atoms: O_33  and  C_34
REMARK   13  A    between atoms: C_36  and  O_59
REMARK   14  A    between atoms: C_37  and  O_58
REMARK   15  A    between atoms: C_39  and  O_57
REMARK   16  A    between atoms: C_41  and  C_43
REMARK   17  A    between atoms: C_43  and  O_44
REMARK   18  A    between atoms: O_44  and  C_45
REMARK   19  A    between atoms: C_47  and  O_56
REMARK   20  A    between atoms: C_48  and  O_55
REMARK   21  A    between atoms: C_50  and  O_54
REMARK   22  A    between atoms: O_61  and  C_62
REMARK   23  A    between atoms: C_64  and  O_73
REMARK   24  A    between atoms: C_65  and  O_72
REMARK   25  A    between atoms: C_67  and  O_71
REMARK                            x       y       z     vdW  Elec       q    Type
REMARK                         _______ _______ _______ _____ _____    ______ ____
ROOT
ATOM      1  C   UNL     1       5.169   1.196  30.331  0.00  0.00    +0.041 C 
ATOM      2  C   UNL     1       4.463   1.177  28.955  0.00  0.00    +0.151 C 
ATOM      3  O   UNL     1       4.119  -0.106  28.402  0.00  0.00    -0.334 OA
ATOM      4  C   UNL     1       5.083  -0.906  27.657  0.00  0.00    +0.340 C 
ATOM      5  C   UNL     1       6.272  -0.152  26.927  0.00  0.00    +0.221 C 
ATOM      6  C   UNL     1       6.586   1.089  27.727  0.00  0.00    +0.181 C 
ATOM      7  C   UNL     1       5.271   1.985  27.958  0.00  0.00    +0.181 C 
ENDROOT
BRANCH   6   8
ATOM      8  O   UNL     1       7.783   1.725  27.248  0.00  0.00    -0.386 OA
ATOM      9  H   UNL     1       8.375   1.028  26.873  0.00  0.00    +0.210 HD
ENDBRANCH   6   8
BRANCH   5  10
ATOM     10  O   UNL     1       6.399   0.038  25.495  0.00  0.00    -0.337 OA
BRANCH  10  11
ATOM     11  C   UNL     1       7.462  -0.568  24.758  0.00  0.00    +0.282 C 
ATOM     12  O   UNL     1       8.663   0.260  24.851  0.00  0.00    -0.341 OA
ATOM     13  C   UNL     1       8.662   1.379  23.952  0.00  0.00    +0.178 C 
ATOM     14  C   UNL     1       8.567   0.976  22.471  0.00  0.00    +0.177 C 
ATOM     15  C   UNL     1       7.283   0.272  22.234  0.00  0.00    +0.179 C 
ATOM     16  C   UNL     1       7.247  -0.897  23.205  0.00  0.00    +0.201 C 
BRANCH  16  17
ATOM     17  O   UNL     1       6.253  -1.735  22.603  0.00  0.00    -0.384 OA
ATOM     18  H   UNL     1       5.865  -2.257  23.336  0.00  0.00    +0.210 HD
ENDBRANCH  16  17
BRANCH  15  19
ATOM     19  O   UNL     1       6.145   1.101  22.290  0.00  0.00    -0.386 OA
ATOM     20  H   UNL     1       5.737   0.905  23.158  0.00  0.00    +0.210 HD
ENDBRANCH  15  19
BRANCH  14  21
ATOM     21  O   UNL     1       9.456  -0.046  22.064  0.00  0.00    -0.386 OA
ATOM     22  H   UNL     1       9.138  -0.438  21.229  0.00  0.00    +0.210 HD
ENDBRANCH  14  21
BRANCH  13  23
ATOM     23  C   UNL     1       9.837   2.331  24.248  0.00  0.00    +0.197 C 
BRANCH  23  24
ATOM     24  O   UNL     1       9.635   3.734  24.093  0.00  0.00    -0.346 OA
BRANCH  24  25
ATOM     25  C   UNL     1       8.514   4.334  24.771  0.00  0.00    +0.281 C 
ATOM     26  O   UNL     1       7.315   4.287  24.012  0.00  0.00    -0.346 OA
ATOM     27  C   UNL     1       7.531   4.706  22.647  0.00  0.00    +0.197 C 
ATOM     28  C   UNL     1       7.971   6.153  22.559  0.00  0.00    +0.171 C 
ATOM     29  C   UNL     1       9.081   6.465  23.576  0.00  0.00    +0.178 C 
ATOM     30  C   UNL     1       8.774   5.839  24.955  0.00  0.00    +0.201 C 
BRANCH  30  31
ATOM     31  O   UNL     1       9.831   6.065  25.884  0.00  0.00    -0.384 OA
ATOM     32  H   UNL     1      10.242   6.910  25.616  0.00  0.00    +0.210 HD
ENDBRANCH  30  31
BRANCH  29  33
ATOM     33  O   UNL     1      10.355   6.007  23.084  0.00  0.00    -0.386 OA
ATOM     34  H   UNL     1      10.609   5.223  23.620  0.00  0.00    +0.210 HD
ENDBRANCH  29  33
BRANCH  28  35
ATOM     35  O   UNL     1       6.820   6.961  22.823  0.00  0.00    -0.387 OA
ATOM     36  H   UNL     1       6.953   7.806  22.356  0.00  0.00    +0.210 HD
ENDBRANCH  28  35
ENDBRANCH  24  25
ENDBRANCH  23  24
ENDBRANCH  13  23
ENDBRANCH  10  11
ENDBRANCH   5  10
BRANCH   7  37
ATOM     37  O   UNL     1       4.470   2.212  26.763  0.00  0.00    -0.340 OA
BRANCH  37  38
ATOM     38  C   UNL     1       4.476   3.412  25.958  0.00  0.00    +0.282 C 
ATOM     39  O   UNL     1       4.009   4.560  26.714  0.00  0.00    -0.346 OA
ATOM     40  C   UNL     1       2.638   4.985  26.650  0.00  0.00    +0.197 C 
ATOM     41  C   UNL     1       1.924   4.917  25.290  0.00  0.00    +0.171 C 
ATOM     42  C   UNL     1       2.365   3.768  24.388  0.00  0.00    +0.178 C 
ATOM     43  C   UNL     1       3.860   3.428  24.534  0.00  0.00    +0.201 C 
BRANCH  43  44
ATOM     44  O   UNL     1       4.204   2.292  23.742  0.00  0.00    -0.384 OA
ATOM     45  H   UNL     1       5.140   2.101  23.940  0.00  0.00    +0.210 HD
ENDBRANCH  43  44
BRANCH  42  46
ATOM     46  O   UNL     1       1.470   2.658  24.450  0.00  0.00    -0.386 OA
ATOM     47  H   UNL     1       1.263   2.397  23.531  0.00  0.00    +0.210 HD
ENDBRANCH  42  46
BRANCH  41  48
ATOM     48  O   UNL     1       2.199   6.151  24.600  0.00  0.00    -0.387 OA
ATOM     49  H   UNL     1       1.688   6.142  23.770  0.00  0.00    +0.210 HD
ENDBRANCH  41  48
ENDBRANCH  37  38
ENDBRANCH   7  37
BRANCH   4  50
ATOM     50  O   UNL     1       4.365  -1.788  26.755  0.00  0.00    -0.453 OA
BRANCH  50  51
ATOM     51  C   UNL     1       4.072  -3.102  27.133  0.00  0.00    +0.214 A 
ATOM     52  C   UNL     1       2.859  -3.407  27.999  0.00  0.00    +0.238 A 
ATOM     53  O   UNL     1       2.115  -2.528  28.460  0.00  0.00    -0.283 OA
ATOM     54  C   UNL     1       2.541  -4.799  28.326  0.00  0.00    +0.109 A 
ATOM     55  C   UNL     1       3.443  -5.785  27.930  0.00  0.00    +0.147 A 
ATOM     56  C   UNL     1       3.204  -7.106  28.227  0.00  0.00    +0.092 A 
ATOM     57  C   UNL     1       2.045  -7.479  28.905  0.00  0.00    +0.124 A 
ATOM     58  C   UNL     1       1.121  -6.528  29.299  0.00  0.00    +0.091 A 
ATOM     59  O   UNL     1       4.581  -5.458  27.258  0.00  0.00    -0.451 OA
ATOM     60  C   UNL     1       1.373  -5.174  29.028  0.00  0.00    +0.135 A 
ATOM     61  C   UNL     1       4.888  -4.157  26.845  0.00  0.00    +0.181 A 
BRANCH  61  62
ATOM     62  C   UNL     1       6.233  -4.196  26.111  0.00  0.00    +0.025 A 
ATOM     63  C   UNL     1       7.388  -3.777  26.841  0.00  0.00    +0.015 A 
ATOM     64  C   UNL     1       8.681  -3.735  26.301  0.00  0.00    +0.050 A 
ATOM     65  C   UNL     1       8.861  -4.122  24.993  0.00  0.00    +0.158 A 
ATOM     66  C   UNL     1       7.770  -4.535  24.234  0.00  0.00    +0.159 A 
ATOM     67  C   UNL     1       6.462  -4.584  24.778  0.00  0.00    +0.060 A 
BRANCH  66  68
ATOM     68  O   UNL     1       8.042  -4.884  22.935  0.00  0.00    -0.503 OA
ATOM     69  H   UNL     1       7.315  -4.570  22.370  0.00  0.00    +0.292 HD
ENDBRANCH  66  68
BRANCH  65  70
ATOM     70  O   UNL     1      10.118  -4.091  24.461  0.00  0.00    -0.503 OA
ATOM     71  H   UNL     1      10.408  -3.164  24.566  0.00  0.00    +0.292 HD
ENDBRANCH  65  70
ENDBRANCH  61  62
BRANCH  60  72
ATOM     72  O   UNL     1       0.443  -4.290  29.492  0.00  0.00    -0.506 OA
ATOM     73  H   UNL     1      -0.347  -4.822  29.779  0.00  0.00    +0.292 HD
ENDBRANCH  60  72
BRANCH  57  74
ATOM     74  O   UNL     1       1.784  -8.783  29.216  0.00  0.00    -0.507 OA
ATOM     75  H   UNL     1       1.864  -8.916  30.175  0.00  0.00    +0.292 HD
ENDBRANCH  57  74
ENDBRANCH  50  51
ENDBRANCH   4  50
TORSDOF 24
ENDMDL
MODEL 3
REMARK VINA RESULT:      -6.2      2.334      3.668
REMARK  Name = 
REMARK  25 active torsions:
REMARK  status: ('A' for Active; 'I' for Inactive)
REMARK    1  A    between atoms: C_1  and  C_2
REMARK    2  A    between atoms: C_3  and  O_61
REMARK    3  A    between atoms: C_5  and  O_60
REMARK    4  A    between atoms: C_6  and  O_33
REMARK    5  A    between atoms: C_8  and  O_11
REMARK    6  A    between atoms: O_11  and  C_12
REMARK    7  A    between atoms: C_13  and  C_25
REMARK    8  A    between atoms: C_17  and  O_24
REMARK    9  A    between atoms: C_19  and  O_23
REMARK   10  A    between atoms: C_27  and  O_32
REMARK   11  A    between atoms: C_28  and  O_31
REMARK   12  A    between atoms: O_33  and  C_34
REMARK   13  A    between atoms: C_36  and  O_59
REMARK   14  A    between atoms: C_37  and  O_58
REMARK   15  A    between atoms: C_39  and  O_57
REMARK   16  A    between atoms: C_41  and  C_43
REMARK   17  A    between atoms: C_43  and  O_44
REMARK   18  A    between atoms: O_44  and  C_45
REMARK   19  A    between atoms: C_47  and  O_56
REMARK   20  A    between atoms: C_48  and  O_55
REMARK   21  A    between atoms: C_50  and  O_54
REMARK   22  A    between atoms: O_61  and  C_62
REMARK   23  A    between atoms: C_64  and  O_73
REMARK   24  A    between atoms: C_65  and  O_72
REMARK   25  A    between atoms: C_67  and  O_71
REMARK                            x       y       z     vdW  Elec       q    Type
REMARK                         _______ _______ _______ _____ _____    ______ ____
ROOT
ATOM      1  C   UNL     1       6.037  -5.772  26.652  0.00  0.00    +0.041 C 
ATOM      2  C   UNL     1       4.906  -5.066  25.870  0.00  0.00    +0.151 C 
ATOM      3  O   UNL     1       5.234  -3.841  25.187  0.00  0.00    -0.334 OA
ATOM      4  C   UNL     1       5.245  -2.556  25.874  0.00  0.00    +0.340 C 
ATOM      5  C   UNL     1       4.329  -2.389  27.157  0.00  0.00    +0.221 C 
ATOM      6  C   UNL     1       4.216  -3.741  27.818  0.00  0.00    +0.181 C 
ATOM      7  C   UNL     1       3.710  -4.860  26.780  0.00  0.00    +0.181 C 
ENDROOT
BRANCH   6   8
ATOM      8  O   UNL     1       3.570  -3.640  29.098  0.00  0.00    -0.386 OA
ATOM      9  H   UNL     1       3.037  -4.459  29.242  0.00  0.00    +0.210 HD
ENDBRANCH   6   8
BRANCH   5  10
ATOM     10  O   UNL     1       3.109  -1.609  27.228  0.00  0.00    -0.337 OA
BRANCH  10  11
ATOM     11  C   UNL     1       3.116  -0.199  27.003  0.00  0.00    +0.282 C 
ATOM     12  O   UNL     1       4.117   0.434  27.859  0.00  0.00    -0.341 OA
ATOM     13  C   UNL     1       3.674   0.639  29.209  0.00  0.00    +0.178 C 
ATOM     14  C   UNL     1       2.431   1.538  29.316  0.00  0.00    +0.177 C 
ATOM     15  C   UNL     1       1.294   0.890  28.617  0.00  0.00    +0.179 C 
ATOM     16  C   UNL     1       1.757   0.629  27.193  0.00  0.00    +0.201 C 
BRANCH  16  17
ATOM     17  O   UNL     1       0.507   0.453  26.516  0.00  0.00    -0.384 OA
ATOM     18  H   UNL     1      -0.049   1.216  26.780  0.00  0.00    +0.210 HD
ENDBRANCH  16  17
BRANCH  15  19
ATOM     19  O   UNL     1       0.778  -0.246  29.272  0.00  0.00    -0.386 OA
ATOM     20  H   UNL     1       1.409  -0.421  29.998  0.00  0.00    +0.210 HD
ENDBRANCH  15  19
BRANCH  14  21
ATOM     21  O   UNL     1       2.488   2.741  28.575  0.00  0.00    -0.386 OA
ATOM     22  H   UNL     1       3.158   3.332  28.968  0.00  0.00    +0.210 HD
ENDBRANCH  14  21
BRANCH  13  23
ATOM     23  C   UNL     1       4.836   1.100  30.112  0.00  0.00    +0.197 C 
BRANCH  23  24
ATOM     24  O   UNL     1       5.367   2.409  29.926  0.00  0.00    -0.346 OA
BRANCH  24  25
ATOM     25  C   UNL     1       6.511   2.559  29.063  0.00  0.00    +0.281 C 
ATOM     26  O   UNL     1       7.630   3.137  29.718  0.00  0.00    -0.346 OA
ATOM     27  C   UNL     1       7.255   4.301  30.485  0.00  0.00    +0.197 C 
ATOM     28  C   UNL     1       6.723   5.415  29.606  0.00  0.00    +0.171 C 
ATOM     29  C   UNL     1       5.701   4.884  28.586  0.00  0.00    +0.178 C 
ATOM     30  C   UNL     1       6.180   3.563  27.945  0.00  0.00    +0.201 C 
BRANCH  30  31
ATOM     31  O   UNL     1       5.208   3.028  27.050  0.00  0.00    -0.384 OA
ATOM     32  H   UNL     1       5.015   3.743  26.412  0.00  0.00    +0.210 HD
ENDBRANCH  30  31
BRANCH  29  33
ATOM     33  O   UNL     1       4.415   4.708  29.210  0.00  0.00    -0.386 OA
ATOM     34  H   UNL     1       4.007   3.907  28.814  0.00  0.00    +0.210 HD
ENDBRANCH  29  33
BRANCH  28  35
ATOM     35  O   UNL     1       7.844   5.990  28.926  0.00  0.00    -0.387 OA
ATOM     36  H   UNL     1       7.907   6.917  29.218  0.00  0.00    +0.210 HD
ENDBRANCH  28  35
ENDBRANCH  24  25
ENDBRANCH  23  24
ENDBRANCH  13  23
ENDBRANCH  10  11
ENDBRANCH   5  10
BRANCH   7  37
ATOM     37  O   UNL     1       2.558  -4.471  25.978  0.00  0.00    -0.340 OA
BRANCH  37  38
ATOM     38  C   UNL     1       1.595  -5.375  25.391  0.00  0.00    +0.282 C 
ATOM     39  O   UNL     1       1.085  -6.315  26.372  0.00  0.00    -0.346 OA
ATOM     40  C   UNL     1       1.656  -7.627  26.511  0.00  0.00    +0.197 C 
ATOM     41  C   UNL     1       2.082  -8.368  25.234  0.00  0.00    +0.171 C 
ATOM     42  C   UNL     1       2.600  -7.473  24.112  0.00  0.00    +0.178 C 
ATOM     43  C   UNL     1       1.890  -6.107  24.056  0.00  0.00    +0.201 C 
BRANCH  43  44
ATOM     44  O   UNL     1       2.468  -5.274  23.053  0.00  0.00    -0.384 OA
ATOM     45  H   UNL     1       1.780  -4.623  22.816  0.00  0.00    +0.210 HD
ENDBRANCH  43  44
BRANCH  42  46
ATOM     46  O   UNL     1       4.026  -7.430  24.069  0.00  0.00    -0.386 OA
ATOM     47  H   UNL     1       4.279  -6.854  23.321  0.00  0.00    +0.210 HD
ENDBRANCH  42  46
BRANCH  41  48
ATOM     48  O   UNL     1       0.926  -9.071  24.741  0.00  0.00    -0.387 OA
ATOM     49  H   UNL     1       0.199  -8.919  25.372  0.00  0.00    +0.210 HD
ENDBRANCH  41  48
ENDBRANCH  37  38
ENDBRANCH   7  37
BRANCH   4  50
ATOM     50  O   UNL     1       5.016  -1.502  24.902  0.00  0.00    -0.453 OA
BRANCH  50  51
ATOM     51  C   UNL     1       6.093  -0.894  24.250  0.00  0.00    +0.214 A 
ATOM     52  C   UNL     1       6.304   0.610  24.342  0.00  0.00    +0.238 A 
ATOM     53  O   UNL     1       5.521   1.372  24.932  0.00  0.00    -0.283 OA
ATOM     54  C   UNL     1       7.477   1.212  23.703  0.00  0.00    +0.109 A 
ATOM     55  C   UNL     1       8.290   0.390  22.925  0.00  0.00    +0.147 A 
ATOM     56  C   UNL     1       9.393   0.906  22.286  0.00  0.00    +0.092 A 
ATOM     57  C   UNL     1       9.727   2.251  22.430  0.00  0.00    +0.124 A 
ATOM     58  C   UNL     1       8.951   3.091  23.208  0.00  0.00    +0.091 A 
ATOM     59  O   UNL     1       7.997  -0.931  22.769  0.00  0.00    -0.451 OA
ATOM     60  C   UNL     1       7.806   2.580  23.837  0.00  0.00    +0.135 A 
ATOM     61  C   UNL     1       6.942  -1.572  23.427  0.00  0.00    +0.181 A 
BRANCH  61  62
ATOM     62  C   UNL     1       6.950  -3.047  23.011  0.00  0.00    +0.025 A 
ATOM     63  C   UNL     1       5.893  -3.491  22.158  0.00  0.00    +0.015 A 
ATOM     64  C   UNL     1       5.750  -4.812  21.712  0.00  0.00    +0.050 A 
ATOM     65  C   UNL     1       6.679  -5.744  22.110  0.00  0.00    +0.158 A 
ATOM     66  C   UNL     1       7.728  -5.369  22.945  0.00  0.00    +0.159 A 
ATOM     67  C   UNL     1       7.879  -4.033  23.393  0.00  0.00    +0.060 A 
BRANCH  66  68
ATOM     68  O   UNL     1       8.595  -6.370  23.304  0.00  0.00    -0.503 OA
ATOM     69  H   UNL     1       9.207  -6.530  22.566  0.00  0.00    +0.292 HD
ENDBRANCH  66  68
BRANCH  65  70
ATOM     70  O   UNL     1       6.552  -7.032  21.675  0.00  0.00    -0.503 OA
ATOM     71  H   UNL     1       6.073  -6.960  20.827  0.00  0.00    +0.292 HD
ENDBRANCH  65  70
ENDBRANCH  61  62
BRANCH  60  72
ATOM     72  O   UNL     1       7.063   3.480  24.544  0.00  0.00    -0.506 OA
ATOM     73  H   UNL     1       6.350   3.811  23.936  0.00  0.00    +0.292 HD
ENDBRANCH  60  72
BRANCH  57  74
ATOM     74  O   UNL     1      10.815   2.791  21.805  0.00  0.00    -0.507 OA
ATOM     75  H   UNL     1      10.544   3.558  21.274  0.00  0.00    +0.292 HD
ENDBRANCH  57  74
ENDBRANCH  50  51
ENDBRANCH   4  50
TORSDOF 24
ENDMDL
MODEL 4
REMARK VINA RESULT:      -6.1      1.375      2.028
REMARK  Name = 
REMARK  25 active torsions:
REMARK  status: ('A' for Active; 'I' for Inactive)
REMARK    1  A    between atoms: C_1  and  C_2
REMARK    2  A    between atoms: C_3  and  O_61
REMARK    3  A    between atoms: C_5  and  O_60
REMARK    4  A    between atoms: C_6  and  O_33
REMARK    5  A    between atoms: C_8  and  O_11
REMARK    6  A    between atoms: O_11  and  C_12
REMARK    7  A    between atoms: C_13  and  C_25
REMARK    8  A    between atoms: C_17  and  O_24
REMARK    9  A    between atoms: C_19  and  O_23
REMARK   10  A    between atoms: C_27  and  O_32
REMARK   11  A    between atoms: C_28  and  O_31
REMARK   12  A    between atoms: O_33  and  C_34
REMARK   13  A    between atoms: C_36  and  O_59
REMARK   14  A    between atoms: C_37  and  O_58
REMARK   15  A    between atoms: C_39  and  O_57
REMARK   16  A    between atoms: C_41  and  C_43
REMARK   17  A    between atoms: C_43  and  O_44
REMARK   18  A    between atoms: O_44  and  C_45
REMARK   19  A    between atoms: C_47  and  O_56
REMARK   20  A    between atoms: C_48  and  O_55
REMARK   21  A    between atoms: C_50  and  O_54
REMARK   22  A    between atoms: O_61  and  C_62
REMARK   23  A    between atoms: C_64  and  O_73
REMARK   24  A    between atoms: C_65  and  O_72
REMARK   25  A    between atoms: C_67  and  O_71
REMARK                            x       y       z     vdW  Elec       q    Type
REMARK                         _______ _______ _______ _____ _____    ______ ____
ROOT
ATOM      1  C   UNL     1       6.693  -5.836  26.943  0.00  0.00    +0.041 C 
ATOM      2  C   UNL     1       5.485  -5.112  26.303  0.00  0.00    +0.151 C 
ATOM      3  O   UNL     1       5.734  -3.856  25.645  0.00  0.00    -0.334 OA
ATOM      4  C   UNL     1       5.798  -2.601  26.383  0.00  0.00    +0.340 C 
ATOM      5  C   UNL     1       5.007  -2.501  27.754  0.00  0.00    +0.221 C 
ATOM      6  C   UNL     1       4.971  -3.881  28.363  0.00  0.00    +0.181 C 
ATOM      7  C   UNL     1       4.379  -4.962  27.331  0.00  0.00    +0.181 C 
ENDROOT
BRANCH   6   8
ATOM      8  O   UNL     1       4.449  -3.843  29.702  0.00  0.00    -0.386 OA
ATOM      9  H   UNL     1       4.078  -4.733  29.915  0.00  0.00    +0.210 HD
ENDBRANCH   6   8
BRANCH   5  10
ATOM     10  O   UNL     1       3.791  -1.742  27.973  0.00  0.00    -0.337 OA
BRANCH  10  11
ATOM     11  C   UNL     1       2.964  -1.334  26.883  0.00  0.00    +0.282 C 
ATOM     12  O   UNL     1       3.228   0.066  26.558  0.00  0.00    -0.341 OA
ATOM     13  C   UNL     1       2.561   0.995  27.426  0.00  0.00    +0.178 C 
ATOM     14  C   UNL     1       1.029   0.861  27.407  0.00  0.00    +0.177 C 
ATOM     15  C   UNL     1       0.647  -0.487  27.894  0.00  0.00    +0.179 C 
ATOM     16  C   UNL     1       1.374  -1.486  27.010  0.00  0.00    +0.201 C 
BRANCH  16  17
ATOM     17  O   UNL     1       0.610  -2.676  27.241  0.00  0.00    -0.384 OA
ATOM     18  H   UNL     1       0.421  -3.048  26.354  0.00  0.00    +0.210 HD
ENDBRANCH  16  17
BRANCH  15  19
ATOM     19  O   UNL     1       0.848  -0.686  29.274  0.00  0.00    -0.386 OA
ATOM     20  H   UNL     1       1.693  -1.175  29.334  0.00  0.00    +0.210 HD
ENDBRANCH  15  19
BRANCH  14  21
ATOM     21  O   UNL     1       0.444   0.805  26.121  0.00  0.00    -0.386 OA
ATOM     22  H   UNL     1       0.086   1.682  25.889  0.00  0.00    +0.210 HD
ENDBRANCH  14  21
BRANCH  13  23
ATOM     23  C   UNL     1       3.049   2.436  27.179  0.00  0.00    +0.197 C 
BRANCH  23  24
ATOM     24  O   UNL     1       3.447   2.804  25.861  0.00  0.00    -0.346 OA
BRANCH  24  25
ATOM     25  C   UNL     1       3.203   4.158  25.434  0.00  0.00    +0.281 C 
ATOM     26  O   UNL     1       1.906   4.345  24.889  0.00  0.00    -0.346 OA
ATOM     27  C   UNL     1       1.574   3.309  23.939  0.00  0.00    +0.197 C 
ATOM     28  C   UNL     1       2.491   3.328  22.732  0.00  0.00    +0.171 C 
ATOM     29  C   UNL     1       3.966   3.454  23.151  0.00  0.00    +0.178 C 
ATOM     30  C   UNL     1       4.145   4.506  24.269  0.00  0.00    +0.201 C 
BRANCH  30  31
ATOM     31  O   UNL     1       5.498   4.579  24.711  0.00  0.00    -0.384 OA
ATOM     32  H   UNL     1       6.034   4.194  23.989  0.00  0.00    +0.210 HD
ENDBRANCH  30  31
BRANCH  29  33
ATOM     33  O   UNL     1       4.478   2.176  23.570  0.00  0.00    -0.386 OA
ATOM     34  H   UNL     1       4.381   1.560  22.810  0.00  0.00    +0.210 HD
ENDBRANCH  29  33
BRANCH  28  35
ATOM     35  O   UNL     1       2.109   4.450  21.929  0.00  0.00    -0.387 OA
ATOM     36  H   UNL     1       1.720   4.093  21.111  0.00  0.00    +0.210 HD
ENDBRANCH  28  35
ENDBRANCH  24  25
ENDBRANCH  23  24
ENDBRANCH  13  23
ENDBRANCH  10  11
ENDBRANCH   5  10
BRANCH   7  37
ATOM     37  O   UNL     1       3.153  -4.556  26.658  0.00  0.00    -0.340 OA
BRANCH  37  38
ATOM     38  C   UNL     1       2.081  -5.437  26.253  0.00  0.00    +0.282 C 
ATOM     39  O   UNL     1       2.439  -6.831  26.447  0.00  0.00    -0.346 OA
ATOM     40  C   UNL     1       2.976  -7.617  25.370  0.00  0.00    +0.197 C 
ATOM     41  C   UNL     1       2.394  -7.407  23.963  0.00  0.00    +0.171 C 
ATOM     42  C   UNL     1       1.943  -5.982  23.658  0.00  0.00    +0.178 C 
ATOM     43  C   UNL     1       1.365  -5.257  24.889  0.00  0.00    +0.201 C 
BRANCH  43  44
ATOM     44  O   UNL     1       1.043  -3.903  24.578  0.00  0.00    -0.384 OA
ATOM     45  H   UNL     1       1.535  -3.356  25.221  0.00  0.00    +0.210 HD
ENDBRANCH  43  44
BRANCH  42  46
ATOM     46  O   UNL     1       2.920  -5.253  22.915  0.00  0.00    -0.386 OA
ATOM     47  H   UNL     1       2.489  -4.442  22.580  0.00  0.00    +0.210 HD
ENDBRANCH  42  46
BRANCH  41  48
ATOM     48  O   UNL     1       1.247  -8.269  23.841  0.00  0.00    -0.387 OA
ATOM     49  H   UNL     1       0.717  -7.946  23.090  0.00  0.00    +0.210 HD
ENDBRANCH  41  48
ENDBRANCH  37  38
ENDBRANCH   7  37
BRANCH   4  50
ATOM     50  O   UNL     1       5.467  -1.510  25.483  0.00  0.00    -0.453 OA
BRANCH  50  51
ATOM     51  C   UNL     1       6.476  -0.817  24.809  0.00  0.00    +0.214 A 
ATOM     52  C   UNL     1       6.817   0.617  25.187  0.00  0.00    +0.238 A 
ATOM     53  O   UNL     1       6.196   1.258  26.049  0.00  0.00    -0.283 OA
ATOM     54  C   UNL     1       7.922   1.296  24.507  0.00  0.00    +0.109 A 
ATOM     55  C   UNL     1       8.540   0.637  23.446  0.00  0.00    +0.147 A 
ATOM     56  C   UNL     1       9.570   1.236  22.760  0.00  0.00    +0.092 A 
ATOM     57  C   UNL     1      10.027   2.498  23.133  0.00  0.00    +0.124 A 
ATOM     58  C   UNL     1       9.447   3.174  24.192  0.00  0.00    +0.091 A 
ATOM     59  O   UNL     1       8.124  -0.601  23.060  0.00  0.00    -0.451 OA
ATOM     60  C   UNL     1       8.375   2.583  24.877  0.00  0.00    +0.135 A 
ATOM     61  C   UNL     1       7.134  -1.328  23.729  0.00  0.00    +0.181 A 
BRANCH  61  62
ATOM     62  C   UNL     1       6.962  -2.670  23.009  0.00  0.00    +0.025 A 
ATOM     63  C   UNL     1       5.876  -2.782  22.087  0.00  0.00    +0.015 A 
ATOM     64  C   UNL     1       5.575  -3.949  21.372  0.00  0.00    +0.050 A 
ATOM     65  C   UNL     1       6.368  -5.057  21.557  0.00  0.00    +0.158 A 
ATOM     66  C   UNL     1       7.438  -5.006  22.447  0.00  0.00    +0.159 A 
ATOM     67  C   UNL     1       7.749  -3.827  23.168  0.00  0.00    +0.060 A 
BRANCH  66  68
ATOM     68  O   UNL     1       8.161  -6.165  22.580  0.00  0.00    -0.503 OA
ATOM     69  H   UNL     1       7.789  -6.834  21.981  0.00  0.00    +0.292 HD
ENDBRANCH  66  68
BRANCH  65  70
ATOM     70  O   UNL     1       6.087  -6.196  20.859  0.00  0.00    -0.503 OA
ATOM     71  H   UNL     1       5.594  -6.757  21.488  0.00  0.00    +0.292 HD
ENDBRANCH  65  70
ENDBRANCH  61  62
BRANCH  60  72
ATOM     72  O   UNL     1       7.821   3.331  25.875  0.00  0.00    -0.506 OA
ATOM     73  H   UNL     1       6.848   3.130  25.884  0.00  0.00    +0.292 HD
ENDBRANCH  60  72
BRANCH  57  74
ATOM     74  O   UNL     1      11.046   3.118  22.467  0.00  0.00    -0.507 OA
ATOM     75  H   UNL     1      11.899   2.854  22.852  0.00  0.00    +0.292 HD
ENDBRANCH  57  74
ENDBRANCH  50  51
ENDBRANCH   4  50
TORSDOF 24
ENDMDL
MODEL 5
REMARK VINA RESULT:      -6.0      2.105      8.867
REMARK  Name = 
REMARK  25 active torsions:
REMARK  status: ('A' for Active; 'I' for Inactive)
REMARK    1  A    between atoms: C_1  and  C_2
REMARK    2  A    between atoms: C_3  and  O_61
REMARK    3  A    between atoms: C_5  and  O_60
REMARK    4  A    between atoms: C_6  and  O_33
REMARK    5  A    between atoms: C_8  and  O_11
REMARK    6  A    between atoms: O_11  and  C_12
REMARK    7  A    between atoms: C_13  and  C_25
REMARK    8  A    between atoms: C_17  and  O_24
REMARK    9  A    between atoms: C_19  and  O_23
REMARK   10  A    between atoms: C_27  and  O_32
REMARK   11  A    between atoms: C_28  and  O_31
REMARK   12  A    between atoms: O_33  and  C_34
REMARK   13  A    between atoms: C_36  and  O_59
REMARK   14  A    between atoms: C_37  and  O_58
REMARK   15  A    between atoms: C_39  and  O_57
REMARK   16  A    between atoms: C_41  and  C_43
REMARK   17  A    between atoms: C_43  and  O_44
REMARK   18  A    between atoms: O_44  and  C_45
REMARK   19  A    between atoms: C_47  and  O_56
REMARK   20  A    between atoms: C_48  and  O_55
REMARK   21  A    between atoms: C_50  and  O_54
REMARK   22  A    between atoms: O_61  and  C_62
REMARK   23  A    between atoms: C_64  and  O_73
REMARK   24  A    between atoms: C_65  and  O_72
REMARK   25  A    between atoms: C_67  and  O_71
REMARK                            x       y       z     vdW  Elec       q    Type
REMARK                         _______ _______ _______ _____ _____    ______ ____
ROOT
ATOM      1  C   UNL     1       9.292  -0.688  27.132  0.00  0.00    +0.041 C 
ATOM      2  C   UNL     1       8.533  -0.201  25.876  0.00  0.00    +0.151 C 
ATOM      3  O   UNL     1       7.103  -0.068  25.973  0.00  0.00    -0.334 OA
ATOM      4  C   UNL     1       6.210  -1.204  25.786  0.00  0.00    +0.340 C 
ATOM      5  C   UNL     1       6.718  -2.412  24.892  0.00  0.00    +0.221 C 
ATOM      6  C   UNL     1       8.219  -2.482  25.028  0.00  0.00    +0.181 C 
ATOM      7  C   UNL     1       8.906  -1.069  24.689  0.00  0.00    +0.181 C 
ENDROOT
BRANCH   6   8
ATOM      8  O   UNL     1       8.740  -3.672  24.410  0.00  0.00    -0.386 OA
ATOM      9  H   UNL     1       8.564  -3.619  23.440  0.00  0.00    +0.210 HD
ENDBRANCH   6   8
BRANCH   5  10
ATOM     10  O   UNL     1       6.244  -2.733  23.560  0.00  0.00    -0.337 OA
BRANCH  10  11
ATOM     11  C   UNL     1       5.233  -3.721  23.350  0.00  0.00    +0.282 C 
ATOM     12  O   UNL     1       4.985  -4.447  24.594  0.00  0.00    -0.341 OA
ATOM     13  C   UNL     1       5.950  -5.474  24.864  0.00  0.00    +0.178 C 
ATOM     14  C   UNL     1       6.014  -6.558  23.775  0.00  0.00    +0.177 C 
ATOM     15  C   UNL     1       6.434  -5.942  22.492  0.00  0.00    +0.179 C 
ATOM     16  C   UNL     1       5.445  -4.824  22.207  0.00  0.00    +0.201 C 
BRANCH  16  17
ATOM     17  O   UNL     1       5.643  -4.622  20.803  0.00  0.00    -0.384 OA
ATOM     18  H   UNL     1       6.594  -4.411  20.695  0.00  0.00    +0.210 HD
ENDBRANCH  16  17
BRANCH  15  19
ATOM     19  O   UNL     1       7.784  -5.540  22.454  0.00  0.00    -0.386 OA
ATOM     20  H   UNL     1       8.173  -6.043  21.711  0.00  0.00    +0.210 HD
ENDBRANCH  15  19
BRANCH  14  21
ATOM     21  O   UNL     1       4.764  -7.080  23.368  0.00  0.00    -0.386 OA
ATOM     22  H   UNL     1       4.542  -6.737  22.482  0.00  0.00    +0.210 HD
ENDBRANCH  14  21
BRANCH  13  23
ATOM     23  C   UNL     1       5.768  -6.049  26.283  0.00  0.00    +0.197 C 
BRANCH  23  24
ATOM     24  O   UNL     1       4.452  -6.374  26.723  0.00  0.00    -0.346 OA
BRANCH  24  25
ATOM     25  C   UNL     1       3.715  -5.370  27.447  0.00  0.00    +0.281 C 
ATOM     26  O   UNL     1       3.650  -5.625  28.842  0.00  0.00    -0.346 OA
ATOM     27  C   UNL     1       3.293  -6.997  29.116  0.00  0.00    +0.197 C 
ATOM     28  C   UNL     1       1.905  -7.337  28.611  0.00  0.00    +0.171 C 
ATOM     29  C   UNL     1       1.691  -6.827  27.176  0.00  0.00    +0.178 C 
ATOM     30  C   UNL     1       2.243  -5.394  27.000  0.00  0.00    +0.201 C 
BRANCH  30  31
ATOM     31  O   UNL     1       2.111  -4.940  25.655  0.00  0.00    -0.384 OA
ATOM     32  H   UNL     1       1.162  -4.739  25.536  0.00  0.00    +0.210 HD
ENDBRANCH  30  31
BRANCH  29  33
ATOM     33  O   UNL     1       2.300  -7.725  26.228  0.00  0.00    -0.386 OA
ATOM     34  H   UNL     1       3.248  -7.477  26.161  0.00  0.00    +0.210 HD
ENDBRANCH  29  33
BRANCH  28  35
ATOM     35  O   UNL     1       0.969  -6.719  29.499  0.00  0.00    -0.387 OA
ATOM     36  H   UNL     1       1.013  -5.759  29.333  0.00  0.00    +0.210 HD
ENDBRANCH  28  35
ENDBRANCH  24  25
ENDBRANCH  23  24
ENDBRANCH  13  23
ENDBRANCH  10  11
ENDBRANCH   5  10
BRANCH   7  37
ATOM     37  O   UNL     1       8.429  -0.437  23.466  0.00  0.00    -0.340 OA
BRANCH  37  38
ATOM     38  C   UNL     1       9.184   0.478  22.640  0.00  0.00    +0.282 C 
ATOM     39  O   UNL     1      10.545   0.627  23.122  0.00  0.00    -0.346 OA
ATOM     40  C   UNL     1      10.911   1.713  23.990  0.00  0.00    +0.197 C 
ATOM     41  C   UNL     1      10.286   3.091  23.725  0.00  0.00    +0.171 C 
ATOM     42  C   UNL     1       8.864   3.059  23.174  0.00  0.00    +0.178 C 
ATOM     43  C   UNL     1       8.607   1.861  22.240  0.00  0.00    +0.201 C 
BRANCH  43  44
ATOM     44  O   UNL     1       7.243   1.822  21.825  0.00  0.00    -0.384 OA
ATOM     45  H   UNL     1       6.715   1.780  22.645  0.00  0.00    +0.210 HD
ENDBRANCH  43  44
BRANCH  42  46
ATOM     46  O   UNL     1       7.885   3.267  24.193  0.00  0.00    -0.386 OA
ATOM     47  H   UNL     1       8.309   3.784  24.905  0.00  0.00    +0.210 HD
ENDBRANCH  42  46
BRANCH  41  48
ATOM     48  O   UNL     1      11.118   3.761  22.758  0.00  0.00    -0.387 OA
ATOM     49  H   UNL     1      12.000   3.347  22.794  0.00  0.00    +0.210 HD
ENDBRANCH  41  48
ENDBRANCH  37  38
ENDBRANCH   7  37
BRANCH   4  50
ATOM     50  O   UNL     1       4.912  -0.717  25.354  0.00  0.00    -0.453 OA
BRANCH  50  51
ATOM     51  C   UNL     1       4.379   0.455  25.899  0.00  0.00    +0.214 A 
ATOM     52  C   UNL     1       4.722   1.812  25.303  0.00  0.00    +0.238 A 
ATOM     53  O   UNL     1       5.521   1.960  24.365  0.00  0.00    -0.283 OA
ATOM     54  C   UNL     1       4.098   3.017  25.854  0.00  0.00    +0.109 A 
ATOM     55  C   UNL     1       3.306   2.880  26.992  0.00  0.00    +0.147 A 
ATOM     56  C   UNL     1       2.711   3.981  27.563  0.00  0.00    +0.092 A 
ATOM     57  C   UNL     1       2.872   5.243  26.996  0.00  0.00    +0.124 A 
ATOM     58  C   UNL     1       3.639   5.413  25.857  0.00  0.00    +0.091 A 
ATOM     59  O   UNL     1       3.120   1.660  27.568  0.00  0.00    -0.451 OA
ATOM     60  C   UNL     1       4.275   4.300  25.287  0.00  0.00    +0.135 A 
ATOM     61  C   UNL     1       3.620   0.468  27.032  0.00  0.00    +0.181 A 
BRANCH  61  62
ATOM     62  C   UNL     1       3.190  -0.682  27.949  0.00  0.00    +0.025 A 
ATOM     63  C   UNL     1       1.802  -1.023  27.962  0.00  0.00    +0.015 A 
ATOM     64  C   UNL     1       1.253  -2.032  28.764  0.00  0.00    +0.050 A 
ATOM     65  C   UNL     1       2.091  -2.747  29.588  0.00  0.00    +0.158 A 
ATOM     66  C   UNL     1       3.451  -2.454  29.619  0.00  0.00    +0.159 A 
ATOM     67  C   UNL     1       4.012  -1.438  28.806  0.00  0.00    +0.060 A 
BRANCH  66  68
ATOM     68  O   UNL     1       4.206  -3.206  30.485  0.00  0.00    -0.503 OA
ATOM     69  H   UNL     1       4.689  -3.877  29.973  0.00  0.00    +0.292 HD
ENDBRANCH  66  68
BRANCH  65  70
ATOM     70  O   UNL     1       1.565  -3.737  30.367  0.00  0.00    -0.503 OA
ATOM     71  H   UNL     1       1.485  -4.506  29.770  0.00  0.00    +0.292 HD
ENDBRANCH  65  70
ENDBRANCH  61  62
BRANCH  60  72
ATOM     72  O   UNL     1       5.056   4.553  24.197  0.00  0.00    -0.506 OA
ATOM     73  H   UNL     1       6.000   4.540  24.506  0.00  0.00    +0.292 HD
ENDBRANCH  60  72
BRANCH  57  74
ATOM     74  O   UNL     1       2.295   6.355  27.543  0.00  0.00    -0.507 OA
ATOM     75  H   UNL     1       2.752   7.152  27.226  0.00  0.00    +0.292 HD
ENDBRANCH  57  74
ENDBRANCH  50  51
ENDBRANCH   4  50
TORSDOF 24
ENDMDL
MODEL 6
REMARK VINA RESULT:      -6.0      2.390      6.178
REMARK  Name = 
REMARK  25 active torsions:
REMARK  status: ('A' for Active; 'I' for Inactive)
REMARK    1  A    between atoms: C_1  and  C_2
REMARK    2  A    between atoms: C_3  and  O_61
REMARK    3  A    between atoms: C_5  and  O_60
REMARK    4  A    between atoms: C_6  and  O_33
REMARK    5  A    between atoms: C_8  and  O_11
REMARK    6  A    between atoms: O_11  and  C_12
REMARK    7  A    between atoms: C_13  and  C_25
REMARK    8  A    between atoms: C_17  and  O_24
REMARK    9  A    between atoms: C_19  and  O_23
REMARK   10  A    between atoms: C_27  and  O_32
REMARK   11  A    between atoms: C_28  and  O_31
REMARK   12  A    between atoms: O_33  and  C_34
REMARK   13  A    between atoms: C_36  and  O_59
REMARK   14  A    between atoms: C_37  and  O_58
REMARK   15  A    between atoms: C_39  and  O_57
REMARK   16  A    between atoms: C_41  and  C_43
REMARK   17  A    between atoms: C_43  and  O_44
REMARK   18  A    between atoms: O_44  and  C_45
REMARK   19  A    between atoms: C_47  and  O_56
REMARK   20  A    between atoms: C_48  and  O_55
REMARK   21  A    between atoms: C_50  and  O_54
REMARK   22  A    between atoms: O_61  and  C_62
REMARK   23  A    between atoms: C_64  and  O_73
REMARK   24  A    between atoms: C_65  and  O_72
REMARK   25  A    between atoms: C_67  and  O_71
REMARK                            x       y       z     vdW  Elec       q    Type
REMARK                         _______ _______ _______ _____ _____    ______ ____
ROOT
ATOM      1  C   UNL     1       3.498  -3.965  23.739  0.00  0.00    +0.041 C 
ATOM      2  C   UNL     1       4.766  -4.106  24.612  0.00  0.00    +0.151 C 
ATOM      3  O   UNL     1       4.975  -3.125  25.645  0.00  0.00    -0.334 OA
ATOM      4  C   UNL     1       5.592  -1.835  25.368  0.00  0.00    +0.340 C 
ATOM      5  C   UNL     1       6.575  -1.731  24.128  0.00  0.00    +0.221 C 
ATOM      6  C   UNL     1       6.116  -2.729  23.094  0.00  0.00    +0.181 C 
ATOM      7  C   UNL     1       5.989  -4.204  23.720  0.00  0.00    +0.181 C 
ENDROOT
BRANCH   6   8
ATOM      8  O   UNL     1       6.830  -2.560  21.858  0.00  0.00    -0.386 OA
ATOM      9  H   UNL     1       6.612  -1.667  21.495  0.00  0.00    +0.210 HD
ENDBRANCH   6   8
BRANCH   5  10
ATOM     10  O   UNL     1       8.018  -1.600  24.203  0.00  0.00    -0.337 OA
BRANCH  10  11
ATOM     11  C   UNL     1       8.644  -0.318  24.265  0.00  0.00    +0.282 C 
ATOM     12  O   UNL     1       7.681   0.721  23.906  0.00  0.00    -0.341 OA
ATOM     13  C   UNL     1       7.492   0.868  22.491  0.00  0.00    +0.178 C 
ATOM     14  C   UNL     1       8.779   1.238  21.736  0.00  0.00    +0.177 C 
ATOM     15  C   UNL     1       9.773   0.148  21.895  0.00  0.00    +0.179 C 
ATOM     16  C   UNL     1       9.960  -0.049  23.390  0.00  0.00    +0.201 C 
BRANCH  16  17
ATOM     17  O   UNL     1      11.211  -0.746  23.430  0.00  0.00    -0.384 OA
ATOM     18  H   UNL     1      11.495  -0.730  24.368  0.00  0.00    +0.210 HD
ENDBRANCH  16  17
BRANCH  15  19
ATOM     19  O   UNL     1       9.460  -1.033  21.193  0.00  0.00    -0.386 OA
ATOM     20  H   UNL     1       8.974  -0.729  20.400  0.00  0.00    +0.210 HD
ENDBRANCH  15  19
BRANCH  14  21
ATOM     21  O   UNL     1       9.526   2.300  22.296  0.00  0.00    -0.386 OA
ATOM     22  H   UNL     1       9.796   2.062  23.203  0.00  0.00    +0.210 HD
ENDBRANCH  14  21
BRANCH  13  23
ATOM     23  C   UNL     1       6.314   1.813  22.183  0.00  0.00    +0.197 C 
BRANCH  23  24
ATOM     24  O   UNL     1       6.410   3.177  22.586  0.00  0.00    -0.346 OA
BRANCH  24  25
ATOM     25  C   UNL     1       6.021   3.513  23.932  0.00  0.00    +0.281 C 
ATOM     26  O   UNL     1       5.009   4.506  23.988  0.00  0.00    -0.346 OA
ATOM     27  C   UNL     1       5.306   5.618  23.116  0.00  0.00    +0.197 C 
ATOM     28  C   UNL     1       6.567   6.348  23.533  0.00  0.00    +0.171 C 
ATOM     29  C   UNL     1       7.710   5.364  23.834  0.00  0.00    +0.178 C 
ATOM     30  C   UNL     1       7.212   4.159  24.662  0.00  0.00    +0.201 C 
BRANCH  30  31
ATOM     31  O   UNL     1       8.250   3.208  24.887  0.00  0.00    -0.384 OA
ATOM     32  H   UNL     1       7.808   2.415  25.248  0.00  0.00    +0.210 HD
ENDBRANCH  30  31
BRANCH  29  33
ATOM     33  O   UNL     1       8.325   4.920  22.610  0.00  0.00    -0.386 OA
ATOM     34  H   UNL     1       8.089   5.571  21.913  0.00  0.00    +0.210 HD
ENDBRANCH  29  33
BRANCH  28  35
ATOM     35  O   UNL     1       6.249   7.107  24.703  0.00  0.00    -0.387 OA
ATOM     36  H   UNL     1       5.283   7.236  24.704  0.00  0.00    +0.210 HD
ENDBRANCH  28  35
ENDBRANCH  24  25
ENDBRANCH  23  24
ENDBRANCH  13  23
ENDBRANCH  10  11
ENDBRANCH   5  10
BRANCH   7  37
ATOM     37  O   UNL     1       7.131  -4.629  24.518  0.00  0.00    -0.340 OA
BRANCH  37  38
ATOM     38  C   UNL     1       7.178  -5.795  25.371  0.00  0.00    +0.282 C 
ATOM     39  O   UNL     1       5.980  -6.603  25.230  0.00  0.00    -0.346 OA
ATOM     40  C   UNL     1       4.876  -6.458  26.138  0.00  0.00    +0.197 C 
ATOM     41  C   UNL     1       5.189  -6.224  27.624  0.00  0.00    +0.171 C 
ATOM     42  C   UNL     1       6.455  -5.418  27.897  0.00  0.00    +0.178 C 
ATOM     43  C   UNL     1       7.570  -5.681  26.867  0.00  0.00    +0.201 C 
BRANCH  43  44
ATOM     44  O   UNL     1       8.696  -4.839  27.109  0.00  0.00    -0.384 OA
ATOM     45  H   UNL     1       8.336  -4.014  27.488  0.00  0.00    +0.210 HD
ENDBRANCH  43  44
BRANCH  42  46
ATOM     46  O   UNL     1       6.173  -4.044  28.164  0.00  0.00    -0.386 OA
ATOM     47  H   UNL     1       7.028  -3.592  28.306  0.00  0.00    +0.210 HD
ENDBRANCH  42  46
BRANCH  41  48
ATOM     48  O   UNL     1       5.349  -7.518  28.237  0.00  0.00    -0.387 OA
ATOM     49  H   UNL     1       6.305  -7.682  28.328  0.00  0.00    +0.210 HD
ENDBRANCH  41  48
ENDBRANCH  37  38
ENDBRANCH   7  37
BRANCH   4  50
ATOM     50  O   UNL     1       6.200  -1.332  26.587  0.00  0.00    -0.453 OA
BRANCH  50  51
ATOM     51  C   UNL     1       5.621  -0.264  27.278  0.00  0.00    +0.214 A 
ATOM     52  C   UNL     1       6.384   1.039  27.468  0.00  0.00    +0.238 A 
ATOM     53  O   UNL     1       7.553   1.204  27.087  0.00  0.00    -0.283 OA
ATOM     54  C   UNL     1       5.729   2.164  28.140  0.00  0.00    +0.109 A 
ATOM     55  C   UNL     1       4.467   1.949  28.693  0.00  0.00    +0.147 A 
ATOM     56  C   UNL     1       3.814   2.965  29.351  0.00  0.00    +0.092 A 
ATOM     57  C   UNL     1       4.394   4.228  29.452  0.00  0.00    +0.124 A 
ATOM     58  C   UNL     1       5.638   4.480  28.901  0.00  0.00    +0.091 A 
ATOM     59  O   UNL     1       3.868   0.730  28.605  0.00  0.00    -0.451 OA
ATOM     60  C   UNL     1       6.324   3.440  28.256  0.00  0.00    +0.135 A 
ATOM     61  C   UNL     1       4.410  -0.350  27.900  0.00  0.00    +0.181 A 
BRANCH  61  62
ATOM     62  C   UNL     1       3.441  -1.531  28.020  0.00  0.00    +0.025 A 
ATOM     63  C   UNL     1       2.337  -1.564  27.113  0.00  0.00    +0.015 A 
ATOM     64  C   UNL     1       1.355  -2.564  27.113  0.00  0.00    +0.050 A 
ATOM     65  C   UNL     1       1.451  -3.580  28.035  0.00  0.00    +0.158 A 
ATOM     66  C   UNL     1       2.503  -3.595  28.946  0.00  0.00    +0.159 A 
ATOM     67  C   UNL     1       3.502  -2.589  28.945  0.00  0.00    +0.060 A 
BRANCH  66  68
ATOM     68  O   UNL     1       2.506  -4.637  29.839  0.00  0.00    -0.503 OA
ATOM     69  H   UNL     1       3.426  -4.918  29.985  0.00  0.00    +0.292 HD
ENDBRANCH  66  68
BRANCH  65  70
ATOM     70  O   UNL     1       0.502  -4.562  28.038  0.00  0.00    -0.503 OA
ATOM     71  H   UNL     1      -0.209  -4.216  28.611  0.00  0.00    +0.292 HD
ENDBRANCH  65  70
ENDBRANCH  61  62
BRANCH  60  72
ATOM     72  O   UNL     1       7.567   3.750  27.784  0.00  0.00    -0.506 OA
ATOM     73  H   UNL     1       7.556   3.582  26.804  0.00  0.00    +0.292 HD
ENDBRANCH  60  72
BRANCH  57  74
ATOM     74  O   UNL     1       3.769   5.254  30.103  0.00  0.00    -0.507 OA
ATOM     75  H   UNL     1       3.501   4.966  30.991  0.00  0.00    +0.292 HD
ENDBRANCH  57  74
ENDBRANCH  50  51
ENDBRANCH   4  50
TORSDOF 24
ENDMDL
MODEL 7
REMARK VINA RESULT:      -5.9      2.347      8.543
REMARK  Name = 
REMARK  25 active torsions:
REMARK  status: ('A' for Active; 'I' for Inactive)
REMARK    1  A    between atoms: C_1  and  C_2
REMARK    2  A    between atoms: C_3  and  O_61
REMARK    3  A    between atoms: C_5  and  O_60
REMARK    4  A    between atoms: C_6  and  O_33
REMARK    5  A    between atoms: C_8  and  O_11
REMARK    6  A    between atoms: O_11  and  C_12
REMARK    7  A    between atoms: C_13  and  C_25
REMARK    8  A    between atoms: C_17  and  O_24
REMARK    9  A    between atoms: C_19  and  O_23
REMARK   10  A    between atoms: C_27  and  O_32
REMARK   11  A    between atoms: C_28  and  O_31
REMARK   12  A    between atoms: O_33  and  C_34
REMARK   13  A    between atoms: C_36  and  O_59
REMARK   14  A    between atoms: C_37  and  O_58
REMARK   15  A    between atoms: C_39  and  O_57
REMARK   16  A    between atoms: C_41  and  C_43
REMARK   17  A    between atoms: C_43  and  O_44
REMARK   18  A    between atoms: O_44  and  C_45
REMARK   19  A    between atoms: C_47  and  O_56
REMARK   20  A    between atoms: C_48  and  O_55
REMARK   21  A    between atoms: C_50  and  O_54
REMARK   22  A    between atoms: O_61  and  C_62
REMARK   23  A    between atoms: C_64  and  O_73
REMARK   24  A    between atoms: C_65  and  O_72
REMARK   25  A    between atoms: C_67  and  O_71
REMARK                            x       y       z     vdW  Elec       q    Type
REMARK                         _______ _______ _______ _____ _____    ______ ____
ROOT
ATOM      1  C   UNL     1       9.042  -1.633  27.454  0.00  0.00    +0.041 C 
ATOM      2  C   UNL     1       8.681  -0.908  26.137  0.00  0.00    +0.151 C 
ATOM      3  O   UNL     1       7.323  -0.458  25.977  0.00  0.00    -0.334 OA
ATOM      4  C   UNL     1       6.269  -1.345  25.505  0.00  0.00    +0.340 C 
ATOM      5  C   UNL     1       6.683  -2.579  24.598  0.00  0.00    +0.221 C 
ATOM      6  C   UNL     1       8.074  -3.000  25.006  0.00  0.00    +0.181 C 
ATOM      7  C   UNL     1       9.099  -1.763  24.955  0.00  0.00    +0.181 C 
ENDROOT
BRANCH   6   8
ATOM      8  O   UNL     1       8.447  -4.236  24.374  0.00  0.00    -0.386 OA
ATOM      9  H   UNL     1       9.433  -4.291  24.360  0.00  0.00    +0.210 HD
ENDBRANCH   6   8
BRANCH   5  10
ATOM     10  O   UNL     1       6.438  -2.700  23.174  0.00  0.00    -0.337 OA
BRANCH  10  11
ATOM     11  C   UNL     1       5.227  -3.269  22.675  0.00  0.00    +0.282 C 
ATOM     12  O   UNL     1       4.244  -3.361  23.752  0.00  0.00    -0.341 OA
ATOM     13  C   UNL     1       4.435  -4.494  24.613  0.00  0.00    +0.178 C 
ATOM     14  C   UNL     1       4.353  -5.843  23.879  0.00  0.00    +0.177 C 
ATOM     15  C   UNL     1       5.436  -5.920  22.868  0.00  0.00    +0.179 C 
ATOM     16  C   UNL     1       5.273  -4.707  21.968  0.00  0.00    +0.201 C 
BRANCH  16  17
ATOM     17  O   UNL     1       6.023  -5.106  20.815  0.00  0.00    -0.384 OA
ATOM     18  H   UNL     1       5.673  -5.985  20.560  0.00  0.00    +0.210 HD
ENDBRANCH  16  17
BRANCH  15  19
ATOM     19  O   UNL     1       6.729  -6.065  23.410  0.00  0.00    -0.386 OA
ATOM     20  H   UNL     1       7.319  -5.624  22.768  0.00  0.00    +0.210 HD
ENDBRANCH  15  19
BRANCH  14  21
ATOM     21  O   UNL     1       3.240  -5.997  23.020  0.00  0.00    -0.386 OA
ATOM     22  H   UNL     1       2.984  -5.126  22.662  0.00  0.00    +0.210 HD
ENDBRANCH  14  21
BRANCH  13  23
ATOM     23  C   UNL     1       3.516  -4.417  25.847  0.00  0.00    +0.197 C 
BRANCH  23  24
ATOM     24  O   UNL     1       3.864  -5.170  27.006  0.00  0.00    -0.346 OA
BRANCH  24  25
ATOM     25  C   UNL     1       4.333  -4.452  28.163  0.00  0.00    +0.281 C 
ATOM     26  O   UNL     1       5.748  -4.430  28.269  0.00  0.00    -0.346 OA
ATOM     27  C   UNL     1       6.319  -5.739  28.060  0.00  0.00    +0.197 C 
ATOM     28  C   UNL     1       5.882  -6.728  29.122  0.00  0.00    +0.171 C 
ATOM     29  C   UNL     1       4.366  -6.650  29.370  0.00  0.00    +0.178 C 
ATOM     30  C   UNL     1       3.880  -5.185  29.438  0.00  0.00    +0.201 C 
BRANCH  30  31
ATOM     31  O   UNL     1       2.466  -5.106  29.598  0.00  0.00    -0.384 OA
ATOM     32  H   UNL     1       2.189  -5.978  29.942  0.00  0.00    +0.210 HD
ENDBRANCH  30  31
BRANCH  29  33
ATOM     33  O   UNL     1       3.654  -7.374  28.348  0.00  0.00    -0.386 OA
ATOM     34  H   UNL     1       4.253  -8.080  28.021  0.00  0.00    +0.210 HD
ENDBRANCH  29  33
BRANCH  28  35
ATOM     35  O   UNL     1       6.594  -6.402  30.320  0.00  0.00    -0.387 OA
ATOM     36  H   UNL     1       7.464  -6.836  30.259  0.00  0.00    +0.210 HD
ENDBRANCH  28  35
ENDBRANCH  24  25
ENDBRANCH  23  24
ENDBRANCH  13  23
ENDBRANCH  10  11
ENDBRANCH   5  10
BRANCH   7  37
ATOM     37  O   UNL     1       9.031  -0.964  23.739  0.00  0.00    -0.340 OA
BRANCH  37  38
ATOM     38  C   UNL     1      10.096  -0.142  23.209  0.00  0.00    +0.282 C 
ATOM     39  O   UNL     1      10.602   0.779  24.211  0.00  0.00    -0.346 OA
ATOM     40  C   UNL     1      10.119   2.130  24.290  0.00  0.00    +0.197 C 
ATOM     41  C   UNL     1       9.837   2.875  22.975  0.00  0.00    +0.171 C 
ATOM     42  C   UNL     1       9.336   1.997  21.832  0.00  0.00    +0.178 C 
ATOM     43  C   UNL     1       9.948   0.583  21.846  0.00  0.00    +0.201 C 
BRANCH  43  44
ATOM     44  O   UNL     1       9.382  -0.226  20.817  0.00  0.00    -0.384 OA
ATOM     45  H   UNL     1       8.608  -0.667  21.218  0.00  0.00    +0.210 HD
ENDBRANCH  43  44
BRANCH  42  46
ATOM     46  O   UNL     1       7.917   2.054  21.689  0.00  0.00    -0.386 OA
ATOM     47  H   UNL     1       7.717   2.025  20.734  0.00  0.00    +0.210 HD
ENDBRANCH  42  46
BRANCH  41  48
ATOM     48  O   UNL     1      11.073   3.484  22.555  0.00  0.00    -0.387 OA
ATOM     49  H   UNL     1      11.256   4.223  23.163  0.00  0.00    +0.210 HD
ENDBRANCH  41  48
ENDBRANCH  37  38
ENDBRANCH   7  37
BRANCH   4  50
ATOM     50  O   UNL     1       5.222  -0.548  24.891  0.00  0.00    -0.453 OA
BRANCH  50  51
ATOM     51  C   UNL     1       4.965   0.751  25.342  0.00  0.00    +0.214 A 
ATOM     52  C   UNL     1       5.608   1.948  24.658  0.00  0.00    +0.238 A 
ATOM     53  O   UNL     1       6.423   1.843  23.728  0.00  0.00    -0.283 OA
ATOM     54  C   UNL     1       5.272   3.300  25.110  0.00  0.00    +0.109 A 
ATOM     55  C   UNL     1       4.465   3.429  26.239  0.00  0.00    +0.147 A 
ATOM     56  C   UNL     1       4.132   4.674  26.718  0.00  0.00    +0.092 A 
ATOM     57  C   UNL     1       4.576   5.823  26.067  0.00  0.00    +0.124 A 
ATOM     58  C   UNL     1       5.366   5.732  24.934  0.00  0.00    +0.091 A 
ATOM     59  O   UNL     1       4.006   2.328  26.895  0.00  0.00    -0.451 OA
ATOM     60  C   UNL     1       5.735   4.465  24.457  0.00  0.00    +0.135 A 
ATOM     61  C   UNL     1       4.225   1.018  26.455  0.00  0.00    +0.181 A 
BRANCH  61  62
ATOM     62  C   UNL     1       3.543   0.065  27.443  0.00  0.00    +0.025 A 
ATOM     63  C   UNL     1       3.935   0.154  28.814  0.00  0.00    +0.015 A 
ATOM     64  C   UNL     1       3.420  -0.663  29.829  0.00  0.00    +0.050 A 
ATOM     65  C   UNL     1       2.478  -1.609  29.498  0.00  0.00    +0.158 A 
ATOM     66  C   UNL     1       2.063  -1.744  28.176  0.00  0.00    +0.159 A 
ATOM     67  C   UNL     1       2.577  -0.915  27.148  0.00  0.00    +0.060 A 
BRANCH  66  68
ATOM     68  O   UNL     1       1.134  -2.726  27.938  0.00  0.00    -0.503 OA
ATOM     69  H   UNL     1       0.557  -2.437  27.211  0.00  0.00    +0.292 HD
ENDBRANCH  66  68
BRANCH  65  70
ATOM     70  O   UNL     1       1.966  -2.405  30.482  0.00  0.00    -0.503 OA
ATOM     71  H   UNL     1       1.190  -2.834  30.074  0.00  0.00    +0.292 HD
ENDBRANCH  65  70
ENDBRANCH  61  62
BRANCH  60  72
ATOM     72  O   UNL     1       6.557   4.455  23.368  0.00  0.00    -0.506 OA
ATOM     73  H   UNL     1       6.632   5.394  23.051  0.00  0.00    +0.292 HD
ENDBRANCH  60  72
BRANCH  57  74
ATOM     74  O   UNL     1       4.264   7.073  26.522  0.00  0.00    -0.507 OA
ATOM     75  H   UNL     1       4.301   7.709  25.789  0.00  0.00    +0.292 HD
ENDBRANCH  57  74
ENDBRANCH  50  51
ENDBRANCH   4  50
TORSDOF 24
ENDMDL
MODEL 8
REMARK VINA RESULT:      -5.8      2.739      7.899
REMARK  Name = 
REMARK  25 active torsions:
REMARK  status: ('A' for Active; 'I' for Inactive)
REMARK    1  A    between atoms: C_1  and  C_2
REMARK    2  A    between atoms: C_3  and  O_61
REMARK    3  A    between atoms: C_5  and  O_60
REMARK    4  A    between atoms: C_6  and  O_33
REMARK    5  A    between atoms: C_8  and  O_11
REMARK    6  A    between atoms: O_11  and  C_12
REMARK    7  A    between atoms: C_13  and  C_25
REMARK    8  A    between atoms: C_17  and  O_24
REMARK    9  A    between atoms: C_19  and  O_23
REMARK   10  A    between atoms: C_27  and  O_32
REMARK   11  A    between atoms: C_28  and  O_31
REMARK   12  A    between atoms: O_33  and  C_34
REMARK   13  A    between atoms: C_36  and  O_59
REMARK   14  A    between atoms: C_37  and  O_58
REMARK   15  A    between atoms: C_39  and  O_57
REMARK   16  A    between atoms: C_41  and  C_43
REMARK   17  A    between atoms: C_43  and  O_44
REMARK   18  A    between atoms: O_44  and  C_45
REMARK   19  A    between atoms: C_47  and  O_56
REMARK   20  A    between atoms: C_48  and  O_55
REMARK   21  A    between atoms: C_50  and  O_54
REMARK   22  A    between atoms: O_61  and  C_62
REMARK   23  A    between atoms: C_64  and  O_73
REMARK   24  A    between atoms: C_65  and  O_72
REMARK   25  A    between atoms: C_67  and  O_71
REMARK                            x       y       z     vdW  Elec       q    Type
REMARK                         _______ _______ _______ _____ _____    ______ ____
ROOT
ATOM      1  C   UNL     1       6.650  -5.550  21.176  0.00  0.00    +0.041 C 
ATOM      2  C   UNL     1       6.282  -5.401  22.670  0.00  0.00    +0.151 C 
ATOM      3  O   UNL     1       4.934  -5.006  22.987  0.00  0.00    -0.334 OA
ATOM      4  C   UNL     1       4.522  -3.608  22.986  0.00  0.00    +0.340 C 
ATOM      5  C   UNL     1       5.630  -2.505  23.249  0.00  0.00    +0.221 C 
ATOM      6  C   UNL     1       6.941  -3.038  22.726  0.00  0.00    +0.181 C 
ATOM      7  C   UNL     1       7.278  -4.480  23.351  0.00  0.00    +0.181 C 
ENDROOT
BRANCH   6   8
ATOM      8  O   UNL     1       7.957  -2.021  22.742  0.00  0.00    -0.386 OA
ATOM      9  H   UNL     1       8.489  -2.102  21.915  0.00  0.00    +0.210 HD
ENDBRANCH   6   8
BRANCH   5  10
ATOM     10  O   UNL     1       5.769  -1.720  24.461  0.00  0.00    -0.337 OA
BRANCH  10  11
ATOM     11  C   UNL     1       5.704  -0.294  24.433  0.00  0.00    +0.282 C 
ATOM     12  O   UNL     1       7.025   0.255  24.132  0.00  0.00    -0.341 OA
ATOM     13  C   UNL     1       7.901   0.305  25.268  0.00  0.00    +0.178 C 
ATOM     14  C   UNL     1       7.362   1.169  26.421  0.00  0.00    +0.177 C 
ATOM     15  C   UNL     1       6.093   0.586  26.920  0.00  0.00    +0.179 C 
ATOM     16  C   UNL     1       5.163   0.489  25.722  0.00  0.00    +0.201 C 
BRANCH  16  17
ATOM     17  O   UNL     1       3.887   0.370  26.363  0.00  0.00    -0.384 OA
ATOM     18  H   UNL     1       3.267   0.903  25.823  0.00  0.00    +0.210 HD
ENDBRANCH  16  17
BRANCH  15  19
ATOM     19  O   UNL     1       6.246  -0.622  27.629  0.00  0.00    -0.386 OA
ATOM     20  H   UNL     1       6.412  -0.349  28.553  0.00  0.00    +0.210 HD
ENDBRANCH  15  19
BRANCH  14  21
ATOM     21  O   UNL     1       6.885   2.446  26.047  0.00  0.00    -0.386 OA
ATOM     22  H   UNL     1       7.338   2.736  25.233  0.00  0.00    +0.210 HD
ENDBRANCH  14  21
BRANCH  13  23
ATOM     23  C   UNL     1       9.336   0.680  24.848  0.00  0.00    +0.197 C 
BRANCH  23  24
ATOM     24  O   UNL     1       9.632   2.047  24.574  0.00  0.00    -0.346 OA
BRANCH  24  25
ATOM     25  C   UNL     1       9.559   2.493  23.206  0.00  0.00    +0.281 C 
ATOM     26  O   UNL     1      10.769   3.077  22.746  0.00  0.00    -0.346 OA
ATOM     27  C   UNL     1      11.297   4.026  23.697  0.00  0.00    +0.197 C 
ATOM     28  C   UNL     1      10.368   5.206  23.900  0.00  0.00    +0.171 C 
ATOM     29  C   UNL     1       8.913   4.747  24.097  0.00  0.00    +0.178 C 
ATOM     30  C   UNL     1       8.533   3.635  23.094  0.00  0.00    +0.201 C 
BRANCH  30  31
ATOM     31  O   UNL     1       7.210   3.155  23.315  0.00  0.00    -0.384 OA
ATOM     32  H   UNL     1       6.617   3.817  22.907  0.00  0.00    +0.210 HD
ENDBRANCH  30  31
BRANCH  29  33
ATOM     33  O   UNL     1       8.707   4.301  25.451  0.00  0.00    -0.386 OA
ATOM     34  H   UNL     1       8.131   3.505  25.410  0.00  0.00    +0.210 HD
ENDBRANCH  29  33
BRANCH  28  35
ATOM     35  O   UNL     1      10.471   6.031  22.735  0.00  0.00    -0.387 OA
ATOM     36  H   UNL     1       9.562   6.204  22.430  0.00  0.00    +0.210 HD
ENDBRANCH  28  35
ENDBRANCH  24  25
ENDBRANCH  23  24
ENDBRANCH  13  23
ENDBRANCH  10  11
ENDBRANCH   5  10
BRANCH   7  37
ATOM     37  O   UNL     1       7.109  -4.575  24.794  0.00  0.00    -0.340 OA
BRANCH  37  38
ATOM     38  C   UNL     1       7.270  -5.773  25.586  0.00  0.00    +0.282 C 
ATOM     39  O   UNL     1       6.106  -6.634  25.486  0.00  0.00    -0.346 OA
ATOM     40  C   UNL     1       5.060  -6.586  26.471  0.00  0.00    +0.197 C 
ATOM     41  C   UNL     1       5.462  -6.402  27.943  0.00  0.00    +0.171 C 
ATOM     42  C   UNL     1       6.703  -5.544  28.169  0.00  0.00    +0.178 C 
ATOM     43  C   UNL     1       7.757  -5.705  27.057  0.00  0.00    +0.201 C 
BRANCH  43  44
ATOM     44  O   UNL     1       8.855  -4.818  27.264  0.00  0.00    -0.384 OA
ATOM     45  H   UNL     1       9.622  -5.236  26.827  0.00  0.00    +0.210 HD
ENDBRANCH  43  44
BRANCH  42  46
ATOM     46  O   UNL     1       6.375  -4.199  28.518  0.00  0.00    -0.386 OA
ATOM     47  H   UNL     1       5.951  -4.220  29.398  0.00  0.00    +0.210 HD
ENDBRANCH  42  46
BRANCH  41  48
ATOM     48  O   UNL     1       5.726  -7.711  28.482  0.00  0.00    -0.387 OA
ATOM     49  H   UNL     1       5.422  -8.364  27.827  0.00  0.00    +0.210 HD
ENDBRANCH  41  48
ENDBRANCH  37  38
ENDBRANCH   7  37
BRANCH   4  50
ATOM     50  O   UNL     1       3.380  -3.454  23.870  0.00  0.00    -0.453 OA
BRANCH  50  51
ATOM     51  C   UNL     1       2.825  -4.566  24.509  0.00  0.00    +0.214 A 
ATOM     52  C   UNL     1       2.490  -5.825  23.722  0.00  0.00    +0.238 A 
ATOM     53  O   UNL     1       2.627  -5.914  22.492  0.00  0.00    -0.283 OA
ATOM     54  C   UNL     1       1.968  -6.997  24.429  0.00  0.00    +0.109 A 
ATOM     55  C   UNL     1       1.681  -6.867  25.786  0.00  0.00    +0.147 A 
ATOM     56  C   UNL     1       1.172  -7.930  26.495  0.00  0.00    +0.092 A 
ATOM     57  C   UNL     1       0.961  -9.157  25.871  0.00  0.00    +0.124 A 
ATOM     58  C   UNL     1       1.250  -9.326  24.529  0.00  0.00    +0.091 A 
ATOM     59  O   UNL     1       1.884  -5.684  26.430  0.00  0.00    -0.451 OA
ATOM     60  C   UNL     1       1.740  -8.238  23.792  0.00  0.00    +0.135 A 
ATOM     61  C   UNL     1       2.460  -4.562  25.823  0.00  0.00    +0.181 A 
BRANCH  61  62
ATOM     62  C   UNL     1       2.535  -3.444  26.868  0.00  0.00    +0.025 A 
ATOM     63  C   UNL     1       1.547  -2.414  26.794  0.00  0.00    +0.015 A 
ATOM     64  C   UNL     1       1.497  -1.314  27.661  0.00  0.00    +0.050 A 
ATOM     65  C   UNL     1       2.449  -1.212  28.649  0.00  0.00    +0.158 A 
ATOM     66  C   UNL     1       3.438  -2.184  28.765  0.00  0.00    +0.159 A 
ATOM     67  C   UNL     1       3.488  -3.301  27.893  0.00  0.00    +0.060 A 
BRANCH  66  68
ATOM     68  O   UNL     1       4.355  -1.989  29.768  0.00  0.00    -0.503 OA
ATOM     69  H   UNL     1       4.059  -2.474  30.556  0.00  0.00    +0.292 HD
ENDBRANCH  66  68
BRANCH  65  70
ATOM     70  O   UNL     1       2.403  -0.148  29.503  0.00  0.00    -0.503 OA
ATOM     71  H   UNL     1       1.451   0.013  29.648  0.00  0.00    +0.292 HD
ENDBRANCH  65  70
ENDBRANCH  61  62
BRANCH  60  72
ATOM     72  O   UNL     1       1.952  -8.465  22.463  0.00  0.00    -0.506 OA
ATOM     73  H   UNL     1       2.622  -7.798  22.156  0.00  0.00    +0.292 HD
ENDBRANCH  60  72
BRANCH  57  74
ATOM     74  O   UNL     1       0.454 -10.229  26.550  0.00  0.00    -0.507 OA
ATOM     75  H   UNL     1       1.063 -10.983  26.477  0.00  0.00    +0.292 HD
ENDBRANCH  57  74
ENDBRANCH  50  51
ENDBRANCH   4  50
TORSDOF 24
ENDMDL
MODEL 9
REMARK VINA RESULT:      -5.6      2.234      8.990
REMARK  Name = 
REMARK  25 active torsions:
REMARK  status: ('A' for Active; 'I' for Inactive)
REMARK    1  A    between atoms: C_1  and  C_2
REMARK    2  A    between atoms: C_3  and  O_61
REMARK    3  A    between atoms: C_5  and  O_60
REMARK    4  A    between atoms: C_6  and  O_33
REMARK    5  A    between atoms: C_8  and  O_11
REMARK    6  A    between atoms: O_11  and  C_12
REMARK    7  A    between atoms: C_13  and  C_25
REMARK    8  A    between atoms: C_17  and  O_24
REMARK    9  A    between atoms: C_19  and  O_23
REMARK   10  A    between atoms: C_27  and  O_32
REMARK   11  A    between atoms: C_28  and  O_31
REMARK   12  A    between atoms: O_33  and  C_34
REMARK   13  A    between atoms: C_36  and  O_59
REMARK   14  A    between atoms: C_37  and  O_58
REMARK   15  A    between atoms: C_39  and  O_57
REMARK   16  A    between atoms: C_41  and  C_43
REMARK   17  A    between atoms: C_43  and  O_44
REMARK   18  A    between atoms: O_44  and  C_45
REMARK   19  A    between atoms: C_47  and  O_56
REMARK   20  A    between atoms: C_48  and  O_55
REMARK   21  A    between atoms: C_50  and  O_54
REMARK   22  A    between atoms: O_61  and  C_62
REMARK   23  A    between atoms: C_64  and  O_73
REMARK   24  A    between atoms: C_65  and  O_72
REMARK   25  A    between atoms: C_67  and  O_71
REMARK                            x       y       z     vdW  Elec       q    Type
REMARK                         _______ _______ _______ _____ _____    ______ ____
ROOT
ATOM      1  C   UNL     1       9.026  -2.128  27.450  0.00  0.00    +0.041 C 
ATOM      2  C   UNL     1       8.692  -1.277  26.204  0.00  0.00    +0.151 C 
ATOM      3  O   UNL     1       7.358  -0.746  26.098  0.00  0.00    -0.334 OA
ATOM      4  C   UNL     1       6.256  -1.535  25.565  0.00  0.00    +0.340 C 
ATOM      5  C   UNL     1       6.599  -2.707  24.552  0.00  0.00    +0.221 C 
ATOM      6  C   UNL     1       7.969  -3.230  24.907  0.00  0.00    +0.181 C 
ATOM      7  C   UNL     1       9.057  -2.047  24.948  0.00  0.00    +0.181 C 
ENDROOT
BRANCH   6   8
ATOM      8  O   UNL     1       8.274  -4.426  24.168  0.00  0.00    -0.386 OA
ATOM      9  H   UNL     1       7.451  -4.968  24.104  0.00  0.00    +0.210 HD
ENDBRANCH   6   8
BRANCH   5  10
ATOM     10  O   UNL     1       6.338  -2.693  23.126  0.00  0.00    -0.337 OA
BRANCH  10  11
ATOM     11  C   UNL     1       5.151  -3.274  22.584  0.00  0.00    +0.282 C 
ATOM     12  O   UNL     1       4.199  -3.549  23.659  0.00  0.00    -0.341 OA
ATOM     13  C   UNL     1       4.477  -4.758  24.380  0.00  0.00    +0.178 C 
ATOM     14  C   UNL     1       4.457  -6.017  23.496  0.00  0.00    +0.177 C 
ATOM     15  C   UNL     1       5.520  -5.913  22.467  0.00  0.00    +0.179 C 
ATOM     16  C   UNL     1       5.266  -4.616  21.716  0.00  0.00    +0.201 C 
BRANCH  16  17
ATOM     17  O   UNL     1       6.012  -4.835  20.512  0.00  0.00    -0.384 OA
ATOM     18  H   UNL     1       6.462  -5.698  20.630  0.00  0.00    +0.210 HD
ENDBRANCH  16  17
BRANCH  15  19
ATOM     19  O   UNL     1       6.831  -6.040  22.968  0.00  0.00    -0.386 OA
ATOM     20  H   UNL     1       7.409  -5.879  22.196  0.00  0.00    +0.210 HD
ENDBRANCH  15  19
BRANCH  14  21
ATOM     21  O   UNL     1       3.336  -6.139  22.643  0.00  0.00    -0.386 OA
ATOM     22  H   UNL     1       2.595  -5.619  23.006  0.00  0.00    +0.210 HD
ENDBRANCH  14  21
BRANCH  13  23
ATOM     23  C   UNL     1       3.582  -4.879  25.629  0.00  0.00    +0.197 C 
BRANCH  23  24
ATOM     24  O   UNL     1       4.122  -5.488  26.799  0.00  0.00    -0.346 OA
BRANCH  24  25
ATOM     25  C   UNL     1       5.526  -5.306  27.069  0.00  0.00    +0.281 C 
ATOM     26  O   UNL     1       6.169  -6.497  27.498  0.00  0.00    -0.346 OA
ATOM     27  C   UNL     1       5.407  -7.174  28.521  0.00  0.00    +0.197 C 
ATOM     28  C   UNL     1       5.282  -6.344  29.782  0.00  0.00    +0.171 C 
ATOM     29  C   UNL     1       4.893  -4.891  29.460  0.00  0.00    +0.178 C 
ATOM     30  C   UNL     1       5.697  -4.346  28.259  0.00  0.00    +0.201 C 
BRANCH  30  31
ATOM     31  O   UNL     1       5.294  -3.024  27.910  0.00  0.00    -0.384 OA
ATOM     32  H   UNL     1       6.019  -2.662  27.363  0.00  0.00    +0.210 HD
ENDBRANCH  30  31
BRANCH  29  33
ATOM     33  O   UNL     1       3.478  -4.794  29.208  0.00  0.00    -0.386 OA
ATOM     34  H   UNL     1       3.017  -5.109  30.017  0.00  0.00    +0.210 HD
ENDBRANCH  29  33
BRANCH  28  35
ATOM     35  O   UNL     1       6.552  -6.379  30.440  0.00  0.00    -0.387 OA
ATOM     36  H   UNL     1       6.870  -5.459  30.493  0.00  0.00    +0.210 HD
ENDBRANCH  28  35
ENDBRANCH  24  25
ENDBRANCH  23  24
ENDBRANCH  13  23
ENDBRANCH  10  11
ENDBRANCH   5  10
BRANCH   7  37
ATOM     37  O   UNL     1       9.021  -1.145  23.805  0.00  0.00    -0.340 OA
BRANCH  37  38
ATOM     38  C   UNL     1      10.125  -0.343  23.329  0.00  0.00    +0.282 C 
ATOM     39  O   UNL     1      10.490   0.680  24.293  0.00  0.00    -0.346 OA
ATOM     40  C   UNL     1       9.974   2.017  24.188  0.00  0.00    +0.197 C 
ATOM     41  C   UNL     1       9.837   2.631  22.786  0.00  0.00    +0.171 C 
ATOM     42  C   UNL     1       9.493   1.639  21.680  0.00  0.00    +0.178 C 
ATOM     43  C   UNL     1      10.126   0.252  21.897  0.00  0.00    +0.201 C 
BRANCH  43  44
ATOM     44  O   UNL     1       9.703  -0.664  20.888  0.00  0.00    -0.384 OA
ATOM     45  H   UNL     1       8.834  -1.000  21.180  0.00  0.00    +0.210 HD
ENDBRANCH  43  44
BRANCH  42  46
ATOM     46  O   UNL     1       8.100   1.640  21.367  0.00  0.00    -0.386 OA
ATOM     47  H   UNL     1       7.752   2.527  21.581  0.00  0.00    +0.210 HD
ENDBRANCH  42  46
BRANCH  41  48
ATOM     48  O   UNL     1      11.101   3.238  22.458  0.00  0.00    -0.387 OA
ATOM     49  H   UNL     1      10.915   4.106  22.058  0.00  0.00    +0.210 HD
ENDBRANCH  41  48
ENDBRANCH  37  38
ENDBRANCH   7  37
BRANCH   4  50
ATOM     50  O   UNL     1       5.247  -0.636  25.034  0.00  0.00    -0.453 OA
BRANCH  50  51
ATOM     51  C   UNL     1       4.447   0.119  25.896  0.00  0.00    +0.214 A 
ATOM     52  C   UNL     1       3.391  -0.553  26.761  0.00  0.00    +0.238 A 
ATOM     53  O   UNL     1       3.141  -1.767  26.707  0.00  0.00    -0.283 OA
ATOM     54  C   UNL     1       2.612   0.255  27.702  0.00  0.00    +0.109 A 
ATOM     55  C   UNL     1       2.786   1.638  27.676  0.00  0.00    +0.147 A 
ATOM     56  C   UNL     1       2.067   2.446  28.524  0.00  0.00    +0.092 A 
ATOM     57  C   UNL     1       1.174   1.892  29.438  0.00  0.00    +0.124 A 
ATOM     58  C   UNL     1       0.988   0.523  29.503  0.00  0.00    +0.091 A 
ATOM     59  O   UNL     1       3.657   2.212  26.801  0.00  0.00    -0.451 OA
ATOM     60  C   UNL     1       1.694  -0.307  28.618  0.00  0.00    +0.135 A 
ATOM     61  C   UNL     1       4.488   1.482  25.944  0.00  0.00    +0.181 A 
BRANCH  61  62
ATOM     62  C   UNL     1       5.328   2.476  25.135  0.00  0.00    +0.025 A 
ATOM     63  C   UNL     1       6.191   3.349  25.866  0.00  0.00    +0.015 A 
ATOM     64  C   UNL     1       7.001   4.325  25.272  0.00  0.00    +0.050 A 
ATOM     65  C   UNL     1       6.975   4.458  23.903  0.00  0.00    +0.158 A 
ATOM     66  C   UNL     1       6.150   3.637  23.141  0.00  0.00    +0.159 A 
ATOM     67  C   UNL     1       5.333   2.644  23.737  0.00  0.00    +0.060 A 
BRANCH  66  68
ATOM     68  O   UNL     1       6.177   3.853  21.785  0.00  0.00    -0.503 OA
ATOM     69  H   UNL     1       7.088   3.733  21.470  0.00  0.00    +0.292 HD
ENDBRANCH  66  68
BRANCH  65  70
ATOM     70  O   UNL     1       7.767   5.402  23.315  0.00  0.00    -0.503 OA
ATOM     71  H   UNL     1       7.163   6.141  23.113  0.00  0.00    +0.292 HD
ENDBRANCH  65  70
ENDBRANCH  61  62
BRANCH  60  72
ATOM     72  O   UNL     1       1.420  -1.641  28.705  0.00  0.00    -0.506 OA
ATOM     73  H   UNL     1       0.522  -1.727  29.122  0.00  0.00    +0.292 HD
ENDBRANCH  60  72
BRANCH  57  74
ATOM     74  O   UNL     1       0.444   2.671  30.291  0.00  0.00    -0.507 OA
ATOM     75  H   UNL     1       0.886   2.717  31.155  0.00  0.00    +0.292 HD
ENDBRANCH  57  74
ENDBRANCH  50  51
ENDBRANCH   4  50
TORSDOF 24
ENDMDL
