MODEL 1
REMARK VINA RESULT:      -7.6      0.000      0.000
REMARK  Name = 
REMARK  12 active torsions:
REMARK  status: ('A' for Active; 'I' for Inactive)
REMARK    1  A    between atoms: C_1  and  C_2
REMARK    2  A    between atoms: C_2  and  C_4
REMARK    3  A    between atoms: C_2  and  O_37
REMARK    4  A    between atoms: C_6  and  O_36
REMARK    5  A    between atoms: C_8  and  O_35
REMARK    6  A    between atoms: C_10  and  O_13
REMARK    7  A    between atoms: O_13  and  C_14
REMARK    8  A    between atoms: C_15  and  C_27
REMARK    9  A    between atoms: C_19  and  O_26
REMARK   10  A    between atoms: C_21  and  O_25
REMARK   11  A    between atoms: C_29  and  O_34
REMARK   12  A    between atoms: C_30  and  O_33
REMARK                            x       y       z     vdW  Elec       q    Type
REMARK                         _______ _______ _______ _____ _____    ______ ____
ROOT
ATOM      1  C   UNL     1       8.313  -1.946  23.252  0.00  0.00    +0.214 A 
ATOM      2  C   UNL     1       8.630  -0.729  22.435  0.00  0.00    +0.238 A 
ATOM      3  O   UNL     1       8.961  -0.823  21.260  0.00  0.00    -0.283 OA
ATOM      4  C   UNL     1       8.605   0.576  23.143  0.00  0.00    +0.109 A 
ATOM      5  C   UNL     1       8.303   0.579  24.505  0.00  0.00    +0.147 A 
ATOM      6  C   UNL     1       8.284   1.767  25.241  0.00  0.00    +0.092 A 
ATOM      7  C   UNL     1       8.591   2.962  24.608  0.00  0.00    +0.124 A 
ATOM      8  C   UNL     1       8.907   2.987  23.255  0.00  0.00    +0.091 A 
ATOM      9  O   UNL     1       8.037  -0.557  25.216  0.00  0.00    -0.451 OA
ATOM     10  C   UNL     1       8.910   1.796  22.522  0.00  0.00    +0.135 A 
ATOM     11  C   UNL     1       8.094  -1.770  24.568  0.00  0.00    +0.181 A 
ENDROOT
BRANCH  11  12
ATOM     12  C   UNL     1       7.974  -2.894  25.512  0.00  0.00    +0.025 A 
ATOM     13  C   UNL     1       8.914  -3.934  25.536  0.00  0.00    +0.015 A 
ATOM     14  C   UNL     1       8.733  -5.025  26.393  0.00  0.00    +0.050 A 
ATOM     15  C   UNL     1       7.608  -5.073  27.206  0.00  0.00    +0.158 A 
ATOM     16  C   UNL     1       6.665  -4.050  27.178  0.00  0.00    +0.159 A 
ATOM     17  C   UNL     1       6.841  -2.953  26.342  0.00  0.00    +0.060 A 
BRANCH  15  18
ATOM     18  O   UNL     1       7.422  -6.145  28.030  0.00  0.00    -0.503 OA
ATOM     19  H   UNL     1       6.900  -6.777  27.496  0.00  0.00    +0.292 HD
ENDBRANCH  15  18
BRANCH  16  20
ATOM     20  O   UNL     1       5.559  -4.184  27.970  0.00  0.00    -0.503 OA
ATOM     21  H   UNL     1       5.401  -5.136  28.114  0.00  0.00    +0.292 HD
ENDBRANCH  16  20
ENDBRANCH  11  12
BRANCH   7  22
ATOM     22  O   UNL     1       8.603   4.144  25.285  0.00  0.00    -0.507 OA
ATOM     23  H   UNL     1       8.866   4.858  24.678  0.00  0.00    +0.292 HD
ENDBRANCH   7  22
BRANCH  10  24
ATOM     24  O   UNL     1       9.222   1.853  21.193  0.00  0.00    -0.506 OA
ATOM     25  H   UNL     1       8.451   1.616  20.653  0.00  0.00    +0.292 HD
ENDBRANCH  10  24
BRANCH   1  26
ATOM     26  O   UNL     1       8.356  -3.220  22.709  0.00  0.00    -0.453 OA
BRANCH  26  29
ATOM     27  C   UNL     1       5.350  -4.357  23.615  0.00  0.00    +0.182 C 
ATOM     28  O   UNL     1       5.956  -3.261  22.916  0.00  0.00    -0.331 OA
ATOM     29  C   UNL     1       7.119  -3.760  22.213  0.00  0.00    +0.340 C 
ATOM     30  C   UNL     1       7.170  -5.283  22.445  0.00  0.00    +0.214 C 
ATOM     31  C   UNL     1       5.749  -5.618  22.851  0.00  0.00    +0.180 C 
BRANCH  27  33
ATOM     32  C   UNL     1       3.414  -3.482  25.043  0.00  0.00    +0.040 C 
ATOM     33  C   UNL     1       3.831  -4.185  23.756  0.00  0.00    +0.143 C 
BRANCH  33  34
ATOM     34  O   UNL     1       3.230  -5.483  23.691  0.00  0.00    -0.389 OA
ATOM     35  H   UNL     1       3.908  -6.148  23.908  0.00  0.00    +0.210 HD
ENDBRANCH  33  34
ENDBRANCH  27  33
BRANCH  30  36
ATOM     36  O   UNL     1       7.561  -6.031  21.291  0.00  0.00    -0.383 OA
ATOM     37  H   UNL     1       8.344  -6.545  21.582  0.00  0.00    +0.210 HD
ENDBRANCH  30  36
BRANCH  31  38
ATOM     38  O   UNL     1       4.979  -5.830  21.656  0.00  0.00    -0.386 OA
ATOM     39  H   UNL     1       4.614  -4.958  21.408  0.00  0.00    +0.210 HD
ENDBRANCH  31  38
ENDBRANCH  26  29
ENDBRANCH   1  26
TORSDOF 11
ENDMDL
MODEL 2
REMARK VINA RESULT:      -7.1      2.203      6.849
REMARK  Name = 
REMARK  12 active torsions:
REMARK  status: ('A' for Active; 'I' for Inactive)
REMARK    1  A    between atoms: C_1  and  C_2
REMARK    2  A    between atoms: C_2  and  C_4
REMARK    3  A    between atoms: C_2  and  O_37
REMARK    4  A    between atoms: C_6  and  O_36
REMARK    5  A    between atoms: C_8  and  O_35
REMARK    6  A    between atoms: C_10  and  O_13
REMARK    7  A    between atoms: O_13  and  C_14
REMARK    8  A    between atoms: C_15  and  C_27
REMARK    9  A    between atoms: C_19  and  O_26
REMARK   10  A    between atoms: C_21  and  O_25
REMARK   11  A    between atoms: C_29  and  O_34
REMARK   12  A    between atoms: C_30  and  O_33
REMARK                            x       y       z     vdW  Elec       q    Type
REMARK                         _______ _______ _______ _____ _____    ______ ____
ROOT
ATOM      1  C   UNL     1       5.704  -2.713  24.108  0.00  0.00    +0.214 A 
ATOM      2  C   UNL     1       5.047  -3.858  23.396  0.00  0.00    +0.238 A 
ATOM      3  O   UNL     1       4.964  -3.881  22.175  0.00  0.00    -0.283 OA
ATOM      4  C   UNL     1       4.432  -4.909  24.246  0.00  0.00    +0.109 A 
ATOM      5  C   UNL     1       4.498  -4.755  25.631  0.00  0.00    +0.147 A 
ATOM      6  C   UNL     1       3.921  -5.692  26.493  0.00  0.00    +0.092 A 
ATOM      7  C   UNL     1       3.254  -6.785  25.958  0.00  0.00    +0.124 A 
ATOM      8  C   UNL     1       3.164  -6.957  24.583  0.00  0.00    +0.091 A 
ATOM      9  O   UNL     1       5.091  -3.685  26.240  0.00  0.00    -0.451 OA
ATOM     10  C   UNL     1       3.756  -6.022  23.727  0.00  0.00    +0.135 A 
ATOM     11  C   UNL     1       5.630  -2.693  25.452  0.00  0.00    +0.181 A 
ENDROOT
BRANCH  11  12
ATOM     12  C   UNL     1       6.053  -1.534  26.255  0.00  0.00    +0.025 A 
ATOM     13  C   UNL     1       5.199  -0.441  26.470  0.00  0.00    +0.015 A 
ATOM     14  C   UNL     1       5.655   0.677  27.175  0.00  0.00    +0.050 A 
ATOM     15  C   UNL     1       6.961   0.701  27.646  0.00  0.00    +0.158 A 
ATOM     16  C   UNL     1       7.817  -0.375  27.426  0.00  0.00    +0.159 A 
ATOM     17  C   UNL     1       7.371  -1.498  26.739  0.00  0.00    +0.060 A 
BRANCH  15  18
ATOM     18  O   UNL     1       7.411   1.799  28.320  0.00  0.00    -0.503 OA
ATOM     19  H   UNL     1       8.140   1.462  28.879  0.00  0.00    +0.292 HD
ENDBRANCH  15  18
BRANCH  16  20
ATOM     20  O   UNL     1       9.102  -0.265  27.876  0.00  0.00    -0.503 OA
ATOM     21  H   UNL     1       9.369  -1.126  28.251  0.00  0.00    +0.292 HD
ENDBRANCH  16  20
ENDBRANCH  11  12
BRANCH   7  22
ATOM     22  O   UNL     1       2.662  -7.717  26.756  0.00  0.00    -0.507 OA
ATOM     23  H   UNL     1       2.251  -7.272  27.517  0.00  0.00    +0.292 HD
ENDBRANCH   7  22
BRANCH  10  24
ATOM     24  O   UNL     1       3.652  -6.220  22.379  0.00  0.00    -0.506 OA
ATOM     25  H   UNL     1       2.733  -6.416  22.136  0.00  0.00    +0.292 HD
ENDBRANCH  10  24
BRANCH   1  26
ATOM     26  O   UNL     1       6.264  -1.650  23.418  0.00  0.00    -0.453 OA
BRANCH  26  29
ATOM     27  C   UNL     1       8.870  -0.041  22.087  0.00  0.00    +0.182 C 
ATOM     28  O   UNL     1       8.175  -0.184  23.333  0.00  0.00    -0.331 OA
ATOM     29  C   UNL     1       7.699  -1.547  23.433  0.00  0.00    +0.340 C 
ATOM     30  C   UNL     1       8.214  -2.299  22.189  0.00  0.00    +0.214 C 
ATOM     31  C   UNL     1       9.368  -1.438  21.719  0.00  0.00    +0.180 C 
BRANCH  27  33
ATOM     32  C   UNL     1      10.279   1.483  23.585  0.00  0.00    +0.040 C 
ATOM     33  C   UNL     1       9.991   1.004  22.166  0.00  0.00    +0.143 C 
BRANCH  33  34
ATOM     34  O   UNL     1       9.621   2.115  21.341  0.00  0.00    -0.389 OA
ATOM     35  H   UNL     1       9.049   2.708  21.860  0.00  0.00    +0.210 HD
ENDBRANCH  33  34
ENDBRANCH  27  33
BRANCH  30  36
ATOM     36  O   UNL     1       8.649  -3.634  22.460  0.00  0.00    -0.383 OA
ATOM     37  H   UNL     1       8.320  -3.823  23.365  0.00  0.00    +0.210 HD
ENDBRANCH  30  36
BRANCH  31  38
ATOM     38  O   UNL     1      10.546  -1.834  22.441  0.00  0.00    -0.386 OA
ATOM     39  H   UNL     1      10.385  -2.747  22.747  0.00  0.00    +0.210 HD
ENDBRANCH  31  38
ENDBRANCH  26  29
ENDBRANCH   1  26
TORSDOF 11
ENDMDL
MODEL 3
REMARK VINA RESULT:      -6.9      1.537      4.442
REMARK  Name = 
REMARK  12 active torsions:
REMARK  status: ('A' for Active; 'I' for Inactive)
REMARK    1  A    between atoms: C_1  and  C_2
REMARK    2  A    between atoms: C_2  and  C_4
REMARK    3  A    between atoms: C_2  and  O_37
REMARK    4  A    between atoms: C_6  and  O_36
REMARK    5  A    between atoms: C_8  and  O_35
REMARK    6  A    between atoms: C_10  and  O_13
REMARK    7  A    between atoms: O_13  and  C_14
REMARK    8  A    between atoms: C_15  and  C_27
REMARK    9  A    between atoms: C_19  and  O_26
REMARK   10  A    between atoms: C_21  and  O_25
REMARK   11  A    between atoms: C_29  and  O_34
REMARK   12  A    between atoms: C_30  and  O_33
REMARK                            x       y       z     vdW  Elec       q    Type
REMARK                         _______ _______ _______ _____ _____    ______ ____
ROOT
ATOM      1  C   UNL     1       6.267  -0.892  24.369  0.00  0.00    +0.214 A 
ATOM      2  C   UNL     1       6.546   0.561  24.613  0.00  0.00    +0.238 A 
ATOM      3  O   UNL     1       5.823   1.233  25.338  0.00  0.00    -0.283 OA
ATOM      4  C   UNL     1       7.685   1.157  23.869  0.00  0.00    +0.109 A 
ATOM      5  C   UNL     1       8.401   0.336  22.997  0.00  0.00    +0.147 A 
ATOM      6  C   UNL     1       9.469   0.834  22.245  0.00  0.00    +0.092 A 
ATOM      7  C   UNL     1       9.810   2.174  22.356  0.00  0.00    +0.124 A 
ATOM      8  C   UNL     1       9.108   3.016  23.209  0.00  0.00    +0.091 A 
ATOM      9  O   UNL     1       8.100  -0.981  22.790  0.00  0.00    -0.451 OA
ATOM     10  C   UNL     1       8.049   2.507  23.968  0.00  0.00    +0.135 A 
ATOM     11  C   UNL     1       7.024  -1.524  23.453  0.00  0.00    +0.181 A 
ENDROOT
BRANCH  11  12
ATOM     12  C   UNL     1       6.725  -2.885  22.975  0.00  0.00    +0.025 A 
ATOM     13  C   UNL     1       5.440  -3.243  22.541  0.00  0.00    +0.015 A 
ATOM     14  C   UNL     1       5.169  -4.561  22.163  0.00  0.00    +0.050 A 
ATOM     15  C   UNL     1       6.178  -5.513  22.237  0.00  0.00    +0.158 A 
ATOM     16  C   UNL     1       7.451  -5.167  22.679  0.00  0.00    +0.159 A 
ATOM     17  C   UNL     1       7.737  -3.857  23.043  0.00  0.00    +0.060 A 
BRANCH  15  18
ATOM     18  O   UNL     1       5.909  -6.804  21.884  0.00  0.00    -0.503 OA
ATOM     19  H   UNL     1       6.463  -6.962  21.092  0.00  0.00    +0.292 HD
ENDBRANCH  15  18
BRANCH  16  20
ATOM     20  O   UNL     1       8.383  -6.163  22.771  0.00  0.00    -0.503 OA
ATOM     21  H   UNL     1       9.234  -5.761  23.029  0.00  0.00    +0.292 HD
ENDBRANCH  16  20
ENDBRANCH  11  12
BRANCH   7  22
ATOM     22  O   UNL     1      10.833   2.710  21.634  0.00  0.00    -0.507 OA
ATOM     23  H   UNL     1      10.490   3.434  21.082  0.00  0.00    +0.292 HD
ENDBRANCH   7  22
BRANCH  10  24
ATOM     24  O   UNL     1       7.378   3.359  24.799  0.00  0.00    -0.506 OA
ATOM     25  H   UNL     1       6.572   2.938  25.137  0.00  0.00    +0.292 HD
ENDBRANCH  10  24
BRANCH   1  26
ATOM     26  O   UNL     1       5.199  -1.540  24.969  0.00  0.00    -0.453 OA
BRANCH  26  29
ATOM     27  C   UNL     1       6.783  -4.142  26.339  0.00  0.00    +0.182 C 
ATOM     28  O   UNL     1       6.821  -2.708  26.315  0.00  0.00    -0.331 OA
ATOM     29  C   UNL     1       5.463  -2.221  26.209  0.00  0.00    +0.340 C 
ATOM     30  C   UNL     1       4.535  -3.452  26.250  0.00  0.00    +0.214 C 
ATOM     31  C   UNL     1       5.405  -4.518  26.881  0.00  0.00    +0.180 C 
BRANCH  27  33
ATOM     32  C   UNL     1       9.235  -4.876  26.355  0.00  0.00    +0.040 C 
ATOM     33  C   UNL     1       7.941  -4.738  27.150  0.00  0.00    +0.143 C 
BRANCH  33  34
ATOM     34  O   UNL     1       7.527  -6.020  27.636  0.00  0.00    -0.389 OA
ATOM     35  H   UNL     1       7.697  -6.057  28.594  0.00  0.00    +0.210 HD
ENDBRANCH  33  34
ENDBRANCH  27  33
BRANCH  30  36
ATOM     36  O   UNL     1       3.341  -3.250  27.011  0.00  0.00    -0.383 OA
ATOM     37  H   UNL     1       3.656  -3.065  27.921  0.00  0.00    +0.210 HD
ENDBRANCH  30  36
BRANCH  31  38
ATOM     38  O   UNL     1       5.300  -4.396  28.309  0.00  0.00    -0.386 OA
ATOM     39  H   UNL     1       4.387  -4.656  28.539  0.00  0.00    +0.210 HD
ENDBRANCH  31  38
ENDBRANCH  26  29
ENDBRANCH   1  26
TORSDOF 11
ENDMDL
MODEL 4
REMARK VINA RESULT:      -6.9      2.254      3.319
REMARK  Name = 
REMARK  12 active torsions:
REMARK  status: ('A' for Active; 'I' for Inactive)
REMARK    1  A    between atoms: C_1  and  C_2
REMARK    2  A    between atoms: C_2  and  C_4
REMARK    3  A    between atoms: C_2  and  O_37
REMARK    4  A    between atoms: C_6  and  O_36
REMARK    5  A    between atoms: C_8  and  O_35
REMARK    6  A    between atoms: C_10  and  O_13
REMARK    7  A    between atoms: O_13  and  C_14
REMARK    8  A    between atoms: C_15  and  C_27
REMARK    9  A    between atoms: C_19  and  O_26
REMARK   10  A    between atoms: C_21  and  O_25
REMARK   11  A    between atoms: C_29  and  O_34
REMARK   12  A    between atoms: C_30  and  O_33
REMARK                            x       y       z     vdW  Elec       q    Type
REMARK                         _______ _______ _______ _____ _____    ______ ____
ROOT
ATOM      1  C   UNL     1       7.060  -4.264  24.813  0.00  0.00    +0.214 A 
ATOM      2  C   UNL     1       7.872  -3.649  23.713  0.00  0.00    +0.238 A 
ATOM      3  O   UNL     1       7.961  -4.184  22.615  0.00  0.00    -0.283 OA
ATOM      4  C   UNL     1       8.625  -2.414  24.048  0.00  0.00    +0.109 A 
ATOM      5  C   UNL     1       8.535  -1.922  25.351  0.00  0.00    +0.147 A 
ATOM      6  C   UNL     1       9.235  -0.778  25.745  0.00  0.00    +0.092 A 
ATOM      7  C   UNL     1      10.049  -0.132  24.827  0.00  0.00    +0.124 A 
ATOM      8  C   UNL     1      10.166  -0.605  23.526  0.00  0.00    +0.091 A 
ATOM      9  O   UNL     1       7.796  -2.526  26.330  0.00  0.00    -0.451 OA
ATOM     10  C   UNL     1       9.451  -1.742  23.135  0.00  0.00    +0.135 A 
ATOM     11  C   UNL     1       7.126  -3.689  26.029  0.00  0.00    +0.181 A 
ENDROOT
BRANCH  11  12
ATOM     12  C   UNL     1       6.544  -4.306  27.233  0.00  0.00    +0.025 A 
ATOM     13  C   UNL     1       7.031  -5.518  27.744  0.00  0.00    +0.015 A 
ATOM     14  C   UNL     1       6.410  -6.115  28.845  0.00  0.00    +0.050 A 
ATOM     15  C   UNL     1       5.300  -5.505  29.416  0.00  0.00    +0.158 A 
ATOM     16  C   UNL     1       4.806  -4.308  28.907  0.00  0.00    +0.159 A 
ATOM     17  C   UNL     1       5.423  -3.697  27.822  0.00  0.00    +0.060 A 
BRANCH  15  18
ATOM     18  O   UNL     1       4.684  -6.096  30.481  0.00  0.00    -0.503 OA
ATOM     19  H   UNL     1       5.302  -6.801  30.762  0.00  0.00    +0.292 HD
ENDBRANCH  15  18
BRANCH  16  20
ATOM     20  O   UNL     1       3.684  -3.787  29.488  0.00  0.00    -0.503 OA
ATOM     21  H   UNL     1       3.095  -4.526  29.732  0.00  0.00    +0.292 HD
ENDBRANCH  16  20
ENDBRANCH  11  12
BRANCH   7  22
ATOM     22  O   UNL     1      10.764   0.977  25.166  0.00  0.00    -0.507 OA
ATOM     23  H   UNL     1      10.216   1.550  25.731  0.00  0.00    +0.292 HD
ENDBRANCH   7  22
BRANCH  10  24
ATOM     24  O   UNL     1       9.585  -2.183  21.849  0.00  0.00    -0.506 OA
ATOM     25  H   UNL     1      10.500  -2.067  21.545  0.00  0.00    +0.292 HD
ENDBRANCH  10  24
BRANCH   1  26
ATOM     26  O   UNL     1       6.359  -5.445  24.630  0.00  0.00    -0.453 OA
BRANCH  26  29
ATOM     27  C   UNL     1       3.552  -7.198  24.185  0.00  0.00    +0.182 C 
ATOM     28  O   UNL     1       4.196  -6.366  25.159  0.00  0.00    -0.331 OA
ATOM     29  C   UNL     1       4.934  -5.337  24.459  0.00  0.00    +0.340 C 
ATOM     30  C   UNL     1       4.649  -5.519  22.954  0.00  0.00    +0.214 C 
ATOM     31  C   UNL     1       3.369  -6.329  22.942  0.00  0.00    +0.180 C 
BRANCH  27  33
ATOM     32  C   UNL     1       1.682  -7.063  25.928  0.00  0.00    +0.040 C 
ATOM     33  C   UNL     1       2.238  -7.793  24.710  0.00  0.00    +0.143 C 
BRANCH  33  34
ATOM     34  O   UNL     1       2.472  -9.169  25.031  0.00  0.00    -0.389 OA
ATOM     35  H   UNL     1       2.507  -9.259  26.000  0.00  0.00    +0.210 HD
ENDBRANCH  33  34
ENDBRANCH  27  33
BRANCH  30  36
ATOM     36  O   UNL     1       4.482  -4.288  22.245  0.00  0.00    -0.383 OA
ATOM     37  H   UNL     1       5.215  -3.718  22.561  0.00  0.00    +0.210 HD
ENDBRANCH  30  36
BRANCH  31  38
ATOM     38  O   UNL     1       2.261  -5.419  23.038  0.00  0.00    -0.386 OA
ATOM     39  H   UNL     1       2.521  -4.740  23.690  0.00  0.00    +0.210 HD
ENDBRANCH  31  38
ENDBRANCH  26  29
ENDBRANCH   1  26
TORSDOF 11
ENDMDL
MODEL 5
REMARK VINA RESULT:      -6.8      1.720      4.286
REMARK  Name = 
REMARK  12 active torsions:
REMARK  status: ('A' for Active; 'I' for Inactive)
REMARK    1  A    between atoms: C_1  and  C_2
REMARK    2  A    between atoms: C_2  and  C_4
REMARK    3  A    between atoms: C_2  and  O_37
REMARK    4  A    between atoms: C_6  and  O_36
REMARK    5  A    between atoms: C_8  and  O_35
REMARK    6  A    between atoms: C_10  and  O_13
REMARK    7  A    between atoms: O_13  and  C_14
REMARK    8  A    between atoms: C_15  and  C_27
REMARK    9  A    between atoms: C_19  and  O_26
REMARK   10  A    between atoms: C_21  and  O_25
REMARK   11  A    between atoms: C_29  and  O_34
REMARK   12  A    between atoms: C_30  and  O_33
REMARK                            x       y       z     vdW  Elec       q    Type
REMARK                         _______ _______ _______ _____ _____    ______ ____
ROOT
ATOM      1  C   UNL     1       7.000  -1.542  24.711  0.00  0.00    +0.214 A 
ATOM      2  C   UNL     1       7.343  -0.202  25.290  0.00  0.00    +0.238 A 
ATOM      3  O   UNL     1       6.824   0.193  26.326  0.00  0.00    -0.283 OA
ATOM      4  C   UNL     1       8.272   0.648  24.503  0.00  0.00    +0.109 A 
ATOM      5  C   UNL     1       8.747   0.152  23.288  0.00  0.00    +0.147 A 
ATOM      6  C   UNL     1       9.605   0.906  22.482  0.00  0.00    +0.092 A 
ATOM      7  C   UNL     1       9.975   2.179  22.891  0.00  0.00    +0.124 A 
ATOM      8  C   UNL     1       9.508   2.702  24.090  0.00  0.00    +0.091 A 
ATOM      9  O   UNL     1       8.393  -1.070  22.788  0.00  0.00    -0.451 OA
ATOM     10  C   UNL     1       8.661   1.936  24.898  0.00  0.00    +0.135 A 
ATOM     11  C   UNL     1       7.506  -1.843  23.501  0.00  0.00    +0.181 A 
ENDROOT
BRANCH  11  12
ATOM     12  C   UNL     1       7.087  -3.030  22.736  0.00  0.00    +0.025 A 
ATOM     13  C   UNL     1       5.905  -3.035  21.980  0.00  0.00    +0.015 A 
ATOM     14  C   UNL     1       5.497  -4.201  21.325  0.00  0.00    +0.050 A 
ATOM     15  C   UNL     1       6.263  -5.354  21.443  0.00  0.00    +0.158 A 
ATOM     16  C   UNL     1       7.430  -5.358  22.201  0.00  0.00    +0.159 A 
ATOM     17  C   UNL     1       7.855  -4.202  22.845  0.00  0.00    +0.060 A 
BRANCH  15  18
ATOM     18  O   UNL     1       5.856  -6.496  20.817  0.00  0.00    -0.503 OA
ATOM     19  H   UNL     1       5.089  -6.219  20.276  0.00  0.00    +0.292 HD
ENDBRANCH  15  18
BRANCH  16  20
ATOM     20  O   UNL     1       8.110  -6.538  22.312  0.00  0.00    -0.503 OA
ATOM     21  H   UNL     1       7.505  -7.263  22.066  0.00  0.00    +0.292 HD
ENDBRANCH  16  20
ENDBRANCH  11  12
BRANCH   7  22
ATOM     22  O   UNL     1      10.795   2.959  22.134  0.00  0.00    -0.507 OA
ATOM     23  H   UNL     1      11.131   2.437  21.384  0.00  0.00    +0.292 HD
ENDBRANCH   7  22
BRANCH  10  24
ATOM     24  O   UNL     1       8.220   2.478  26.072  0.00  0.00    -0.506 OA
ATOM     25  H   UNL     1       7.344   2.879  25.953  0.00  0.00    +0.292 HD
ENDBRANCH  10  24
BRANCH   1  26
ATOM     26  O   UNL     1       6.104  -2.397  25.333  0.00  0.00    -0.453 OA
BRANCH  26  29
ATOM     27  C   UNL     1       5.325  -5.270  26.846  0.00  0.00    +0.182 C 
ATOM     28  O   UNL     1       5.470  -4.713  25.533  0.00  0.00    -0.331 OA
ATOM     29  C   UNL     1       6.546  -3.746  25.567  0.00  0.00    +0.340 C 
ATOM     30  C   UNL     1       7.142  -3.781  26.988  0.00  0.00    +0.214 C 
ATOM     31  C   UNL     1       6.690  -5.126  27.519  0.00  0.00    +0.180 C 
BRANCH  27  33
ATOM     32  C   UNL     1       3.298  -6.826  26.700  0.00  0.00    +0.040 C 
ATOM     33  C   UNL     1       4.815  -6.717  26.808  0.00  0.00    +0.143 C 
BRANCH  33  34
ATOM     34  O   UNL     1       5.268  -7.378  27.996  0.00  0.00    -0.389 OA
ATOM     35  H   UNL     1       6.070  -6.926  28.314  0.00  0.00    +0.210 HD
ENDBRANCH  33  34
ENDBRANCH  27  33
BRANCH  30  36
ATOM     36  O   UNL     1       8.568  -3.673  27.020  0.00  0.00    -0.383 OA
ATOM     37  H   UNL     1       8.741  -2.731  27.234  0.00  0.00    +0.210 HD
ENDBRANCH  30  36
BRANCH  31  38
ATOM     38  O   UNL     1       7.642  -6.117  27.099  0.00  0.00    -0.386 OA
ATOM     39  H   UNL     1       7.572  -6.851  27.740  0.00  0.00    +0.210 HD
ENDBRANCH  31  38
ENDBRANCH  26  29
ENDBRANCH   1  26
TORSDOF 11
ENDMDL
MODEL 6
REMARK VINA RESULT:      -6.8      2.233      3.637
REMARK  Name = 
REMARK  12 active torsions:
REMARK  status: ('A' for Active; 'I' for Inactive)
REMARK    1  A    between atoms: C_1  and  C_2
REMARK    2  A    between atoms: C_2  and  C_4
REMARK    3  A    between atoms: C_2  and  O_37
REMARK    4  A    between atoms: C_6  and  O_36
REMARK    5  A    between atoms: C_8  and  O_35
REMARK    6  A    between atoms: C_10  and  O_13
REMARK    7  A    between atoms: O_13  and  C_14
REMARK    8  A    between atoms: C_15  and  C_27
REMARK    9  A    between atoms: C_19  and  O_26
REMARK   10  A    between atoms: C_21  and  O_25
REMARK   11  A    between atoms: C_29  and  O_34
REMARK   12  A    between atoms: C_30  and  O_33
REMARK                            x       y       z     vdW  Elec       q    Type
REMARK                         _______ _______ _______ _____ _____    ______ ____
ROOT
ATOM      1  C   UNL     1       7.324  -2.633  24.995  0.00  0.00    +0.214 A 
ATOM      2  C   UNL     1       8.466  -2.533  24.029  0.00  0.00    +0.238 A 
ATOM      3  O   UNL     1       9.285  -3.437  23.918  0.00  0.00    -0.283 OA
ATOM      4  C   UNL     1       8.602  -1.255  23.284  0.00  0.00    +0.109 A 
ATOM      5  C   UNL     1       7.674  -0.244  23.540  0.00  0.00    +0.147 A 
ATOM      6  C   UNL     1       7.752   0.993  22.894  0.00  0.00    +0.092 A 
ATOM      7  C   UNL     1       8.785   1.225  21.998  0.00  0.00    +0.124 A 
ATOM      8  C   UNL     1       9.729   0.241  21.733  0.00  0.00    +0.091 A 
ATOM      9  O   UNL     1       6.657  -0.372  24.444  0.00  0.00    -0.451 OA
ATOM     10  C   UNL     1       9.635  -0.999  22.372  0.00  0.00    +0.135 A 
ATOM     11  C   UNL     1       6.552  -1.543  25.159  0.00  0.00    +0.181 A 
ENDROOT
BRANCH  11  12
ATOM     12  C   UNL     1       5.531  -1.442  26.215  0.00  0.00    +0.025 A 
ATOM     13  C   UNL     1       4.258  -2.010  26.060  0.00  0.00    +0.015 A 
ATOM     14  C   UNL     1       3.286  -1.833  27.049  0.00  0.00    +0.050 A 
ATOM     15  C   UNL     1       3.588  -1.081  28.177  0.00  0.00    +0.158 A 
ATOM     16  C   UNL     1       4.846  -0.505  28.331  0.00  0.00    +0.159 A 
ATOM     17  C   UNL     1       5.826  -0.685  27.362  0.00  0.00    +0.060 A 
BRANCH  15  18
ATOM     18  O   UNL     1       2.634  -0.895  29.135  0.00  0.00    -0.503 OA
ATOM     19  H   UNL     1       3.057  -0.304  29.790  0.00  0.00    +0.292 HD
ENDBRANCH  15  18
BRANCH  16  20
ATOM     20  O   UNL     1       5.061   0.261  29.442  0.00  0.00    -0.503 OA
ATOM     21  H   UNL     1       4.196   0.462  29.847  0.00  0.00    +0.292 HD
ENDBRANCH  16  20
ENDBRANCH  11  12
BRANCH   7  22
ATOM     22  O   UNL     1       8.914   2.420  21.355  0.00  0.00    -0.507 OA
ATOM     23  H   UNL     1       8.847   3.141  22.004  0.00  0.00    +0.292 HD
ENDBRANCH   7  22
BRANCH  10  24
ATOM     24  O   UNL     1      10.577  -1.947  22.089  0.00  0.00    -0.506 OA
ATOM     25  H   UNL     1      11.431  -1.703  22.481  0.00  0.00    +0.292 HD
ENDBRANCH  10  24
BRANCH   1  26
ATOM     26  O   UNL     1       7.131  -3.757  25.781  0.00  0.00    -0.453 OA
BRANCH  26  29
ATOM     27  C   UNL     1       4.362  -4.838  24.258  0.00  0.00    +0.182 C 
ATOM     28  O   UNL     1       5.740  -4.551  23.980  0.00  0.00    -0.331 OA
ATOM     29  C   UNL     1       6.519  -4.896  25.150  0.00  0.00    +0.340 C 
ATOM     30  C   UNL     1       5.546  -5.509  26.178  0.00  0.00    +0.214 C 
ATOM     31  C   UNL     1       4.365  -5.929  25.327  0.00  0.00    +0.180 C 
BRANCH  27  33
ATOM     32  C   UNL     1       2.172  -5.724  23.273  0.00  0.00    +0.040 C 
ATOM     33  C   UNL     1       3.586  -5.227  22.992  0.00  0.00    +0.143 C 
BRANCH  33  34
ATOM     34  O   UNL     1       4.333  -6.241  22.309  0.00  0.00    -0.389 OA
ATOM     35  H   UNL     1       5.131  -6.441  22.830  0.00  0.00    +0.210 HD
ENDBRANCH  33  34
ENDBRANCH  27  33
BRANCH  30  36
ATOM     36  O   UNL     1       6.085  -6.625  26.890  0.00  0.00    -0.383 OA
ATOM     37  H   UNL     1       6.430  -6.243  27.726  0.00  0.00    +0.210 HD
ENDBRANCH  30  36
BRANCH  31  38
ATOM     38  O   UNL     1       4.632  -7.241  24.805  0.00  0.00    -0.386 OA
ATOM     39  H   UNL     1       3.914  -7.434  24.172  0.00  0.00    +0.210 HD
ENDBRANCH  31  38
ENDBRANCH  26  29
ENDBRANCH   1  26
TORSDOF 11
ENDMDL
MODEL 7
REMARK VINA RESULT:      -6.8      1.903      3.432
REMARK  Name = 
REMARK  12 active torsions:
REMARK  status: ('A' for Active; 'I' for Inactive)
REMARK    1  A    between atoms: C_1  and  C_2
REMARK    2  A    between atoms: C_2  and  C_4
REMARK    3  A    between atoms: C_2  and  O_37
REMARK    4  A    between atoms: C_6  and  O_36
REMARK    5  A    between atoms: C_8  and  O_35
REMARK    6  A    between atoms: C_10  and  O_13
REMARK    7  A    between atoms: O_13  and  C_14
REMARK    8  A    between atoms: C_15  and  C_27
REMARK    9  A    between atoms: C_19  and  O_26
REMARK   10  A    between atoms: C_21  and  O_25
REMARK   11  A    between atoms: C_29  and  O_34
REMARK   12  A    between atoms: C_30  and  O_33
REMARK                            x       y       z     vdW  Elec       q    Type
REMARK                         _______ _______ _______ _____ _____    ______ ____
ROOT
ATOM      1  C   UNL     1       8.200  -0.888  25.027  0.00  0.00    +0.214 A 
ATOM      2  C   UNL     1       9.117   0.188  24.526  0.00  0.00    +0.238 A 
ATOM      3  O   UNL     1      10.316   0.165  24.774  0.00  0.00    -0.283 OA
ATOM      4  C   UNL     1       8.488   1.316  23.794  0.00  0.00    +0.109 A 
ATOM      5  C   UNL     1       7.101   1.303  23.635  0.00  0.00    +0.147 A 
ATOM      6  C   UNL     1       6.437   2.343  22.978  0.00  0.00    +0.092 A 
ATOM      7  C   UNL     1       7.170   3.417  22.494  0.00  0.00    +0.124 A 
ATOM      8  C   UNL     1       8.550   3.461  22.648  0.00  0.00    +0.091 A 
ATOM      9  O   UNL     1       6.300   0.311  24.124  0.00  0.00    -0.451 OA
ATOM     10  C   UNL     1       9.209   2.410  23.294  0.00  0.00    +0.135 A 
ATOM     11  C   UNL     1       6.879  -0.717  24.832  0.00  0.00    +0.181 A 
ENDROOT
BRANCH  11  12
ATOM     12  C   UNL     1       5.865  -1.590  25.447  0.00  0.00    +0.025 A 
ATOM     13  C   UNL     1       5.659  -1.609  26.835  0.00  0.00    +0.015 A 
ATOM     14  C   UNL     1       4.741  -2.502  27.395  0.00  0.00    +0.050 A 
ATOM     15  C   UNL     1       4.048  -3.377  26.568  0.00  0.00    +0.158 A 
ATOM     16  C   UNL     1       4.256  -3.371  25.192  0.00  0.00    +0.159 A 
ATOM     17  C   UNL     1       5.156  -2.478  24.621  0.00  0.00    +0.060 A 
BRANCH  15  18
ATOM     18  O   UNL     1       3.163  -4.260  27.117  0.00  0.00    -0.503 OA
ATOM     19  H   UNL     1       2.548  -3.701  27.634  0.00  0.00    +0.292 HD
ENDBRANCH  15  18
BRANCH  16  20
ATOM     20  O   UNL     1       3.576  -4.289  24.443  0.00  0.00    -0.503 OA
ATOM     21  H   UNL     1       3.749  -4.104  23.501  0.00  0.00    +0.292 HD
ENDBRANCH  16  20
ENDBRANCH  11  12
BRANCH   7  22
ATOM     22  O   UNL     1       6.568   4.462  21.861  0.00  0.00    -0.507 OA
ATOM     23  H   UNL     1       5.888   4.841  22.444  0.00  0.00    +0.292 HD
ENDBRANCH   7  22
BRANCH  10  24
ATOM     24  O   UNL     1      10.566   2.481  23.429  0.00  0.00    -0.506 OA
ATOM     25  H   UNL     1      10.923   1.627  23.724  0.00  0.00    +0.292 HD
ENDBRANCH  10  24
BRANCH   1  26
ATOM     26  O   UNL     1       8.670  -1.961  25.767  0.00  0.00    -0.453 OA
BRANCH  26  29
ATOM     27  C   UNL     1       7.669  -4.416  23.736  0.00  0.00    +0.182 C 
ATOM     28  O   UNL     1       8.487  -3.238  23.731  0.00  0.00    -0.331 OA
ATOM     29  C   UNL     1       9.112  -3.115  25.031  0.00  0.00    +0.340 C 
ATOM     30  C   UNL     1       8.699  -4.354  25.851  0.00  0.00    +0.214 C 
ATOM     31  C   UNL     1       8.273  -5.345  24.788  0.00  0.00    +0.180 C 
BRANCH  27  33
ATOM     32  C   UNL     1       6.453  -4.469  21.484  0.00  0.00    +0.040 C 
ATOM     33  C   UNL     1       7.567  -5.055  22.345  0.00  0.00    +0.143 C 
BRANCH  33  34
ATOM     34  O   UNL     1       7.362  -6.462  22.518  0.00  0.00    -0.389 OA
ATOM     35  H   UNL     1       8.230  -6.891  22.615  0.00  0.00    +0.210 HD
ENDBRANCH  33  34
ENDBRANCH  27  33
BRANCH  30  36
ATOM     36  O   UNL     1       9.751  -4.891  26.657  0.00  0.00    -0.383 OA
ATOM     37  H   UNL     1      10.496  -4.262  26.543  0.00  0.00    +0.210 HD
ENDBRANCH  30  36
BRANCH  31  38
ATOM     38  O   UNL     1       9.442  -6.043  24.330  0.00  0.00    -0.386 OA
ATOM     39  H   UNL     1       9.119  -6.825  23.842  0.00  0.00    +0.210 HD
ENDBRANCH  31  38
ENDBRANCH  26  29
ENDBRANCH   1  26
TORSDOF 11
ENDMDL
MODEL 8
REMARK VINA RESULT:      -6.8      2.202      7.221
REMARK  Name = 
REMARK  12 active torsions:
REMARK  status: ('A' for Active; 'I' for Inactive)
REMARK    1  A    between atoms: C_1  and  C_2
REMARK    2  A    between atoms: C_2  and  C_4
REMARK    3  A    between atoms: C_2  and  O_37
REMARK    4  A    between atoms: C_6  and  O_36
REMARK    5  A    between atoms: C_8  and  O_35
REMARK    6  A    between atoms: C_10  and  O_13
REMARK    7  A    between atoms: O_13  and  C_14
REMARK    8  A    between atoms: C_15  and  C_27
REMARK    9  A    between atoms: C_19  and  O_26
REMARK   10  A    between atoms: C_21  and  O_25
REMARK   11  A    between atoms: C_29  and  O_34
REMARK   12  A    between atoms: C_30  and  O_33
REMARK                            x       y       z     vdW  Elec       q    Type
REMARK                         _______ _______ _______ _____ _____    ______ ____
ROOT
ATOM      1  C   UNL     1       7.282  -3.454  25.148  0.00  0.00    +0.214 A 
ATOM      2  C   UNL     1       6.669  -4.676  25.762  0.00  0.00    +0.238 A 
ATOM      3  O   UNL     1       7.113  -5.157  26.797  0.00  0.00    -0.283 OA
ATOM      4  C   UNL     1       5.561  -5.318  25.010  0.00  0.00    +0.109 A 
ATOM      5  C   UNL     1       5.178  -4.752  23.794  0.00  0.00    +0.147 A 
ATOM      6  C   UNL     1       4.159  -5.314  23.020  0.00  0.00    +0.092 A 
ATOM      7  C   UNL     1       3.531  -6.469  23.463  0.00  0.00    +0.124 A 
ATOM      8  C   UNL     1       3.899  -7.061  24.665  0.00  0.00    +0.091 A 
ATOM      9  O   UNL     1       5.777  -3.645  23.261  0.00  0.00    -0.451 OA
ATOM     10  C   UNL     1       4.910  -6.483  25.440  0.00  0.00    +0.135 A 
ATOM     11  C   UNL     1       6.827  -3.071  23.940  0.00  0.00    +0.181 A 
ENDROOT
BRANCH  11  12
ATOM     12  C   UNL     1       7.477  -2.017  23.143  0.00  0.00    +0.025 A 
ATOM     13  C   UNL     1       8.734  -2.215  22.553  0.00  0.00    +0.015 A 
ATOM     14  C   UNL     1       9.358  -1.170  21.864  0.00  0.00    +0.050 A 
ATOM     15  C   UNL     1       8.727   0.065  21.782  0.00  0.00    +0.158 A 
ATOM     16  C   UNL     1       7.485   0.271  22.375  0.00  0.00    +0.159 A 
ATOM     17  C   UNL     1       6.848  -0.764  23.050  0.00  0.00    +0.060 A 
BRANCH  15  18
ATOM     18  O   UNL     1       9.343   1.090  21.123  0.00  0.00    -0.503 OA
ATOM     19  H   UNL     1      10.282   0.819  21.071  0.00  0.00    +0.292 HD
ENDBRANCH  15  18
BRANCH  16  20
ATOM     20  O   UNL     1       6.944   1.523  22.296  0.00  0.00    -0.503 OA
ATOM     21  H   UNL     1       7.200   2.018  23.097  0.00  0.00    +0.292 HD
ENDBRANCH  16  20
ENDBRANCH  11  12
BRANCH   7  22
ATOM     22  O   UNL     1       2.543  -7.065  22.738  0.00  0.00    -0.507 OA
ATOM     23  H   UNL     1       2.902  -7.854  22.297  0.00  0.00    +0.292 HD
ENDBRANCH   7  22
BRANCH  10  24
ATOM     24  O   UNL     1       5.249  -7.087  26.618  0.00  0.00    -0.506 OA
ATOM     25  H   UNL     1       4.453  -7.283  27.139  0.00  0.00    +0.292 HD
ENDBRANCH  10  24
BRANCH   1  26
ATOM     26  O   UNL     1       8.356  -2.803  25.734  0.00  0.00    -0.453 OA
BRANCH  26  29
ATOM     27  C   UNL     1       6.178  -0.386  26.485  0.00  0.00    +0.182 C 
ATOM     28  O   UNL     1       6.637  -1.654  26.971  0.00  0.00    -0.331 OA
ATOM     29  C   UNL     1       8.050  -1.766  26.683  0.00  0.00    +0.340 C 
ATOM     30  C   UNL     1       8.489  -0.433  26.045  0.00  0.00    +0.214 C 
ATOM     31  C   UNL     1       7.401   0.530  26.474  0.00  0.00    +0.180 C 
BRANCH  27  33
ATOM     32  C   UNL     1       4.555  -0.776  28.425  0.00  0.00    +0.040 C 
ATOM     33  C   UNL     1       5.011   0.165  27.316  0.00  0.00    +0.143 C 
BRANCH  33  34
ATOM     34  O   UNL     1       3.922   0.436  26.426  0.00  0.00    -0.389 OA
ATOM     35  H   UNL     1       4.243   0.353  25.511  0.00  0.00    +0.210 HD
ENDBRANCH  33  34
ENDBRANCH  27  33
BRANCH  30  36
ATOM     36  O   UNL     1       9.773   0.021  26.481  0.00  0.00    -0.383 OA
ATOM     37  H   UNL     1       9.915   0.864  25.999  0.00  0.00    +0.210 HD
ENDBRANCH  30  36
BRANCH  31  38
ATOM     38  O   UNL     1       7.742   1.043  27.772  0.00  0.00    -0.386 OA
ATOM     39  H   UNL     1       8.649   0.734  27.958  0.00  0.00    +0.210 HD
ENDBRANCH  31  38
ENDBRANCH  26  29
ENDBRANCH   1  26
TORSDOF 11
ENDMDL
MODEL 9
REMARK VINA RESULT:      -6.6      2.453      7.598
REMARK  Name = 
REMARK  12 active torsions:
REMARK  status: ('A' for Active; 'I' for Inactive)
REMARK    1  A    between atoms: C_1  and  C_2
REMARK    2  A    between atoms: C_2  and  C_4
REMARK    3  A    between atoms: C_2  and  O_37
REMARK    4  A    between atoms: C_6  and  O_36
REMARK    5  A    between atoms: C_8  and  O_35
REMARK    6  A    between atoms: C_10  and  O_13
REMARK    7  A    between atoms: O_13  and  C_14
REMARK    8  A    between atoms: C_15  and  C_27
REMARK    9  A    between atoms: C_19  and  O_26
REMARK   10  A    between atoms: C_21  and  O_25
REMARK   11  A    between atoms: C_29  and  O_34
REMARK   12  A    between atoms: C_30  and  O_33
REMARK                            x       y       z     vdW  Elec       q    Type
REMARK                         _______ _______ _______ _____ _____    ______ ____
ROOT
ATOM      1  C   UNL     1       6.306  -1.069  24.556  0.00  0.00    +0.214 A 
ATOM      2  C   UNL     1       5.296  -2.175  24.644  0.00  0.00    +0.238 A 
ATOM      3  O   UNL     1       4.352  -2.111  25.421  0.00  0.00    -0.283 OA
ATOM      4  C   UNL     1       5.548  -3.378  23.810  0.00  0.00    +0.109 A 
ATOM      5  C   UNL     1       6.697  -3.401  23.020  0.00  0.00    +0.147 A 
ATOM      6  C   UNL     1       7.012  -4.509  22.228  0.00  0.00    +0.092 A 
ATOM      7  C   UNL     1       6.173  -5.613  22.244  0.00  0.00    +0.124 A 
ATOM      8  C   UNL     1       5.027  -5.622  23.030  0.00  0.00    +0.091 A 
ATOM      9  O   UNL     1       7.602  -2.377  22.983  0.00  0.00    -0.451 OA
ATOM     10  C   UNL     1       4.712  -4.504  23.809  0.00  0.00    +0.135 A 
ATOM     11  C   UNL     1       7.387  -1.277  23.782  0.00  0.00    +0.181 A 
ENDROOT
BRANCH  11  12
ATOM     12  C   UNL     1       8.543  -0.363  23.767  0.00  0.00    +0.025 A 
ATOM     13  C   UNL     1       9.388  -0.234  24.879  0.00  0.00    +0.015 A 
ATOM     14  C   UNL     1      10.432   0.696  24.861  0.00  0.00    +0.050 A 
ATOM     15  C   UNL     1      10.614   1.497  23.741  0.00  0.00    +0.158 A 
ATOM     16  C   UNL     1       9.770   1.382  22.640  0.00  0.00    +0.159 A 
ATOM     17  C   UNL     1       8.738   0.451  22.639  0.00  0.00    +0.060 A 
BRANCH  15  18
ATOM     18  O   UNL     1      11.623   2.416  23.730  0.00  0.00    -0.503 OA
ATOM     19  H   UNL     1      11.905   2.459  22.794  0.00  0.00    +0.292 HD
ENDBRANCH  15  18
BRANCH  16  20
ATOM     20  O   UNL     1       9.977   2.233  21.590  0.00  0.00    -0.503 OA
ATOM     21  H   UNL     1       9.552   1.851  20.799  0.00  0.00    +0.292 HD
ENDBRANCH  16  20
ENDBRANCH  11  12
BRANCH   7  22
ATOM     22  O   UNL     1       6.443  -6.723  21.503  0.00  0.00    -0.507 OA
ATOM     23  H   UNL     1       7.306  -6.614  21.067  0.00  0.00    +0.292 HD
ENDBRANCH   7  22
BRANCH  10  24
ATOM     24  O   UNL     1       3.578  -4.542  24.570  0.00  0.00    -0.506 OA
ATOM     25  H   UNL     1       2.958  -5.202  24.221  0.00  0.00    +0.292 HD
ENDBRANCH  10  24
BRANCH   1  26
ATOM     26  O   UNL     1       6.201   0.077  25.326  0.00  0.00    -0.453 OA
BRANCH  26  29
ATOM     27  C   UNL     1       6.071   3.228  24.228  0.00  0.00    +0.182 C 
ATOM     28  O   UNL     1       5.883   1.884  23.764  0.00  0.00    -0.331 OA
ATOM     29  C   UNL     1       5.318   1.107  24.847  0.00  0.00    +0.340 C 
ATOM     30  C   UNL     1       5.078   2.074  26.023  0.00  0.00    +0.214 C 
ATOM     31  C   UNL     1       5.058   3.433  25.353  0.00  0.00    +0.180 C 
BRANCH  27  33
ATOM     32  C   UNL     1       7.193   4.378  22.235  0.00  0.00    +0.040 C 
ATOM     33  C   UNL     1       5.940   4.255  23.095  0.00  0.00    +0.143 C 
BRANCH  33  34
ATOM     34  O   UNL     1       5.623   5.523  23.681  0.00  0.00    -0.389 OA
ATOM     35  H   UNL     1       6.281   5.717  24.372  0.00  0.00    +0.210 HD
ENDBRANCH  33  34
ENDBRANCH  27  33
BRANCH  30  36
ATOM     36  O   UNL     1       3.858   1.834  26.728  0.00  0.00    -0.383 OA
ATOM     37  H   UNL     1       3.576   2.719  27.044  0.00  0.00    +0.210 HD
ENDBRANCH  30  36
BRANCH  31  38
ATOM     38  O   UNL     1       3.723   3.681  24.881  0.00  0.00    -0.386 OA
ATOM     39  H   UNL     1       3.257   4.136  25.609  0.00  0.00    +0.210 HD
ENDBRANCH  31  38
ENDBRANCH  26  29
ENDBRANCH   1  26
TORSDOF 11
ENDMDL
