MODEL 1
REMARK VINA RESULT:      -8.3      0.000      0.000
REMARK  Name = 
REMARK  19 active torsions:
REMARK  status: ('A' for Active; 'I' for Inactive)
REMARK    1  A    between atoms: C_1  and  C_2
REMARK    2  A    between atoms: C_4  and  O_51
REMARK    3  A    between atoms: C_6  and  O_50
REMARK    4  A    between atoms: C_8  and  C_12
REMARK    5  A    between atoms: C_8  and  O_49
REMARK    6  A    between atoms: C_9  and  O_11
REMARK    7  A    between atoms: C_12  and  O_48
REMARK    8  A    between atoms: C_13  and  O_47
REMARK    9  A    between atoms: C_15  and  O_46
REMARK   10  A    between atoms: C_17  and  C_44
REMARK   11  A    between atoms: C_20  and  C_21
REMARK   12  A    between atoms: C_20  and  O_43
REMARK   13  A    between atoms: C_22  and  O_42
REMARK   14  A    between atoms: C_26  and  O_27
REMARK   15  A    between atoms: C_29  and  C_34
REMARK   16  A    between atoms: C_30  and  O_33
REMARK   17  A    between atoms: C_36  and  O_41
REMARK   18  A    between atoms: C_37  and  O_40
REMARK   19  A    between atoms: C_44  and  O_45
REMARK                            x       y       z     vdW  Elec       q    Type
REMARK                         _______ _______ _______ _____ _____    ______ ____
ROOT
ATOM      1  C   UNL     1       5.469  -3.710  25.200  0.00  0.00    +0.188 C 
ATOM      2  C   UNL     1       7.004  -3.389  24.668  0.00  0.00    +0.237 C 
ATOM      3  O   UNL     1       7.126  -3.748  23.271  0.00  0.00    -0.334 OA
ATOM      4  C   UNL     1       6.812  -5.115  22.937  0.00  0.00    +0.178 C 
ATOM      5  C   UNL     1       5.343  -5.404  23.222  0.00  0.00    +0.177 C 
ATOM      6  C   UNL     1       5.056  -5.149  24.709  0.00  0.00    +0.186 C 
ENDROOT
BRANCH   2   7
ATOM      7  C   UNL     1       7.613  -1.947  24.693  0.00  0.00    +0.098 A 
ATOM      8  C   UNL     1       8.499  -1.486  25.681  0.00  0.00    +0.132 A 
ATOM      9  C   UNL     1       9.228  -0.297  25.558  0.00  0.00    +0.093 A 
ATOM     10  C   UNL     1       8.972   0.578  24.516  0.00  0.00    +0.147 A 
ATOM     11  O   UNL     1       9.792   1.672  24.437  0.00  0.00    -0.451 OA
ATOM     12  C   UNL     1       9.378   2.745  23.671  0.00  0.00    +0.181 A 
ATOM     13  C   UNL     1       8.284   2.715  22.889  0.00  0.00    +0.208 A 
ATOM     14  C   UNL     1       7.531   1.419  22.726  0.00  0.00    +0.238 A 
ATOM     15  O   UNL     1       6.680   1.331  21.856  0.00  0.00    -0.283 OA
ATOM     16  C   UNL     1       7.915   0.318  23.655  0.00  0.00    +0.110 A 
ATOM     17  C   UNL     1       7.259  -0.942  23.734  0.00  0.00    +0.143 A 
BRANCH  12  18
ATOM     18  C   UNL     1      10.291   3.914  23.723  0.00  0.00    +0.025 A 
ATOM     19  C   UNL     1       9.851   5.136  24.278  0.00  0.00    +0.015 A 
ATOM     20  C   UNL     1      10.739   6.211  24.436  0.00  0.00    +0.050 A 
ATOM     21  C   UNL     1      12.053   6.058  24.059  0.00  0.00    +0.158 A 
ATOM     22  C   UNL     1      12.513   4.874  23.526  0.00  0.00    +0.159 A 
ATOM     23  C   UNL     1      11.629   3.820  23.306  0.00  0.00    +0.060 A 
BRANCH  22  24
ATOM     24  O   UNL     1      13.833   4.786  23.200  0.00  0.00    -0.503 OA
ATOM     25  H   UNL     1      14.350   5.037  23.988  0.00  0.00    +0.292 HD
ENDBRANCH  22  24
BRANCH  21  26
ATOM     26  O   UNL     1      12.930   7.108  24.257  0.00  0.00    -0.503 OA
ATOM     27  H   UNL     1      12.917   7.249  25.224  0.00  0.00    +0.292 HD
ENDBRANCH  21  26
ENDBRANCH  12  18
BRANCH  17  28
ATOM     28  O   UNL     1       6.212  -1.151  22.869  0.00  0.00    -0.505 OA
ATOM     29  H   UNL     1       6.528  -0.981  21.963  0.00  0.00    +0.292 HD
ENDBRANCH  17  28
BRANCH  13  30
ATOM     30  O   UNL     1       7.850   3.825  22.187  0.00  0.00    -0.501 OA
ATOM     31  H   UNL     1       8.248   3.760  21.301  0.00  0.00    +0.292 HD
ENDBRANCH  13  30
BRANCH   8  32
ATOM     32  O   UNL     1       8.699  -2.205  26.822  0.00  0.00    -0.506 OA
ATOM     33  H   UNL     1       7.934  -2.790  26.987  0.00  0.00    +0.292 HD
ENDBRANCH   8  32
ENDBRANCH   2   7
BRANCH   1  38
ATOM     34  C   UNL     1       1.524  -4.097  28.744  0.00  0.00    +0.041 C 
ATOM     35  C   UNL     1       2.139  -4.139  27.353  0.00  0.00    +0.149 C 
ATOM     36  O   UNL     1       3.163  -5.126  27.147  0.00  0.00    -0.343 OA
ATOM     37  C   UNL     1       4.479  -4.766  27.561  0.00  0.00    +0.285 C 
ATOM     38  C   UNL     1       5.037  -3.534  26.783  0.00  0.00    +0.181 C 
ATOM     39  C   UNL     1       4.023  -2.397  27.141  0.00  0.00    +0.185 C 
ATOM     40  C   UNL     1       2.571  -2.763  26.809  0.00  0.00    +0.174 C 
BRANCH  40  41
ATOM     41  O   UNL     1       2.447  -2.840  25.387  0.00  0.00    -0.387 OA
ATOM     42  H   UNL     1       2.324  -1.906  25.103  0.00  0.00    +0.210 HD
ENDBRANCH  40  41
BRANCH  39  43
ATOM     43  O   UNL     1       4.210  -2.067  28.543  0.00  0.00    -0.386 OA
ATOM     44  H   UNL     1       3.608  -2.577  29.110  0.00  0.00    +0.210 HD
ENDBRANCH  39  43
BRANCH  38  45
ATOM     45  O   UNL     1       6.277  -3.137  27.484  0.00  0.00    -0.378 OA
ATOM     46  H   UNL     1       7.014  -3.590  27.019  0.00  0.00    +0.211 HD
ENDBRANCH  38  45
BRANCH  37  47
ATOM     47  O   UNL     1       5.348  -5.878  27.491  0.00  0.00    -0.365 OA
ATOM     48  H   UNL     1       5.137  -6.443  28.259  0.00  0.00    +0.213 HD
ENDBRANCH  37  47
ENDBRANCH   1  38
BRANCH   6  49
ATOM     49  O   UNL     1       3.647  -5.421  24.916  0.00  0.00    -0.386 OA
ATOM     50  H   UNL     1       3.513  -5.508  25.886  0.00  0.00    +0.210 HD
ENDBRANCH   6  49
BRANCH   5  51
ATOM     51  O   UNL     1       5.042  -6.777  22.941  0.00  0.00    -0.386 OA
ATOM     52  H   UNL     1       5.558  -7.285  23.602  0.00  0.00    +0.210 HD
ENDBRANCH   5  51
BRANCH   2  53
ATOM     53  O   UNL     1       7.962  -4.204  25.352  0.00  0.00    -0.359 OA
ATOM     54  H   UNL     1       7.533  -5.065  25.509  0.00  0.00    +0.213 HD
ENDBRANCH   2  53
BRANCH   1  55
ATOM     55  O   UNL     1       4.500  -2.936  24.414  0.00  0.00    -0.378 OA
ATOM     56  H   UNL     1       3.870  -3.560  23.998  0.00  0.00    +0.211 HD
ENDBRANCH   1  55
BRANCH   4  57
ATOM     57  C   UNL     1       7.207  -5.354  21.469  0.00  0.00    +0.190 C 
BRANCH  57  58
ATOM     58  O   UNL     1       6.053  -5.339  20.642  0.00  0.00    -0.392 OA
ATOM     59  H   UNL     1       5.381  -4.836  21.140  0.00  0.00    +0.210 HD
ENDBRANCH  57  58
ENDBRANCH   4  57
TORSDOF 18
ENDMDL
MODEL 2
REMARK VINA RESULT:      -7.8      2.833     10.085
REMARK  Name = 
REMARK  19 active torsions:
REMARK  status: ('A' for Active; 'I' for Inactive)
REMARK    1  A    between atoms: C_1  and  C_2
REMARK    2  A    between atoms: C_4  and  O_51
REMARK    3  A    between atoms: C_6  and  O_50
REMARK    4  A    between atoms: C_8  and  C_12
REMARK    5  A    between atoms: C_8  and  O_49
REMARK    6  A    between atoms: C_9  and  O_11
REMARK    7  A    between atoms: C_12  and  O_48
REMARK    8  A    between atoms: C_13  and  O_47
REMARK    9  A    between atoms: C_15  and  O_46
REMARK   10  A    between atoms: C_17  and  C_44
REMARK   11  A    between atoms: C_20  and  C_21
REMARK   12  A    between atoms: C_20  and  O_43
REMARK   13  A    between atoms: C_22  and  O_42
REMARK   14  A    between atoms: C_26  and  O_27
REMARK   15  A    between atoms: C_29  and  C_34
REMARK   16  A    between atoms: C_30  and  O_33
REMARK   17  A    between atoms: C_36  and  O_41
REMARK   18  A    between atoms: C_37  and  O_40
REMARK   19  A    between atoms: C_44  and  O_45
REMARK                            x       y       z     vdW  Elec       q    Type
REMARK                         _______ _______ _______ _____ _____    ______ ____
ROOT
ATOM      1  C   UNL     1       7.013   1.724  24.732  0.00  0.00    +0.188 C 
ATOM      2  C   UNL     1       7.004   0.844  26.134  0.00  0.00    +0.237 C 
ATOM      3  O   UNL     1       6.504   1.657  27.222  0.00  0.00    -0.334 OA
ATOM      4  C   UNL     1       7.212   2.889  27.471  0.00  0.00    +0.178 C 
ATOM      5  C   UNL     1       7.079   3.825  26.276  0.00  0.00    +0.177 C 
ATOM      6  C   UNL     1       7.649   3.135  25.027  0.00  0.00    +0.186 C 
ENDROOT
BRANCH   2   7
ATOM      7  C   UNL     1       6.165  -0.469  26.291  0.00  0.00    +0.098 A 
ATOM      8  C   UNL     1       4.761  -0.512  26.258  0.00  0.00    +0.132 A 
ATOM      9  C   UNL     1       4.037  -1.705  26.144  0.00  0.00    +0.093 A 
ATOM     10  C   UNL     1       4.679  -2.928  26.235  0.00  0.00    +0.147 A 
ATOM     11  O   UNL     1       3.898  -4.033  26.030  0.00  0.00    -0.451 OA
ATOM     12  C   UNL     1       4.373  -5.258  26.456  0.00  0.00    +0.181 A 
ATOM     13  C   UNL     1       5.619  -5.442  26.930  0.00  0.00    +0.208 A 
ATOM     14  C   UNL     1       6.600  -4.298  26.884  0.00  0.00    +0.238 A 
ATOM     15  O   UNL     1       7.780  -4.518  27.106  0.00  0.00    -0.283 OA
ATOM     16  C   UNL     1       6.032  -2.962  26.545  0.00  0.00    +0.110 A 
ATOM     17  C   UNL     1       6.767  -1.743  26.552  0.00  0.00    +0.143 A 
BRANCH  12  18
ATOM     18  C   UNL     1       3.416  -6.377  26.271  0.00  0.00    +0.025 A 
ATOM     19  C   UNL     1       2.473  -6.679  27.279  0.00  0.00    +0.015 A 
ATOM     20  C   UNL     1       1.490  -7.659  27.068  0.00  0.00    +0.050 A 
ATOM     21  C   UNL     1       1.443  -8.314  25.859  0.00  0.00    +0.158 A 
ATOM     22  C   UNL     1       2.342  -8.031  24.854  0.00  0.00    +0.159 A 
ATOM     23  C   UNL     1       3.360  -7.106  25.072  0.00  0.00    +0.060 A 
BRANCH  22  24
ATOM     24  O   UNL     1       2.217  -8.700  23.674  0.00  0.00    -0.503 OA
ATOM     25  H   UNL     1       2.603  -9.587  23.794  0.00  0.00    +0.292 HD
ENDBRANCH  22  24
BRANCH  21  26
ATOM     26  O   UNL     1       0.446  -9.247  25.645  0.00  0.00    -0.503 OA
ATOM     27  H   UNL     1       0.415  -9.758  26.478  0.00  0.00    +0.292 HD
ENDBRANCH  21  26
ENDBRANCH  12  18
BRANCH  17  28
ATOM     28  O   UNL     1       8.100  -1.825  26.874  0.00  0.00    -0.505 OA
ATOM     29  H   UNL     1       8.617  -1.716  26.056  0.00  0.00    +0.292 HD
ENDBRANCH  17  28
BRANCH  13  30
ATOM     30  O   UNL     1       6.049  -6.663  27.418  0.00  0.00    -0.501 OA
ATOM     31  H   UNL     1       5.271  -7.249  27.409  0.00  0.00    +0.292 HD
ENDBRANCH  13  30
BRANCH   8  32
ATOM     32  O   UNL     1       4.031   0.637  26.322  0.00  0.00    -0.506 OA
ATOM     33  H   UNL     1       4.284   1.150  27.114  0.00  0.00    +0.292 HD
ENDBRANCH   8  32
ENDBRANCH   2   7
BRANCH   1  38
ATOM     34  C   UNL     1      10.600  -1.557  22.576  0.00  0.00    +0.041 C 
ATOM     35  C   UNL     1       9.898  -0.837  23.718  0.00  0.00    +0.149 C 
ATOM     36  O   UNL     1       8.503  -1.136  23.888  0.00  0.00    -0.343 OA
ATOM     37  C   UNL     1       7.596  -0.408  23.064  0.00  0.00    +0.285 C 
ATOM     38  C   UNL     1       7.646   1.129  23.328  0.00  0.00    +0.181 C 
ATOM     39  C   UNL     1       9.123   1.503  22.976  0.00  0.00    +0.185 C 
ATOM     40  C   UNL     1      10.153   0.682  23.762  0.00  0.00    +0.174 C 
BRANCH  40  41
ATOM     41  O   UNL     1      10.066   1.061  25.138  0.00  0.00    -0.387 OA
ATOM     42  H   UNL     1      10.473   1.957  25.170  0.00  0.00    +0.210 HD
ENDBRANCH  40  41
BRANCH  39  43
ATOM     43  O   UNL     1       9.280   1.369  21.539  0.00  0.00    -0.386 OA
ATOM     44  H   UNL     1      10.204   1.499  21.270  0.00  0.00    +0.210 HD
ENDBRANCH  39  43
BRANCH  38  45
ATOM     45  O   UNL     1       6.853   1.754  22.248  0.00  0.00    -0.378 OA
ATOM     46  H   UNL     1       6.225   2.368  22.686  0.00  0.00    +0.211 HD
ENDBRANCH  38  45
BRANCH  37  47
ATOM     47  O   UNL     1       6.287  -0.927  23.180  0.00  0.00    -0.365 OA
ATOM     48  H   UNL     1       5.683  -0.159  23.172  0.00  0.00    +0.213 HD
ENDBRANCH  37  47
ENDBRANCH   1  38
BRANCH   6  49
ATOM     49  O   UNL     1       7.479   4.061  23.924  0.00  0.00    -0.386 OA
ATOM     50  H   UNL     1       7.657   4.960  24.277  0.00  0.00    +0.210 HD
ENDBRANCH   6  49
BRANCH   5  51
ATOM     51  O   UNL     1       7.826   5.027  26.499  0.00  0.00    -0.386 OA
ATOM     52  H   UNL     1       7.205   5.751  26.274  0.00  0.00    +0.210 HD
ENDBRANCH   5  51
BRANCH   2  53
ATOM     53  O   UNL     1       8.334   0.477  26.516  0.00  0.00    -0.359 OA
ATOM     54  H   UNL     1       8.936   0.940  25.903  0.00  0.00    +0.213 HD
ENDBRANCH   2  53
BRANCH   1  55
ATOM     55  O   UNL     1       5.651   2.172  24.418  0.00  0.00    -0.378 OA
ATOM     56  H   UNL     1       5.173   2.327  25.260  0.00  0.00    +0.211 HD
ENDBRANCH   1  55
BRANCH   4  57
ATOM     57  C   UNL     1       6.679   3.493  28.782  0.00  0.00    +0.190 C 
BRANCH  57  58
ATOM     58  O   UNL     1       7.602   4.442  29.295  0.00  0.00    -0.392 OA
ATOM     59  H   UNL     1       7.904   4.076  30.148  0.00  0.00    +0.210 HD
ENDBRANCH  57  58
ENDBRANCH   4  57
TORSDOF 18
ENDMDL
MODEL 3
REMARK VINA RESULT:      -7.4      0.820      1.654
REMARK  Name = 
REMARK  19 active torsions:
REMARK  status: ('A' for Active; 'I' for Inactive)
REMARK    1  A    between atoms: C_1  and  C_2
REMARK    2  A    between atoms: C_4  and  O_51
REMARK    3  A    between atoms: C_6  and  O_50
REMARK    4  A    between atoms: C_8  and  C_12
REMARK    5  A    between atoms: C_8  and  O_49
REMARK    6  A    between atoms: C_9  and  O_11
REMARK    7  A    between atoms: C_12  and  O_48
REMARK    8  A    between atoms: C_13  and  O_47
REMARK    9  A    between atoms: C_15  and  O_46
REMARK   10  A    between atoms: C_17  and  C_44
REMARK   11  A    between atoms: C_20  and  C_21
REMARK   12  A    between atoms: C_20  and  O_43
REMARK   13  A    between atoms: C_22  and  O_42
REMARK   14  A    between atoms: C_26  and  O_27
REMARK   15  A    between atoms: C_29  and  C_34
REMARK   16  A    between atoms: C_30  and  O_33
REMARK   17  A    between atoms: C_36  and  O_41
REMARK   18  A    between atoms: C_37  and  O_40
REMARK   19  A    between atoms: C_44  and  O_45
REMARK                            x       y       z     vdW  Elec       q    Type
REMARK                         _______ _______ _______ _____ _____    ______ ____
ROOT
ATOM      1  C   UNL     1       5.129  -3.635  24.762  0.00  0.00    +0.188 C 
ATOM      2  C   UNL     1       6.760  -3.381  24.642  0.00  0.00    +0.237 C 
ATOM      3  O   UNL     1       7.246  -3.895  23.380  0.00  0.00    -0.334 OA
ATOM      4  C   UNL     1       6.989  -5.290  23.120  0.00  0.00    +0.178 C 
ATOM      5  C   UNL     1       5.490  -5.540  23.019  0.00  0.00    +0.177 C 
ATOM      6  C   UNL     1       4.816  -5.118  24.333  0.00  0.00    +0.186 C 
ENDROOT
BRANCH   2   7
ATOM      7  C   UNL     1       7.388  -1.948  24.680  0.00  0.00    +0.098 A 
ATOM      8  C   UNL     1       8.245  -1.492  25.696  0.00  0.00    +0.132 A 
ATOM      9  C   UNL     1       8.995  -0.314  25.591  0.00  0.00    +0.093 A 
ATOM     10  C   UNL     1       8.788   0.557  24.535  0.00  0.00    +0.147 A 
ATOM     11  O   UNL     1       9.626   1.639  24.477  0.00  0.00    -0.451 OA
ATOM     12  C   UNL     1       9.255   2.713  23.691  0.00  0.00    +0.181 A 
ATOM     13  C   UNL     1       8.188   2.692  22.871  0.00  0.00    +0.208 A 
ATOM     14  C   UNL     1       7.424   1.406  22.690  0.00  0.00    +0.238 A 
ATOM     15  O   UNL     1       6.602   1.324  21.791  0.00  0.00    -0.283 OA
ATOM     16  C   UNL     1       7.759   0.306  23.638  0.00  0.00    +0.110 A 
ATOM     17  C   UNL     1       7.082  -0.945  23.702  0.00  0.00    +0.143 A 
BRANCH  12  18
ATOM     18  C   UNL     1      10.182   3.869  23.767  0.00  0.00    +0.025 A 
ATOM     19  C   UNL     1       9.757   5.083  24.351  0.00  0.00    +0.015 A 
ATOM     20  C   UNL     1      10.658   6.144  24.532  0.00  0.00    +0.050 A 
ATOM     21  C   UNL     1      11.969   5.983  24.148  0.00  0.00    +0.158 A 
ATOM     22  C   UNL     1      12.414   4.806  23.588  0.00  0.00    +0.159 A 
ATOM     23  C   UNL     1      11.517   3.768  23.346  0.00  0.00    +0.060 A 
BRANCH  22  24
ATOM     24  O   UNL     1      13.733   4.710  23.258  0.00  0.00    -0.503 OA
ATOM     25  H   UNL     1      13.842   5.083  22.364  0.00  0.00    +0.292 HD
ENDBRANCH  22  24
BRANCH  21  26
ATOM     26  O   UNL     1      12.859   7.018  24.369  0.00  0.00    -0.503 OA
ATOM     27  H   UNL     1      12.287   7.799  24.504  0.00  0.00    +0.292 HD
ENDBRANCH  21  26
ENDBRANCH  12  18
BRANCH  17  28
ATOM     28  O   UNL     1       6.064  -1.145  22.802  0.00  0.00    -0.505 OA
ATOM     29  H   UNL     1       5.683  -2.026  22.966  0.00  0.00    +0.292 HD
ENDBRANCH  17  28
BRANCH  13  30
ATOM     30  O   UNL     1       7.795   3.803  22.147  0.00  0.00    -0.501 OA
ATOM     31  H   UNL     1       7.624   3.491  21.240  0.00  0.00    +0.292 HD
ENDBRANCH  13  30
BRANCH   8  32
ATOM     32  O   UNL     1       8.395  -2.206  26.847  0.00  0.00    -0.506 OA
ATOM     33  H   UNL     1       7.578  -2.156  27.380  0.00  0.00    +0.292 HD
ENDBRANCH   8  32
ENDBRANCH   2   7
BRANCH   1  38
ATOM     34  C   UNL     1       4.780  -4.381  30.016  0.00  0.00    +0.041 C 
ATOM     35  C   UNL     1       5.358  -4.601  28.625  0.00  0.00    +0.149 C 
ATOM     36  O   UNL     1       5.931  -3.445  27.992  0.00  0.00    -0.343 OA
ATOM     37  C   UNL     1       5.022  -2.578  27.320  0.00  0.00    +0.285 C 
ATOM     38  C   UNL     1       4.286  -3.280  26.137  0.00  0.00    +0.181 C 
ATOM     39  C   UNL     1       3.511  -4.444  26.839  0.00  0.00    +0.185 C 
ATOM     40  C   UNL     1       4.424  -5.360  27.663  0.00  0.00    +0.174 C 
BRANCH  40  41
ATOM     41  O   UNL     1       5.275  -6.068  26.759  0.00  0.00    -0.387 OA
ATOM     42  H   UNL     1       5.983  -5.422  26.535  0.00  0.00    +0.210 HD
ENDBRANCH  40  41
BRANCH  39  43
ATOM     43  O   UNL     1       2.451  -3.849  27.634  0.00  0.00    -0.386 OA
ATOM     44  H   UNL     1       1.582  -3.984  27.223  0.00  0.00    +0.210 HD
ENDBRANCH  39  43
BRANCH  38  45
ATOM     45  O   UNL     1       3.219  -2.349  25.710  0.00  0.00    -0.378 OA
ATOM     46  H   UNL     1       2.393  -2.659  26.139  0.00  0.00    +0.211 HD
ENDBRANCH  38  45
BRANCH  37  47
ATOM     47  O   UNL     1       5.670  -1.390  26.914  0.00  0.00    -0.365 OA
ATOM     48  H   UNL     1       4.976  -0.707  26.842  0.00  0.00    +0.213 HD
ENDBRANCH  37  47
ENDBRANCH   1  38
BRANCH   6  49
ATOM     49  O   UNL     1       3.396  -5.361  24.172  0.00  0.00    -0.386 OA
ATOM     50  H   UNL     1       3.147  -5.020  23.285  0.00  0.00    +0.210 HD
ENDBRANCH   6  49
BRANCH   5  51
ATOM     51  O   UNL     1       5.230  -6.934  22.814  0.00  0.00    -0.386 OA
ATOM     52  H   UNL     1       4.574  -6.961  22.086  0.00  0.00    +0.210 HD
ENDBRANCH   5  51
BRANCH   2  53
ATOM     53  O   UNL     1       7.466  -4.118  25.647  0.00  0.00    -0.359 OA
ATOM     54  H   UNL     1       7.929  -4.842  25.187  0.00  0.00    +0.213 HD
ENDBRANCH   2  53
BRANCH   1  55
ATOM     55  O   UNL     1       4.438  -2.951  23.662  0.00  0.00    -0.378 OA
ATOM     56  H   UNL     1       3.491  -2.864  23.897  0.00  0.00    +0.211 HD
ENDBRANCH   1  55
BRANCH   4  57
ATOM     57  C   UNL     1       7.762  -5.693  21.852  0.00  0.00    +0.190 C 
BRANCH  57  58
ATOM     58  O   UNL     1       6.859  -5.939  20.785  0.00  0.00    -0.392 OA
ATOM     59  H   UNL     1       6.297  -5.143  20.729  0.00  0.00    +0.210 HD
ENDBRANCH  57  58
ENDBRANCH   4  57
TORSDOF 18
ENDMDL
MODEL 4
REMARK VINA RESULT:      -7.0      2.846      9.401
REMARK  Name = 
REMARK  19 active torsions:
REMARK  status: ('A' for Active; 'I' for Inactive)
REMARK    1  A    between atoms: C_1  and  C_2
REMARK    2  A    between atoms: C_4  and  O_51
REMARK    3  A    between atoms: C_6  and  O_50
REMARK    4  A    between atoms: C_8  and  C_12
REMARK    5  A    between atoms: C_8  and  O_49
REMARK    6  A    between atoms: C_9  and  O_11
REMARK    7  A    between atoms: C_12  and  O_48
REMARK    8  A    between atoms: C_13  and  O_47
REMARK    9  A    between atoms: C_15  and  O_46
REMARK   10  A    between atoms: C_17  and  C_44
REMARK   11  A    between atoms: C_20  and  C_21
REMARK   12  A    between atoms: C_20  and  O_43
REMARK   13  A    between atoms: C_22  and  O_42
REMARK   14  A    between atoms: C_26  and  O_27
REMARK   15  A    between atoms: C_29  and  C_34
REMARK   16  A    between atoms: C_30  and  O_33
REMARK   17  A    between atoms: C_36  and  O_41
REMARK   18  A    between atoms: C_37  and  O_40
REMARK   19  A    between atoms: C_44  and  O_45
REMARK                            x       y       z     vdW  Elec       q    Type
REMARK                         _______ _______ _______ _____ _____    ______ ____
ROOT
ATOM      1  C   UNL     1       6.818   3.824  24.879  0.00  0.00    +0.188 C 
ATOM      2  C   UNL     1       7.326   2.387  24.233  0.00  0.00    +0.237 C 
ATOM      3  O   UNL     1       8.771   2.349  24.193  0.00  0.00    -0.334 OA
ATOM      4  C   UNL     1       9.415   3.418  23.470  0.00  0.00    +0.178 C 
ATOM      5  C   UNL     1       9.141   4.755  24.149  0.00  0.00    +0.177 C 
ATOM      6  C   UNL     1       7.625   4.995  24.201  0.00  0.00    +0.186 C 
ENDROOT
BRANCH   2   7
ATOM      7  C   UNL     1       6.977   1.007  24.887  0.00  0.00    +0.098 A 
ATOM      8  C   UNL     1       7.168   0.712  26.247  0.00  0.00    +0.132 A 
ATOM      9  C   UNL     1       6.625  -0.420  26.866  0.00  0.00    +0.093 A 
ATOM     10  C   UNL     1       6.008  -1.404  26.113  0.00  0.00    +0.147 A 
ATOM     11  O   UNL     1       5.437  -2.429  26.818  0.00  0.00    -0.451 OA
ATOM     12  C   UNL     1       5.136  -3.598  26.145  0.00  0.00    +0.181 A 
ATOM     13  C   UNL     1       5.243  -3.729  24.810  0.00  0.00    +0.208 A 
ATOM     14  C   UNL     1       5.582  -2.519  23.977  0.00  0.00    +0.238 A 
ATOM     15  O   UNL     1       5.465  -2.580  22.763  0.00  0.00    -0.283 OA
ATOM     16  C   UNL     1       6.026  -1.310  24.728  0.00  0.00    +0.110 A 
ATOM     17  C   UNL     1       6.488  -0.106  24.126  0.00  0.00    +0.143 A 
BRANCH  12  18
ATOM     18  C   UNL     1       4.607  -4.679  27.013  0.00  0.00    +0.025 A 
ATOM     19  C   UNL     1       3.228  -4.735  27.315  0.00  0.00    +0.015 A 
ATOM     20  C   UNL     1       2.698  -5.814  28.040  0.00  0.00    +0.050 A 
ATOM     21  C   UNL     1       3.535  -6.831  28.439  0.00  0.00    +0.158 A 
ATOM     22  C   UNL     1       4.882  -6.808  28.146  0.00  0.00    +0.159 A 
ATOM     23  C   UNL     1       5.431  -5.714  27.483  0.00  0.00    +0.060 A 
BRANCH  22  24
ATOM     24  O   UNL     1       5.644  -7.862  28.551  0.00  0.00    -0.503 OA
ATOM     25  H   UNL     1       5.991  -7.654  29.437  0.00  0.00    +0.292 HD
ENDBRANCH  22  24
BRANCH  21  26
ATOM     26  O   UNL     1       2.997  -7.910  29.114  0.00  0.00    -0.503 OA
ATOM     27  H   UNL     1       3.511  -7.951  29.945  0.00  0.00    +0.292 HD
ENDBRANCH  21  26
ENDBRANCH  12  18
BRANCH  17  28
ATOM     28  O   UNL     1       6.498  -0.063  22.754  0.00  0.00    -0.505 OA
ATOM     29  H   UNL     1       6.293  -0.955  22.420  0.00  0.00    +0.292 HD
ENDBRANCH  17  28
BRANCH  13  30
ATOM     30  O   UNL     1       5.005  -4.929  24.166  0.00  0.00    -0.501 OA
ATOM     31  H   UNL     1       5.877  -5.280  23.913  0.00  0.00    +0.292 HD
ENDBRANCH  13  30
BRANCH   8  32
ATOM     32  O   UNL     1       7.899   1.546  27.040  0.00  0.00    -0.506 OA
ATOM     33  H   UNL     1       7.466   1.645  27.910  0.00  0.00    +0.292 HD
ENDBRANCH   8  32
ENDBRANCH   2   7
BRANCH   1  38
ATOM     34  C   UNL     1       2.101   3.551  22.437  0.00  0.00    +0.041 C 
ATOM     35  C   UNL     1       3.601   3.332  22.572  0.00  0.00    +0.149 C 
ATOM     36  O   UNL     1       4.019   2.487  23.656  0.00  0.00    -0.343 OA
ATOM     37  C   UNL     1       4.142   3.110  24.931  0.00  0.00    +0.285 C 
ATOM     38  C   UNL     1       5.220   4.238  24.948  0.00  0.00    +0.181 C 
ATOM     39  C   UNL     1       4.684   5.259  23.891  0.00  0.00    +0.185 C 
ATOM     40  C   UNL     1       4.438   4.625  22.517  0.00  0.00    +0.174 C 
BRANCH  40  41
ATOM     41  O   UNL     1       5.703   4.257  21.964  0.00  0.00    -0.387 OA
ATOM     42  H   UNL     1       6.294   5.013  22.183  0.00  0.00    +0.210 HD
ENDBRANCH  40  41
BRANCH  39  43
ATOM     43  O   UNL     1       3.493   5.878  24.443  0.00  0.00    -0.386 OA
ATOM     44  H   UNL     1       2.777   5.231  24.554  0.00  0.00    +0.210 HD
ENDBRANCH  39  43
BRANCH  38  45
ATOM     45  O   UNL     1       5.056   4.941  26.238  0.00  0.00    -0.378 OA
ATOM     46  H   UNL     1       4.138   5.289  26.249  0.00  0.00    +0.211 HD
ENDBRANCH  38  45
BRANCH  37  47
ATOM     47  O   UNL     1       4.363   2.147  25.941  0.00  0.00    -0.365 OA
ATOM     48  H   UNL     1       3.482   1.856  26.244  0.00  0.00    +0.213 HD
ENDBRANCH  37  47
ENDBRANCH   1  38
BRANCH   6  49
ATOM     49  O   UNL     1       7.426   6.265  24.871  0.00  0.00    -0.386 OA
ATOM     50  H   UNL     1       8.210   6.411  25.445  0.00  0.00    +0.210 HD
ENDBRANCH   6  49
BRANCH   5  51
ATOM     51  O   UNL     1       9.735   5.823  23.402  0.00  0.00    -0.386 OA
ATOM     52  H   UNL     1       9.728   6.589  24.015  0.00  0.00    +0.210 HD
ENDBRANCH   5  51
BRANCH   2  53
ATOM     53  O   UNL     1       6.906   2.263  22.869  0.00  0.00    -0.359 OA
ATOM     54  H   UNL     1       7.125   3.108  22.434  0.00  0.00    +0.213 HD
ENDBRANCH   2  53
BRANCH   1  55
ATOM     55  O   UNL     1       7.344   3.969  26.241  0.00  0.00    -0.378 OA
ATOM     56  H   UNL     1       7.248   3.111  26.704  0.00  0.00    +0.211 HD
ENDBRANCH   1  55
BRANCH   4  57
ATOM     57  C   UNL     1      10.913   3.087  23.355  0.00  0.00    +0.190 C 
BRANCH  57  58
ATOM     58  O   UNL     1      11.574   4.071  22.573  0.00  0.00    -0.392 OA
ATOM     59  H   UNL     1      11.806   3.626  21.736  0.00  0.00    +0.210 HD
ENDBRANCH  57  58
ENDBRANCH   4  57
TORSDOF 18
ENDMDL
MODEL 5
REMARK VINA RESULT:      -6.7      2.687      9.331
REMARK  Name = 
REMARK  19 active torsions:
REMARK  status: ('A' for Active; 'I' for Inactive)
REMARK    1  A    between atoms: C_1  and  C_2
REMARK    2  A    between atoms: C_4  and  O_51
REMARK    3  A    between atoms: C_6  and  O_50
REMARK    4  A    between atoms: C_8  and  C_12
REMARK    5  A    between atoms: C_8  and  O_49
REMARK    6  A    between atoms: C_9  and  O_11
REMARK    7  A    between atoms: C_12  and  O_48
REMARK    8  A    between atoms: C_13  and  O_47
REMARK    9  A    between atoms: C_15  and  O_46
REMARK   10  A    between atoms: C_17  and  C_44
REMARK   11  A    between atoms: C_20  and  C_21
REMARK   12  A    between atoms: C_20  and  O_43
REMARK   13  A    between atoms: C_22  and  O_42
REMARK   14  A    between atoms: C_26  and  O_27
REMARK   15  A    between atoms: C_29  and  C_34
REMARK   16  A    between atoms: C_30  and  O_33
REMARK   17  A    between atoms: C_36  and  O_41
REMARK   18  A    between atoms: C_37  and  O_40
REMARK   19  A    between atoms: C_44  and  O_45
REMARK                            x       y       z     vdW  Elec       q    Type
REMARK                         _______ _______ _______ _____ _____    ______ ____
ROOT
ATOM      1  C   UNL     1       7.146   3.797  23.789  0.00  0.00    +0.188 C 
ATOM      2  C   UNL     1       8.111   2.487  23.485  0.00  0.00    +0.237 C 
ATOM      3  O   UNL     1       9.479   2.789  23.848  0.00  0.00    -0.334 OA
ATOM      4  C   UNL     1      10.067   3.939  23.206  0.00  0.00    +0.178 C 
ATOM      5  C   UNL     1       9.332   5.208  23.617  0.00  0.00    +0.177 C 
ATOM      6  C   UNL     1       7.852   5.086  23.222  0.00  0.00    +0.186 C 
ENDROOT
BRANCH   2   7
ATOM      7  C   UNL     1       7.884   1.102  24.180  0.00  0.00    +0.098 A 
ATOM      8  C   UNL     1       7.765   0.931  25.569  0.00  0.00    +0.132 A 
ATOM      9  C   UNL     1       7.313  -0.258  26.155  0.00  0.00    +0.093 A 
ATOM     10  C   UNL     1       7.124  -1.392  25.386  0.00  0.00    +0.147 A 
ATOM     11  O   UNL     1       6.602  -2.479  26.036  0.00  0.00    -0.451 OA
ATOM     12  C   UNL     1       6.727  -3.719  25.442  0.00  0.00    +0.181 A 
ATOM     13  C   UNL     1       7.205  -3.896  24.196  0.00  0.00    +0.208 A 
ATOM     14  C   UNL     1       7.505  -2.688  23.345  0.00  0.00    +0.238 A 
ATOM     15  O   UNL     1       7.726  -2.840  22.154  0.00  0.00    -0.283 OA
ATOM     16  C   UNL     1       7.487  -1.372  24.046  0.00  0.00    +0.110 A 
ATOM     17  C   UNL     1       7.843  -0.131  23.449  0.00  0.00    +0.143 A 
BRANCH  12  18
ATOM     18  C   UNL     1       6.213  -4.841  26.266  0.00  0.00    +0.025 A 
ATOM     19  C   UNL     1       6.633  -4.989  27.606  0.00  0.00    +0.015 A 
ATOM     20  C   UNL     1       6.067  -5.976  28.428  0.00  0.00    +0.050 A 
ATOM     21  C   UNL     1       5.083  -6.791  27.919  0.00  0.00    +0.158 A 
ATOM     22  C   UNL     1       4.645  -6.661  26.619  0.00  0.00    +0.159 A 
ATOM     23  C   UNL     1       5.240  -5.727  25.775  0.00  0.00    +0.060 A 
BRANCH  22  24
ATOM     24  O   UNL     1       3.647  -7.485  26.193  0.00  0.00    -0.503 OA
ATOM     25  H   UNL     1       3.409  -7.218  25.286  0.00  0.00    +0.292 HD
ENDBRANCH  22  24
BRANCH  21  26
ATOM     26  O   UNL     1       4.502  -7.732  28.749  0.00  0.00    -0.503 OA
ATOM     27  H   UNL     1       3.547  -7.524  28.712  0.00  0.00    +0.292 HD
ENDBRANCH  21  26
ENDBRANCH  12  18
BRANCH  17  28
ATOM     28  O   UNL     1       8.205  -0.161  22.124  0.00  0.00    -0.505 OA
ATOM     29  H   UNL     1       7.773   0.587  21.674  0.00  0.00    +0.292 HD
ENDBRANCH  17  28
BRANCH  13  30
ATOM     30  O   UNL     1       7.388  -5.153  23.649  0.00  0.00    -0.501 OA
ATOM     31  H   UNL     1       7.400  -5.777  24.396  0.00  0.00    +0.292 HD
ENDBRANCH  13  30
BRANCH   8  32
ATOM     32  O   UNL     1       8.081   1.946  26.421  0.00  0.00    -0.506 OA
ATOM     33  H   UNL     1       7.722   1.761  27.311  0.00  0.00    +0.292 HD
ENDBRANCH   8  32
ENDBRANCH   2   7
BRANCH   1  38
ATOM     34  C   UNL     1       2.155   4.418  25.517  0.00  0.00    +0.041 C 
ATOM     35  C   UNL     1       3.665   4.299  25.670  0.00  0.00    +0.149 C 
ATOM     36  O   UNL     1       4.445   5.315  25.021  0.00  0.00    -0.343 OA
ATOM     37  C   UNL     1       4.715   5.115  23.635  0.00  0.00    +0.285 C 
ATOM     38  C   UNL     1       5.550   3.825  23.366  0.00  0.00    +0.181 C 
ATOM     39  C   UNL     1       4.629   2.684  23.913  0.00  0.00    +0.185 C 
ATOM     40  C   UNL     1       4.222   2.892  25.376  0.00  0.00    +0.174 C 
BRANCH  40  41
ATOM     41  O   UNL     1       5.390   2.750  26.187  0.00  0.00    -0.387 OA
ATOM     42  H   UNL     1       5.261   1.892  26.651  0.00  0.00    +0.210 HD
ENDBRANCH  40  41
BRANCH  39  43
ATOM     43  O   UNL     1       3.486   2.578  23.023  0.00  0.00    -0.386 OA
ATOM     44  H   UNL     1       2.683   2.935  23.436  0.00  0.00    +0.210 HD
ENDBRANCH  39  43
BRANCH  38  45
ATOM     45  O   UNL     1       5.532   3.626  21.901  0.00  0.00    -0.378 OA
ATOM     46  H   UNL     1       5.573   2.657  21.752  0.00  0.00    +0.211 HD
ENDBRANCH  38  45
BRANCH  37  47
ATOM     47  O   UNL     1       5.312   6.264  23.070  0.00  0.00    -0.365 OA
ATOM     48  H   UNL     1       5.392   6.918  23.791  0.00  0.00    +0.213 HD
ENDBRANCH  37  47
ENDBRANCH   1  38
BRANCH   6  49
ATOM     49  O   UNL     1       7.202   6.309  23.653  0.00  0.00    -0.386 OA
ATOM     50  H   UNL     1       6.738   6.103  24.494  0.00  0.00    +0.210 HD
ENDBRANCH   6  49
BRANCH   5  51
ATOM     51  O   UNL     1       9.880   6.344  22.938  0.00  0.00    -0.386 OA
ATOM     52  H   UNL     1       9.549   7.118  23.440  0.00  0.00    +0.210 HD
ENDBRANCH   5  51
BRANCH   2  53
ATOM     53  O   UNL     1       8.148   2.193  22.084  0.00  0.00    -0.359 OA
ATOM     54  H   UNL     1       8.966   2.596  21.738  0.00  0.00    +0.213 HD
ENDBRANCH   2  53
BRANCH   1  55
ATOM     55  O   UNL     1       7.205   4.137  25.215  0.00  0.00    -0.378 OA
ATOM     56  H   UNL     1       6.823   3.394  25.727  0.00  0.00    +0.211 HD
ENDBRANCH   1  55
BRANCH   4  57
ATOM     57  C   UNL     1      11.568   3.965  23.547  0.00  0.00    +0.190 C 
BRANCH  57  58
ATOM     58  O   UNL     1      12.276   4.732  22.585  0.00  0.00    -0.392 OA
ATOM     59  H   UNL     1      11.969   4.410  21.717  0.00  0.00    +0.210 HD
ENDBRANCH  57  58
ENDBRANCH   4  57
TORSDOF 18
ENDMDL
MODEL 6
REMARK VINA RESULT:      -6.7      3.159     10.072
REMARK  Name = 
REMARK  19 active torsions:
REMARK  status: ('A' for Active; 'I' for Inactive)
REMARK    1  A    between atoms: C_1  and  C_2
REMARK    2  A    between atoms: C_4  and  O_51
REMARK    3  A    between atoms: C_6  and  O_50
REMARK    4  A    between atoms: C_8  and  C_12
REMARK    5  A    between atoms: C_8  and  O_49
REMARK    6  A    between atoms: C_9  and  O_11
REMARK    7  A    between atoms: C_12  and  O_48
REMARK    8  A    between atoms: C_13  and  O_47
REMARK    9  A    between atoms: C_15  and  O_46
REMARK   10  A    between atoms: C_17  and  C_44
REMARK   11  A    between atoms: C_20  and  C_21
REMARK   12  A    between atoms: C_20  and  O_43
REMARK   13  A    between atoms: C_22  and  O_42
REMARK   14  A    between atoms: C_26  and  O_27
REMARK   15  A    between atoms: C_29  and  C_34
REMARK   16  A    between atoms: C_30  and  O_33
REMARK   17  A    between atoms: C_36  and  O_41
REMARK   18  A    between atoms: C_37  and  O_40
REMARK   19  A    between atoms: C_44  and  O_45
REMARK                            x       y       z     vdW  Elec       q    Type
REMARK                         _______ _______ _______ _____ _____    ______ ____
ROOT
ATOM      1  C   UNL     1       6.024   3.836  25.088  0.00  0.00    +0.188 C 
ATOM      2  C   UNL     1       6.507   2.889  26.357  0.00  0.00    +0.237 C 
ATOM      3  O   UNL     1       6.057   3.470  27.604  0.00  0.00    -0.334 OA
ATOM      4  C   UNL     1       6.485   4.822  27.865  0.00  0.00    +0.178 C 
ATOM      5  C   UNL     1       5.894   5.772  26.830  0.00  0.00    +0.177 C 
ATOM      6  C   UNL     1       6.350   5.340  25.428  0.00  0.00    +0.186 C 
ENDROOT
BRANCH   2   7
ATOM      7  C   UNL     1       6.055   1.397  26.506  0.00  0.00    +0.098 A 
ATOM      8  C   UNL     1       4.725   0.997  26.718  0.00  0.00    +0.132 A 
ATOM      9  C   UNL     1       4.299  -0.331  26.596  0.00  0.00    +0.093 A 
ATOM     10  C   UNL     1       5.220  -1.351  26.427  0.00  0.00    +0.147 A 
ATOM     11  O   UNL     1       4.701  -2.603  26.236  0.00  0.00    -0.451 OA
ATOM     12  C   UNL     1       5.530  -3.691  26.425  0.00  0.00    +0.181 A 
ATOM     13  C   UNL     1       6.853  -3.581  26.646  0.00  0.00    +0.208 A 
ATOM     14  C   UNL     1       7.503  -2.223  26.560  0.00  0.00    +0.238 A 
ATOM     15  O   UNL     1       8.720  -2.147  26.541  0.00  0.00    -0.283 OA
ATOM     16  C   UNL     1       6.576  -1.058  26.486  0.00  0.00    +0.110 A 
ATOM     17  C   UNL     1       6.984   0.306  26.504  0.00  0.00    +0.143 A 
BRANCH  12  18
ATOM     18  C   UNL     1       4.851  -5.003  26.284  0.00  0.00    +0.025 A 
ATOM     19  C   UNL     1       4.060  -5.511  27.338  0.00  0.00    +0.015 A 
ATOM     20  C   UNL     1       3.322  -6.693  27.173  0.00  0.00    +0.050 A 
ATOM     21  C   UNL     1       3.363  -7.348  25.964  0.00  0.00    +0.158 A 
ATOM     22  C   UNL     1       4.117  -6.869  24.914  0.00  0.00    +0.159 A 
ATOM     23  C   UNL     1       4.902  -5.731  25.084  0.00  0.00    +0.060 A 
BRANCH  22  24
ATOM     24  O   UNL     1       4.088  -7.556  23.738  0.00  0.00    -0.503 OA
ATOM     25  H   UNL     1       4.057  -6.903  23.014  0.00  0.00    +0.292 HD
ENDBRANCH  22  24
BRANCH  21  26
ATOM     26  O   UNL     1       2.600  -8.488  25.797  0.00  0.00    -0.503 OA
ATOM     27  H   UNL     1       2.115  -8.330  24.963  0.00  0.00    +0.292 HD
ENDBRANCH  21  26
ENDBRANCH  12  18
BRANCH  17  28
ATOM     28  O   UNL     1       8.335   0.547  26.573  0.00  0.00    -0.505 OA
ATOM     29  H   UNL     1       8.712   0.416  25.685  0.00  0.00    +0.292 HD
ENDBRANCH  17  28
BRANCH  13  30
ATOM     30  O   UNL     1       7.651  -4.681  26.902  0.00  0.00    -0.501 OA
ATOM     31  H   UNL     1       7.264  -5.422  26.403  0.00  0.00    +0.292 HD
ENDBRANCH  13  30
BRANCH   8  32
ATOM     32  O   UNL     1       3.770   1.913  27.045  0.00  0.00    -0.506 OA
ATOM     33  H   UNL     1       4.181   2.787  27.191  0.00  0.00    +0.292 HD
ENDBRANCH   8  32
ENDBRANCH   2   7
BRANCH   1  38
ATOM     34  C   UNL     1       9.856   1.895  21.953  0.00  0.00    +0.041 C 
ATOM     35  C   UNL     1       9.238   2.319  23.278  0.00  0.00    +0.149 C 
ATOM     36  O   UNL     1       8.059   1.602  23.680  0.00  0.00    -0.343 OA
ATOM     37  C   UNL     1       6.826   2.054  23.126  0.00  0.00    +0.285 C 
ATOM     38  C   UNL     1       6.485   3.521  23.534  0.00  0.00    +0.181 C 
ATOM     39  C   UNL     1       7.681   4.341  22.947  0.00  0.00    +0.185 C 
ATOM     40  C   UNL     1       9.047   3.840  23.430  0.00  0.00    +0.174 C 
BRANCH  40  41
ATOM     41  O   UNL     1       9.151   4.116  24.829  0.00  0.00    -0.387 OA
ATOM     42  H   UNL     1       9.203   3.227  25.249  0.00  0.00    +0.210 HD
ENDBRANCH  40  41
BRANCH  39  43
ATOM     43  O   UNL     1       7.558   4.322  21.500  0.00  0.00    -0.386 OA
ATOM     44  H   UNL     1       8.425   4.239  21.072  0.00  0.00    +0.210 HD
ENDBRANCH  39  43
BRANCH  38  45
ATOM     45  O   UNL     1       5.334   3.920  22.698  0.00  0.00    -0.378 OA
ATOM     46  H   UNL     1       5.707   4.351  21.899  0.00  0.00    +0.211 HD
ENDBRANCH  38  45
BRANCH  37  47
ATOM     47  O   UNL     1       5.779   1.158  23.436  0.00  0.00    -0.365 OA
ATOM     48  H   UNL     1       5.571   0.678  22.611  0.00  0.00    +0.213 HD
ENDBRANCH  37  47
ENDBRANCH   1  38
BRANCH   6  49
ATOM     49  O   UNL     1       5.746   6.264  24.488  0.00  0.00    -0.386 OA
ATOM     50  H   UNL     1       6.310   6.261  23.684  0.00  0.00    +0.210 HD
ENDBRANCH   6  49
BRANCH   5  51
ATOM     51  O   UNL     1       6.361   7.108  27.056  0.00  0.00    -0.386 OA
ATOM     52  H   UNL     1       7.324   7.011  27.214  0.00  0.00    +0.210 HD
ENDBRANCH   5  51
BRANCH   2  53
ATOM     53  O   UNL     1       7.935   2.851  26.451  0.00  0.00    -0.359 OA
ATOM     54  H   UNL     1       8.166   3.229  27.320  0.00  0.00    +0.213 HD
ENDBRANCH   2  53
BRANCH   1  55
ATOM     55  O   UNL     1       4.560   3.939  25.075  0.00  0.00    -0.378 OA
ATOM     56  H   UNL     1       4.188   3.046  24.913  0.00  0.00    +0.211 HD
ENDBRANCH   1  55
BRANCH   4  57
ATOM     57  C   UNL     1       6.097   5.178  29.311  0.00  0.00    +0.190 C 
BRANCH  57  58
ATOM     58  O   UNL     1       4.937   5.998  29.320  0.00  0.00    -0.392 OA
ATOM     59  H   UNL     1       5.213   6.836  29.737  0.00  0.00    +0.210 HD
ENDBRANCH  57  58
ENDBRANCH   4  57
TORSDOF 18
ENDMDL
MODEL 7
REMARK VINA RESULT:      -6.5      3.059     10.220
REMARK  Name = 
REMARK  19 active torsions:
REMARK  status: ('A' for Active; 'I' for Inactive)
REMARK    1  A    between atoms: C_1  and  C_2
REMARK    2  A    between atoms: C_4  and  O_51
REMARK    3  A    between atoms: C_6  and  O_50
REMARK    4  A    between atoms: C_8  and  C_12
REMARK    5  A    between atoms: C_8  and  O_49
REMARK    6  A    between atoms: C_9  and  O_11
REMARK    7  A    between atoms: C_12  and  O_48
REMARK    8  A    between atoms: C_13  and  O_47
REMARK    9  A    between atoms: C_15  and  O_46
REMARK   10  A    between atoms: C_17  and  C_44
REMARK   11  A    between atoms: C_20  and  C_21
REMARK   12  A    between atoms: C_20  and  O_43
REMARK   13  A    between atoms: C_22  and  O_42
REMARK   14  A    between atoms: C_26  and  O_27
REMARK   15  A    between atoms: C_29  and  C_34
REMARK   16  A    between atoms: C_30  and  O_33
REMARK   17  A    between atoms: C_36  and  O_41
REMARK   18  A    between atoms: C_37  and  O_40
REMARK   19  A    between atoms: C_44  and  O_45
REMARK                            x       y       z     vdW  Elec       q    Type
REMARK                         _______ _______ _______ _____ _____    ______ ____
ROOT
ATOM      1  C   UNL     1       6.730   0.988  25.628  0.00  0.00    +0.188 C 
ATOM      2  C   UNL     1       6.770  -0.376  26.566  0.00  0.00    +0.237 C 
ATOM      3  O   UNL     1       6.258  -0.081  27.886  0.00  0.00    -0.334 OA
ATOM      4  C   UNL     1       6.925   0.977  28.604  0.00  0.00    +0.178 C 
ATOM      5  C   UNL     1       6.743   2.305  27.878  0.00  0.00    +0.177 C 
ATOM      6  C   UNL     1       7.320   2.189  26.459  0.00  0.00    +0.186 C 
ENDROOT
BRANCH   2   7
ATOM      7  C   UNL     1       5.980  -1.674  26.187  0.00  0.00    +0.098 A 
ATOM      8  C   UNL     1       6.590  -2.893  25.846  0.00  0.00    +0.132 A 
ATOM      9  C   UNL     1       5.886  -4.100  25.759  0.00  0.00    +0.093 A 
ATOM     10  C   UNL     1       4.504  -4.114  25.838  0.00  0.00    +0.147 A 
ATOM     11  O   UNL     1       3.915  -5.350  25.825  0.00  0.00    -0.451 OA
ATOM     12  C   UNL     1       2.566  -5.429  25.536  0.00  0.00    +0.181 A 
ATOM     13  C   UNL     1       1.775  -4.348  25.409  0.00  0.00    +0.208 A 
ATOM     14  C   UNL     1       2.337  -2.984  25.718  0.00  0.00    +0.238 A 
ATOM     15  O   UNL     1       1.576  -2.035  25.817  0.00  0.00    -0.283 OA
ATOM     16  C   UNL     1       3.815  -2.911  25.899  0.00  0.00    +0.110 A 
ATOM     17  C   UNL     1       4.550  -1.707  26.092  0.00  0.00    +0.143 A 
BRANCH  12  18
ATOM     18  C   UNL     1       2.043  -6.815  25.456  0.00  0.00    +0.025 A 
ATOM     19  C   UNL     1       2.070  -7.514  24.229  0.00  0.00    +0.015 A 
ATOM     20  C   UNL     1       1.684  -8.863  24.166  0.00  0.00    +0.050 A 
ATOM     21  C   UNL     1       1.295  -9.505  25.319  0.00  0.00    +0.158 A 
ATOM     22  C   UNL     1       1.271  -8.851  26.531  0.00  0.00    +0.159 A 
ATOM     23  C   UNL     1       1.591  -7.497  26.598  0.00  0.00    +0.060 A 
BRANCH  22  24
ATOM     24  O   UNL     1       0.900  -9.558  27.635  0.00  0.00    -0.503 OA
ATOM     25  H   UNL     1       0.294 -10.264  27.345  0.00  0.00    +0.292 HD
ENDBRANCH  22  24
BRANCH  21  26
ATOM     26  O   UNL     1       0.958 -10.844  25.255  0.00  0.00    -0.503 OA
ATOM     27  H   UNL     1       1.258 -11.206  26.111  0.00  0.00    +0.292 HD
ENDBRANCH  21  26
ENDBRANCH  12  18
BRANCH  17  28
ATOM     28  O   UNL     1       3.827  -0.540  26.134  0.00  0.00    -0.505 OA
ATOM     29  H   UNL     1       4.414   0.169  26.455  0.00  0.00    +0.292 HD
ENDBRANCH  17  28
BRANCH  13  30
ATOM     30  O   UNL     1       0.443  -4.448  25.049  0.00  0.00    -0.501 OA
ATOM     31  H   UNL     1       0.209  -5.390  25.132  0.00  0.00    +0.292 HD
ENDBRANCH  13  30
BRANCH   8  32
ATOM     32  O   UNL     1       7.928  -2.951  25.594  0.00  0.00    -0.506 OA
ATOM     33  H   UNL     1       8.183  -2.241  24.973  0.00  0.00    +0.292 HD
ENDBRANCH   8  32
ENDBRANCH   2   7
BRANCH   1  38
ATOM     34  C   UNL     1      10.530  -0.879  22.410  0.00  0.00    +0.041 C 
ATOM     35  C   UNL     1       9.805  -0.708  23.737  0.00  0.00    +0.149 C 
ATOM     36  O   UNL     1       8.452  -1.190  23.782  0.00  0.00    -0.343 OA
ATOM     37  C   UNL     1       7.451  -0.305  23.287  0.00  0.00    +0.285 C 
ATOM     38  C   UNL     1       7.364   1.022  24.104  0.00  0.00    +0.181 C 
ATOM     39  C   UNL     1       8.785   1.648  23.918  0.00  0.00    +0.185 C 
ATOM     40  C   UNL     1       9.916   0.705  24.343  0.00  0.00    +0.174 C 
BRANCH  40  41
ATOM     41  O   UNL     1       9.845   0.536  25.761  0.00  0.00    -0.387 OA
ATOM     42  H   UNL     1      10.495   1.185  26.116  0.00  0.00    +0.210 HD
ENDBRANCH  40  41
BRANCH  39  43
ATOM     43  O   UNL     1       8.901   2.073  22.534  0.00  0.00    -0.386 OA
ATOM     44  H   UNL     1       8.494   2.943  22.396  0.00  0.00    +0.210 HD
ENDBRANCH  39  43
BRANCH  38  45
ATOM     45  O   UNL     1       6.476   1.918  23.333  0.00  0.00    -0.378 OA
ATOM     46  H   UNL     1       5.658   1.408  23.150  0.00  0.00    +0.211 HD
ENDBRANCH  38  45
BRANCH  37  47
ATOM     47  O   UNL     1       6.202  -0.959  23.200  0.00  0.00    -0.365 OA
ATOM     48  H   UNL     1       6.341  -1.867  23.534  0.00  0.00    +0.213 HD
ENDBRANCH  37  47
ENDBRANCH   1  38
BRANCH   6  49
ATOM     49  O   UNL     1       7.103   3.469  25.814  0.00  0.00    -0.386 OA
ATOM     50  H   UNL     1       6.446   3.955  26.359  0.00  0.00    +0.210 HD
ENDBRANCH   6  49
BRANCH   5  51
ATOM     51  O   UNL     1       7.450   3.347  28.561  0.00  0.00    -0.386 OA
ATOM     52  H   UNL     1       7.229   3.219  29.508  0.00  0.00    +0.210 HD
ENDBRANCH   5  51
BRANCH   2  53
ATOM     53  O   UNL     1       8.118  -0.814  26.772  0.00  0.00    -0.359 OA
ATOM     54  H   UNL     1       8.652  -0.011  26.914  0.00  0.00    +0.213 HD
ENDBRANCH   2  53
BRANCH   1  55
ATOM     55  O   UNL     1       5.349   1.471  25.515  0.00  0.00    -0.378 OA
ATOM     56  H   UNL     1       4.883   1.280  26.356  0.00  0.00    +0.211 HD
ENDBRANCH   1  55
BRANCH   4  57
ATOM     57  C   UNL     1       6.389   0.992  30.046  0.00  0.00    +0.190 C 
BRANCH  57  58
ATOM     58  O   UNL     1       5.609   2.157  30.268  0.00  0.00    -0.392 OA
ATOM     59  H   UNL     1       4.704   1.923  29.987  0.00  0.00    +0.210 HD
ENDBRANCH  57  58
ENDBRANCH   4  57
TORSDOF 18
ENDMDL
MODEL 8
REMARK VINA RESULT:      -6.4      2.946     10.199
REMARK  Name = 
REMARK  19 active torsions:
REMARK  status: ('A' for Active; 'I' for Inactive)
REMARK    1  A    between atoms: C_1  and  C_2
REMARK    2  A    between atoms: C_4  and  O_51
REMARK    3  A    between atoms: C_6  and  O_50
REMARK    4  A    between atoms: C_8  and  C_12
REMARK    5  A    between atoms: C_8  and  O_49
REMARK    6  A    between atoms: C_9  and  O_11
REMARK    7  A    between atoms: C_12  and  O_48
REMARK    8  A    between atoms: C_13  and  O_47
REMARK    9  A    between atoms: C_15  and  O_46
REMARK   10  A    between atoms: C_17  and  C_44
REMARK   11  A    between atoms: C_20  and  C_21
REMARK   12  A    between atoms: C_20  and  O_43
REMARK   13  A    between atoms: C_22  and  O_42
REMARK   14  A    between atoms: C_26  and  O_27
REMARK   15  A    between atoms: C_29  and  C_34
REMARK   16  A    between atoms: C_30  and  O_33
REMARK   17  A    between atoms: C_36  and  O_41
REMARK   18  A    between atoms: C_37  and  O_40
REMARK   19  A    between atoms: C_44  and  O_45
REMARK                            x       y       z     vdW  Elec       q    Type
REMARK                         _______ _______ _______ _____ _____    ______ ____
ROOT
ATOM      1  C   UNL     1       6.813   1.532  24.839  0.00  0.00    +0.188 C 
ATOM      2  C   UNL     1       6.943   0.592  26.195  0.00  0.00    +0.237 C 
ATOM      3  O   UNL     1       6.507   1.339  27.355  0.00  0.00    -0.334 OA
ATOM      4  C   UNL     1       7.193   2.583  27.604  0.00  0.00    +0.178 C 
ATOM      5  C   UNL     1       6.936   3.565  26.468  0.00  0.00    +0.177 C 
ATOM      6  C   UNL     1       7.426   2.950  25.148  0.00  0.00    +0.186 C 
ENDROOT
BRANCH   2   7
ATOM      7  C   UNL     1       6.160  -0.755  26.356  0.00  0.00    +0.098 A 
ATOM      8  C   UNL     1       6.771  -2.020  26.380  0.00  0.00    +0.132 A 
ATOM      9  C   UNL     1       6.100  -3.184  26.774  0.00  0.00    +0.093 A 
ATOM     10  C   UNL     1       4.735  -3.165  26.998  0.00  0.00    +0.147 A 
ATOM     11  O   UNL     1       4.186  -4.332  27.459  0.00  0.00    -0.451 OA
ATOM     12  C   UNL     1       2.819  -4.498  27.356  0.00  0.00    +0.181 A 
ATOM     13  C   UNL     1       1.985  -3.519  26.959  0.00  0.00    +0.208 A 
ATOM     14  C   UNL     1       2.532  -2.132  26.735  0.00  0.00    +0.238 A 
ATOM     15  O   UNL     1       1.755  -1.202  26.592  0.00  0.00    -0.283 OA
ATOM     16  C   UNL     1       4.018  -2.008  26.725  0.00  0.00    +0.110 A 
ATOM     17  C   UNL     1       4.729  -0.812  26.428  0.00  0.00    +0.143 A 
BRANCH  12  18
ATOM     18  C   UNL     1       2.334  -5.829  27.798  0.00  0.00    +0.025 A 
ATOM     19  C   UNL     1       2.003  -6.050  29.153  0.00  0.00    +0.015 A 
ATOM     20  C   UNL     1       1.436  -7.268  29.561  0.00  0.00    +0.050 A 
ATOM     21  C   UNL     1       1.189  -8.242  28.622  0.00  0.00    +0.158 A 
ATOM     22  C   UNL     1       1.491  -8.049  27.291  0.00  0.00    +0.159 A 
ATOM     23  C   UNL     1       2.110  -6.870  26.882  0.00  0.00    +0.060 A 
BRANCH  22  24
ATOM     24  O   UNL     1       1.193  -9.048  26.414  0.00  0.00    -0.503 OA
ATOM     25  H   UNL     1       0.395  -9.502  26.741  0.00  0.00    +0.292 HD
ENDBRANCH  22  24
BRANCH  21  26
ATOM     26  O   UNL     1       0.592  -9.422  29.026  0.00  0.00    -0.503 OA
ATOM     27  H   UNL     1       0.283  -9.829  28.194  0.00  0.00    +0.292 HD
ENDBRANCH  21  26
ENDBRANCH  12  18
BRANCH  17  28
ATOM     28  O   UNL     1       3.978   0.304  26.154  0.00  0.00    -0.505 OA
ATOM     29  H   UNL     1       4.559   1.084  26.218  0.00  0.00    +0.292 HD
ENDBRANCH  17  28
BRANCH  13  30
ATOM     30  O   UNL     1       0.628  -3.729  26.795  0.00  0.00    -0.501 OA
ATOM     31  H   UNL     1       0.352  -4.311  27.526  0.00  0.00    +0.292 HD
ENDBRANCH  13  30
BRANCH   8  32
ATOM     32  O   UNL     1       8.078  -2.164  26.022  0.00  0.00    -0.506 OA
ATOM     33  H   UNL     1       8.253  -3.088  25.758  0.00  0.00    +0.292 HD
ENDBRANCH   8  32
ENDBRANCH   2   7
BRANCH   1  38
ATOM     34  C   UNL     1      10.568  -1.189  22.235  0.00  0.00    +0.041 C 
ATOM     35  C   UNL     1       9.911  -0.568  23.459  0.00  0.00    +0.149 C 
ATOM     36  O   UNL     1       8.611  -1.077  23.802  0.00  0.00    -0.343 OA
ATOM     37  C   UNL     1       7.507  -0.510  23.101  0.00  0.00    +0.285 C 
ATOM     38  C   UNL     1       7.351   1.020  23.364  0.00  0.00    +0.181 C 
ATOM     39  C   UNL     1       8.697   1.613  22.831  0.00  0.00    +0.185 C 
ATOM     40  C   UNL     1       9.931   0.973  23.478  0.00  0.00    +0.174 C 
BRANCH  40  41
ATOM     41  O   UNL     1       9.959   1.354  24.855  0.00  0.00    -0.387 OA
ATOM     42  H   UNL     1      10.663   0.789  25.249  0.00  0.00    +0.210 HD
ENDBRANCH  40  41
BRANCH  39  43
ATOM     43  O   UNL     1       8.692   1.483  21.385  0.00  0.00    -0.386 OA
ATOM     44  H   UNL     1       9.203   0.708  21.097  0.00  0.00    +0.210 HD
ENDBRANCH  39  43
BRANCH  38  45
ATOM     45  O   UNL     1       6.342   1.499  22.395  0.00  0.00    -0.378 OA
ATOM     46  H   UNL     1       5.465   1.332  22.802  0.00  0.00    +0.211 HD
ENDBRANCH  38  45
BRANCH  37  47
ATOM     47  O   UNL     1       6.319  -1.222  23.378  0.00  0.00    -0.365 OA
ATOM     48  H   UNL     1       6.152  -1.121  24.335  0.00  0.00    +0.213 HD
ENDBRANCH  37  47
ENDBRANCH   1  38
BRANCH   6  49
ATOM     49  O   UNL     1       7.141   3.916  24.105  0.00  0.00    -0.386 OA
ATOM     50  H   UNL     1       6.186   4.137  24.175  0.00  0.00    +0.210 HD
ENDBRANCH   6  49
BRANCH   5  51
ATOM     51  O   UNL     1       7.661   4.781  26.687  0.00  0.00    -0.386 OA
ATOM     52  H   UNL     1       7.441   5.344  25.915  0.00  0.00    +0.210 HD
ENDBRANCH   5  51
BRANCH   2  53
ATOM     53  O   UNL     1       8.310   0.255  26.455  0.00  0.00    -0.359 OA
ATOM     54  H   UNL     1       8.300  -0.586  26.947  0.00  0.00    +0.213 HD
ENDBRANCH   2  53
BRANCH   1  55
ATOM     55  O   UNL     1       5.417   1.945  24.653  0.00  0.00    -0.378 OA
ATOM     56  H   UNL     1       5.360   2.915  24.784  0.00  0.00    +0.211 HD
ENDBRANCH   1  55
BRANCH   4  57
ATOM     57  C   UNL     1       6.747   3.111  28.979  0.00  0.00    +0.190 C 
BRANCH  57  58
ATOM     58  O   UNL     1       7.568   4.199  29.376  0.00  0.00    -0.392 OA
ATOM     59  H   UNL     1       7.099   4.623  30.120  0.00  0.00    +0.210 HD
ENDBRANCH  57  58
ENDBRANCH   4  57
TORSDOF 18
ENDMDL
MODEL 9
REMARK VINA RESULT:      -6.0      2.883      9.520
REMARK  Name = 
REMARK  19 active torsions:
REMARK  status: ('A' for Active; 'I' for Inactive)
REMARK    1  A    between atoms: C_1  and  C_2
REMARK    2  A    between atoms: C_4  and  O_51
REMARK    3  A    between atoms: C_6  and  O_50
REMARK    4  A    between atoms: C_8  and  C_12
REMARK    5  A    between atoms: C_8  and  O_49
REMARK    6  A    between atoms: C_9  and  O_11
REMARK    7  A    between atoms: C_12  and  O_48
REMARK    8  A    between atoms: C_13  and  O_47
REMARK    9  A    between atoms: C_15  and  O_46
REMARK   10  A    between atoms: C_17  and  C_44
REMARK   11  A    between atoms: C_20  and  C_21
REMARK   12  A    between atoms: C_20  and  O_43
REMARK   13  A    between atoms: C_22  and  O_42
REMARK   14  A    between atoms: C_26  and  O_27
REMARK   15  A    between atoms: C_29  and  C_34
REMARK   16  A    between atoms: C_30  and  O_33
REMARK   17  A    between atoms: C_36  and  O_41
REMARK   18  A    between atoms: C_37  and  O_40
REMARK   19  A    between atoms: C_44  and  O_45
REMARK                            x       y       z     vdW  Elec       q    Type
REMARK                         _______ _______ _______ _____ _____    ______ ____
ROOT
ATOM      1  C   UNL     1       7.688   1.860  24.402  0.00  0.00    +0.188 C 
ATOM      2  C   UNL     1       7.178   0.373  23.882  0.00  0.00    +0.237 C 
ATOM      3  O   UNL     1       8.287  -0.349  23.297  0.00  0.00    -0.334 OA
ATOM      4  C   UNL     1       8.962   0.302  22.201  0.00  0.00    +0.178 C 
ATOM      5  C   UNL     1       9.626   1.587  22.679  0.00  0.00    +0.177 C 
ATOM      6  C   UNL     1       8.557   2.521  23.266  0.00  0.00    +0.186 C 
ENDROOT
BRANCH   2   7
ATOM      7  C   UNL     1       6.569  -0.690  24.857  0.00  0.00    +0.098 A 
ATOM      8  C   UNL     1       5.280  -0.602  25.408  0.00  0.00    +0.132 A 
ATOM      9  C   UNL     1       4.656  -1.669  26.066  0.00  0.00    +0.093 A 
ATOM     10  C   UNL     1       5.364  -2.822  26.359  0.00  0.00    +0.147 A 
ATOM     11  O   UNL     1       4.645  -3.838  26.930  0.00  0.00    -0.451 OA
ATOM     12  C   UNL     1       5.336  -4.849  27.570  0.00  0.00    +0.181 A 
ATOM     13  C   UNL     1       6.677  -4.962  27.537  0.00  0.00    +0.208 A 
ATOM     14  C   UNL     1       7.472  -4.026  26.662  0.00  0.00    +0.238 A 
ATOM     15  O   UNL     1       8.653  -4.261  26.459  0.00  0.00    -0.283 OA
ATOM     16  C   UNL     1       6.724  -2.871  26.089  0.00  0.00    +0.110 A 
ATOM     17  C   UNL     1       7.312  -1.822  25.327  0.00  0.00    +0.143 A 
BRANCH  12  18
ATOM     18  C   UNL     1       4.467  -5.852  28.234  0.00  0.00    +0.025 A 
ATOM     19  C   UNL     1       4.503  -6.004  29.637  0.00  0.00    +0.015 A 
ATOM     20  C   UNL     1       3.605  -6.867  30.286  0.00  0.00    +0.050 A 
ATOM     21  C   UNL     1       2.675  -7.553  29.540  0.00  0.00    +0.158 A 
ATOM     22  C   UNL     1       2.609  -7.413  28.171  0.00  0.00    +0.159 A 
ATOM     23  C   UNL     1       3.533  -6.609  27.508  0.00  0.00    +0.060 A 
BRANCH  22  24
ATOM     24  O   UNL     1       1.644  -8.103  27.501  0.00  0.00    -0.503 OA
ATOM     25  H   UNL     1       1.997  -8.329  26.621  0.00  0.00    +0.292 HD
ENDBRANCH  22  24
BRANCH  21  26
ATOM     26  O   UNL     1       1.768  -8.367  30.192  0.00  0.00    -0.503 OA
ATOM     27  H   UNL     1       2.059  -8.349  31.124  0.00  0.00    +0.292 HD
ENDBRANCH  21  26
ENDBRANCH  12  18
BRANCH  17  28
ATOM     28  O   UNL     1       8.663  -1.907  25.094  0.00  0.00    -0.505 OA
ATOM     29  H   UNL     1       9.100  -2.154  25.928  0.00  0.00    +0.292 HD
ENDBRANCH  17  28
BRANCH  13  30
ATOM     30  O   UNL     1       7.351  -5.941  28.243  0.00  0.00    -0.501 OA
ATOM     31  H   UNL     1       8.241  -5.995  27.851  0.00  0.00    +0.292 HD
ENDBRANCH  13  30
BRANCH   8  32
ATOM     32  O   UNL     1       4.561   0.552  25.307  0.00  0.00    -0.506 OA
ATOM     33  H   UNL     1       4.802   1.161  26.033  0.00  0.00    +0.292 HD
ENDBRANCH   8  32
ENDBRANCH   2   7
BRANCH   1  38
ATOM     34  C   UNL     1       6.470   4.954  28.552  0.00  0.00    +0.041 C 
ATOM     35  C   UNL     1       7.263   3.888  27.810  0.00  0.00    +0.149 C 
ATOM     36  O   UNL     1       7.955   4.327  26.629  0.00  0.00    -0.343 OA
ATOM     37  C   UNL     1       7.184   4.382  25.431  0.00  0.00    +0.285 C 
ATOM     38  C   UNL     1       6.638   2.984  25.004  0.00  0.00    +0.181 C 
ATOM     39  C   UNL     1       5.737   2.568  26.213  0.00  0.00    +0.185 C 
ATOM     40  C   UNL     1       6.485   2.584  27.551  0.00  0.00    +0.174 C 
BRANCH  40  41
ATOM     41  O   UNL     1       7.458   1.538  27.528  0.00  0.00    -0.387 OA
ATOM     42  H   UNL     1       8.210   1.916  27.018  0.00  0.00    +0.210 HD
ENDBRANCH  40  41
BRANCH  39  43
ATOM     43  O   UNL     1       4.573   3.437  26.212  0.00  0.00    -0.386 OA
ATOM     44  H   UNL     1       4.186   3.512  27.100  0.00  0.00    +0.210 HD
ENDBRANCH  39  43
BRANCH  38  45
ATOM     45  O   UNL     1       5.674   3.239  23.912  0.00  0.00    -0.378 OA
ATOM     46  H   UNL     1       5.232   2.383  23.727  0.00  0.00    +0.211 HD
ENDBRANCH  38  45
BRANCH  37  47
ATOM     47  O   UNL     1       7.913   5.008  24.395  0.00  0.00    -0.365 OA
ATOM     48  H   UNL     1       7.278   5.175  23.672  0.00  0.00    +0.213 HD
ENDBRANCH  37  47
ENDBRANCH   1  38
BRANCH   6  49
ATOM     49  O   UNL     1       9.246   3.713  23.719  0.00  0.00    -0.386 OA
ATOM     50  H   UNL     1      10.204   3.569  23.554  0.00  0.00    +0.210 HD
ENDBRANCH   6  49
BRANCH   5  51
ATOM     51  O   UNL     1      10.251   2.263  21.582  0.00  0.00    -0.386 OA
ATOM     52  H   UNL     1       9.520   2.738  21.133  0.00  0.00    +0.210 HD
ENDBRANCH   5  51
BRANCH   2  53
ATOM     53  O   UNL     1       6.214   0.502  22.831  0.00  0.00    -0.359 OA
ATOM     54  H   UNL     1       6.660   0.226  22.009  0.00  0.00    +0.213 HD
ENDBRANCH   2  53
BRANCH   1  55
ATOM     55  O   UNL     1       8.746   1.699  25.406  0.00  0.00    -0.378 OA
ATOM     56  H   UNL     1       9.094   2.586  25.635  0.00  0.00    +0.211 HD
ENDBRANCH   1  55
BRANCH   4  57
ATOM     57  C   UNL     1       9.950  -0.701  21.581  0.00  0.00    +0.190 C 
BRANCH  57  58
ATOM     58  O   UNL     1      10.098  -1.831  22.428  0.00  0.00    -0.392 OA
ATOM     59  H   UNL     1      11.059  -1.994  22.481  0.00  0.00    +0.210 HD
ENDBRANCH  57  58
ENDBRANCH   4  57
TORSDOF 18
ENDMDL
