MODEL 1
REMARK VINA RESULT:      -7.3      0.000      0.000
REMARK  Name = 
REMARK  11 active torsions:
REMARK  status: ('A' for Active; 'I' for Inactive)
REMARK    1  A    between atoms: C_1  and  C_2
REMARK    2  A    between atoms: C_4  and  O_37
REMARK    3  A    between atoms: C_6  and  O_36
REMARK    4  A    between atoms: C_8  and  O_35
REMARK    5  A    between atoms: C_10  and  O_13
REMARK    6  A    between atoms: O_13  and  C_14
REMARK    7  A    between atoms: C_15  and  C_27
REMARK    8  A    between atoms: C_19  and  O_26
REMARK    9  A    between atoms: C_21  and  O_25
REMARK   10  A    between atoms: C_29  and  O_34
REMARK   11  A    between atoms: C_30  and  O_33
REMARK                            x       y       z     vdW  Elec       q    Type
REMARK                         _______ _______ _______ _____ _____    ______ ____
ROOT
ATOM      1  C   UNL     1       6.981  -4.440  24.884  0.00  0.00    +0.214 A 
ATOM      2  C   UNL     1       7.729  -3.718  23.812  0.00  0.00    +0.238 A 
ATOM      3  O   UNL     1       7.956  -4.237  22.728  0.00  0.00    -0.283 OA
ATOM      4  C   UNL     1       8.273  -2.395  24.145  0.00  0.00    +0.109 A 
ATOM      5  C   UNL     1       8.267  -2.012  25.486  0.00  0.00    +0.147 A 
ATOM      6  C   UNL     1       8.871  -0.810  25.868  0.00  0.00    +0.092 A 
ATOM      7  C   UNL     1       9.472  -0.007  24.900  0.00  0.00    +0.124 A 
ATOM      8  C   UNL     1       9.461  -0.365  23.558  0.00  0.00    +0.091 A 
ATOM      9  O   UNL     1       7.709  -2.775  26.484  0.00  0.00    -0.451 OA
ATOM     10  C   UNL     1       8.853  -1.559  23.179  0.00  0.00    +0.135 A 
ATOM     11  C   UNL     1       7.061  -3.961  26.145  0.00  0.00    +0.181 A 
ENDROOT
BRANCH  11  12
ATOM     12  C   UNL     1       6.455  -4.670  27.316  0.00  0.00    +0.025 A 
ATOM     13  C   UNL     1       5.295  -4.172  27.943  0.00  0.00    +0.015 A 
ATOM     14  C   UNL     1       4.697  -4.849  29.019  0.00  0.00    +0.050 A 
ATOM     15  C   UNL     1       5.248  -6.039  29.466  0.00  0.00    +0.158 A 
ATOM     16  C   UNL     1       6.402  -6.540  28.883  0.00  0.00    +0.159 A 
ATOM     17  C   UNL     1       7.020  -5.852  27.841  0.00  0.00    +0.060 A 
BRANCH  15  18
ATOM     18  O   UNL     1       4.648  -6.721  30.484  0.00  0.00    -0.503 OA
ATOM     19  H   UNL     1       4.573  -7.639  30.153  0.00  0.00    +0.292 HD
ENDBRANCH  15  18
BRANCH  16  20
ATOM     20  O   UNL     1       6.897  -7.725  29.356  0.00  0.00    -0.503 OA
ATOM     21  H   UNL     1       6.323  -8.443  29.032  0.00  0.00    +0.292 HD
ENDBRANCH  16  20
ENDBRANCH  11  12
BRANCH   7  22
ATOM     22  O   UNL     1      10.097   1.162  25.221  0.00  0.00    -0.507 OA
ATOM     23  H   UNL     1       9.433   1.859  25.340  0.00  0.00    +0.292 HD
ENDBRANCH   7  22
BRANCH  10  24
ATOM     24  O   UNL     1       8.821  -1.885  21.852  0.00  0.00    -0.506 OA
ATOM     25  H   UNL     1       8.334  -1.210  21.351  0.00  0.00    +0.292 HD
ENDBRANCH  10  24
BRANCH   1  26
ATOM     26  O   UNL     1       6.320  -5.626  24.618  0.00  0.00    -0.453 OA
BRANCH  26  30
ATOM     27  C   UNL     1       2.270  -5.471  26.199  0.00  0.00    +0.041 C 
ATOM     28  C   UNL     1       2.934  -6.671  25.532  0.00  0.00    +0.150 C 
ATOM     29  O   UNL     1       4.366  -6.566  25.522  0.00  0.00    -0.334 OA
ATOM     30  C   UNL     1       4.892  -5.625  24.582  0.00  0.00    +0.339 C 
ATOM     31  C   UNL     1       4.492  -5.981  23.137  0.00  0.00    +0.214 C 
ATOM     32  C   UNL     1       2.966  -6.092  23.028  0.00  0.00    +0.180 C 
ATOM     33  C   UNL     1       2.412  -7.014  24.124  0.00  0.00    +0.174 C 
BRANCH  31  34
ATOM     34  O   UNL     1       4.979  -5.002  22.201  0.00  0.00    -0.383 OA
ATOM     35  H   UNL     1       5.941  -5.141  22.116  0.00  0.00    +0.210 HD
ENDBRANCH  31  34
BRANCH  32  36
ATOM     36  O   UNL     1       2.353  -4.793  23.029  0.00  0.00    -0.386 OA
ATOM     37  H   UNL     1       2.608  -4.284  22.242  0.00  0.00    +0.210 HD
ENDBRANCH  32  36
BRANCH  33  38
ATOM     38  O   UNL     1       2.821  -8.362  23.819  0.00  0.00    -0.387 OA
ATOM     39  H   UNL     1       2.669  -8.910  24.614  0.00  0.00    +0.210 HD
ENDBRANCH  33  38
ENDBRANCH  26  30
ENDBRANCH   1  26
TORSDOF 10
ENDMDL
MODEL 2
REMARK VINA RESULT:      -7.1      2.422      7.117
REMARK  Name = 
REMARK  11 active torsions:
REMARK  status: ('A' for Active; 'I' for Inactive)
REMARK    1  A    between atoms: C_1  and  C_2
REMARK    2  A    between atoms: C_4  and  O_37
REMARK    3  A    between atoms: C_6  and  O_36
REMARK    4  A    between atoms: C_8  and  O_35
REMARK    5  A    between atoms: C_10  and  O_13
REMARK    6  A    between atoms: O_13  and  C_14
REMARK    7  A    between atoms: C_15  and  C_27
REMARK    8  A    between atoms: C_19  and  O_26
REMARK    9  A    between atoms: C_21  and  O_25
REMARK   10  A    between atoms: C_29  and  O_34
REMARK   11  A    between atoms: C_30  and  O_33
REMARK                            x       y       z     vdW  Elec       q    Type
REMARK                         _______ _______ _______ _____ _____    ______ ____
ROOT
ATOM      1  C   UNL     1       5.903  -2.189  23.892  0.00  0.00    +0.214 A 
ATOM      2  C   UNL     1       5.432  -3.402  23.161  0.00  0.00    +0.238 A 
ATOM      3  O   UNL     1       5.297  -3.405  21.945  0.00  0.00    -0.283 OA
ATOM      4  C   UNL     1       5.039  -4.564  23.968  0.00  0.00    +0.109 A 
ATOM      5  C   UNL     1       4.902  -4.381  25.343  0.00  0.00    +0.147 A 
ATOM      6  C   UNL     1       4.426  -5.426  26.140  0.00  0.00    +0.092 A 
ATOM      7  C   UNL     1       4.095  -6.644  25.547  0.00  0.00    +0.124 A 
ATOM      8  C   UNL     1       4.253  -6.847  24.182  0.00  0.00    +0.091 A 
ATOM      9  O   UNL     1       5.192  -3.195  25.976  0.00  0.00    -0.451 OA
ATOM     10  C   UNL     1       4.733  -5.808  23.392  0.00  0.00    +0.135 A 
ATOM     11  C   UNL     1       5.707  -2.138  25.228  0.00  0.00    +0.181 A 
ENDROOT
BRANCH  11  12
ATOM     12  C   UNL     1       6.026  -0.924  26.044  0.00  0.00    +0.025 A 
ATOM     13  C   UNL     1       5.198   0.215  26.000  0.00  0.00    +0.015 A 
ATOM     14  C   UNL     1       5.468   1.346  26.790  0.00  0.00    +0.050 A 
ATOM     15  C   UNL     1       6.561   1.338  27.640  0.00  0.00    +0.158 A 
ATOM     16  C   UNL     1       7.406   0.240  27.686  0.00  0.00    +0.159 A 
ATOM     17  C   UNL     1       7.164  -0.868  26.877  0.00  0.00    +0.060 A 
BRANCH  15  18
ATOM     18  O   UNL     1       6.804   2.418  28.439  0.00  0.00    -0.503 OA
ATOM     19  H   UNL     1       7.499   2.114  29.058  0.00  0.00    +0.292 HD
ENDBRANCH  15  18
BRANCH  16  20
ATOM     20  O   UNL     1       8.464   0.281  28.553  0.00  0.00    -0.503 OA
ATOM     21  H   UNL     1       8.521  -0.583  29.002  0.00  0.00    +0.292 HD
ENDBRANCH  16  20
ENDBRANCH  11  12
BRANCH   7  22
ATOM     22  O   UNL     1       3.602  -7.687  26.273  0.00  0.00    -0.507 OA
ATOM     23  H   UNL     1       3.796  -8.519  25.813  0.00  0.00    +0.292 HD
ENDBRANCH   7  22
BRANCH  10  24
ATOM     24  O   UNL     1       4.915  -6.030  22.055  0.00  0.00    -0.506 OA
ATOM     25  H   UNL     1       4.728  -5.221  21.551  0.00  0.00    +0.292 HD
ENDBRANCH  10  24
BRANCH   1  26
ATOM     26  O   UNL     1       6.421  -1.101  23.212  0.00  0.00    -0.453 OA
BRANCH  26  30
ATOM     27  C   UNL     1      10.132   0.356  24.952  0.00  0.00    +0.041 C 
ATOM     28  C   UNL     1       9.444   0.901  23.705  0.00  0.00    +0.150 C 
ATOM     29  O   UNL     1       8.060   0.527  23.639  0.00  0.00    -0.334 OA
ATOM     30  C   UNL     1       7.822  -0.840  23.294  0.00  0.00    +0.339 C 
ATOM     31  C   UNL     1       8.413  -1.189  21.914  0.00  0.00    +0.214 C 
ATOM     32  C   UNL     1       9.909  -0.851  21.884  0.00  0.00    +0.180 C 
ATOM     33  C   UNL     1      10.149   0.584  22.373  0.00  0.00    +0.174 C 
BRANCH  31  34
ATOM     34  O   UNL     1       8.219  -2.579  21.596  0.00  0.00    -0.383 OA
ATOM     35  H   UNL     1       9.090  -2.940  21.343  0.00  0.00    +0.210 HD
ENDBRANCH  31  34
BRANCH  32  36
ATOM     36  O   UNL     1      10.672  -1.825  22.614  0.00  0.00    -0.386 OA
ATOM     37  H   UNL     1      10.303  -1.967  23.501  0.00  0.00    +0.210 HD
ENDBRANCH  32  36
BRANCH  33  38
ATOM     38  O   UNL     1       9.630   1.486  21.375  0.00  0.00    -0.387 OA
ATOM     39  H   UNL     1      10.370   2.041  21.057  0.00  0.00    +0.210 HD
ENDBRANCH  33  38
ENDBRANCH  26  30
ENDBRANCH   1  26
TORSDOF 10
ENDMDL
MODEL 3
REMARK VINA RESULT:      -6.7      2.707      7.148
REMARK  Name = 
REMARK  11 active torsions:
REMARK  status: ('A' for Active; 'I' for Inactive)
REMARK    1  A    between atoms: C_1  and  C_2
REMARK    2  A    between atoms: C_4  and  O_37
REMARK    3  A    between atoms: C_6  and  O_36
REMARK    4  A    between atoms: C_8  and  O_35
REMARK    5  A    between atoms: C_10  and  O_13
REMARK    6  A    between atoms: O_13  and  C_14
REMARK    7  A    between atoms: C_15  and  C_27
REMARK    8  A    between atoms: C_19  and  O_26
REMARK    9  A    between atoms: C_21  and  O_25
REMARK   10  A    between atoms: C_29  and  O_34
REMARK   11  A    between atoms: C_30  and  O_33
REMARK                            x       y       z     vdW  Elec       q    Type
REMARK                         _______ _______ _______ _____ _____    ______ ____
ROOT
ATOM      1  C   UNL     1       5.971  -1.672  24.058  0.00  0.00    +0.214 A 
ATOM      2  C   UNL     1       5.673  -2.812  23.141  0.00  0.00    +0.238 A 
ATOM      3  O   UNL     1       5.572  -2.653  21.932  0.00  0.00    -0.283 OA
ATOM      4  C   UNL     1       5.404  -4.118  23.756  0.00  0.00    +0.109 A 
ATOM      5  C   UNL     1       5.208  -4.155  25.136  0.00  0.00    +0.147 A 
ATOM      6  C   UNL     1       4.843  -5.356  25.754  0.00  0.00    +0.092 A 
ATOM      7  C   UNL     1       4.680  -6.504  24.979  0.00  0.00    +0.124 A 
ATOM      8  C   UNL     1       4.899  -6.484  23.608  0.00  0.00    +0.091 A 
ATOM      9  O   UNL     1       5.333  -3.050  25.943  0.00  0.00    -0.451 OA
ATOM     10  C   UNL     1       5.269  -5.291  22.996  0.00  0.00    +0.135 A 
ATOM     11  C   UNL     1       5.735  -1.842  25.378  0.00  0.00    +0.181 A 
ENDROOT
BRANCH  11  12
ATOM     12  C   UNL     1       5.880  -0.732  26.372  0.00  0.00    +0.025 A 
ATOM     13  C   UNL     1       4.822   0.169  26.610  0.00  0.00    +0.015 A 
ATOM     14  C   UNL     1       4.934   1.192  27.567  0.00  0.00    +0.050 A 
ATOM     15  C   UNL     1       6.102   1.311  28.303  0.00  0.00    +0.158 A 
ATOM     16  C   UNL     1       7.167   0.454  28.072  0.00  0.00    +0.159 A 
ATOM     17  C   UNL     1       7.074  -0.538  27.098  0.00  0.00    +0.060 A 
BRANCH  15  18
ATOM     18  O   UNL     1       6.201   2.277  29.262  0.00  0.00    -0.503 OA
ATOM     19  H   UNL     1       5.564   2.965  28.983  0.00  0.00    +0.292 HD
ENDBRANCH  15  18
BRANCH  16  20
ATOM     20  O   UNL     1       8.291   0.609  28.836  0.00  0.00    -0.503 OA
ATOM     21  H   UNL     1       8.213   1.449  29.323  0.00  0.00    +0.292 HD
ENDBRANCH  16  20
ENDBRANCH  11  12
BRANCH   7  22
ATOM     22  O   UNL     1       4.300  -7.693  25.527  0.00  0.00    -0.507 OA
ATOM     23  H   UNL     1       4.948  -8.376  25.294  0.00  0.00    +0.292 HD
ENDBRANCH   7  22
BRANCH  10  24
ATOM     24  O   UNL     1       5.513  -5.292  21.651  0.00  0.00    -0.506 OA
ATOM     25  H   UNL     1       5.812  -4.414  21.362  0.00  0.00    +0.292 HD
ENDBRANCH  10  24
BRANCH   1  26
ATOM     26  O   UNL     1       6.370  -0.443  23.563  0.00  0.00    -0.453 OA
BRANCH  26  30
ATOM     27  C   UNL     1      10.408  -1.643  22.483  0.00  0.00    +0.041 C 
ATOM     28  C   UNL     1      10.005  -0.827  23.707  0.00  0.00    +0.150 C 
ATOM     29  O   UNL     1       8.612  -0.969  24.022  0.00  0.00    -0.334 OA
ATOM     30  C   UNL     1       7.723  -0.275  23.142  0.00  0.00    +0.339 C 
ATOM     31  C   UNL     1       7.996   1.242  23.138  0.00  0.00    +0.214 C 
ATOM     32  C   UNL     1       9.463   1.510  22.783  0.00  0.00    +0.180 C 
ATOM     33  C   UNL     1      10.396   0.663  23.662  0.00  0.00    +0.174 C 
BRANCH  31  34
ATOM     34  O   UNL     1       7.135   1.927  22.211  0.00  0.00    -0.383 OA
ATOM     35  H   UNL     1       6.235   1.570  22.338  0.00  0.00    +0.210 HD
ENDBRANCH  31  34
BRANCH  32  36
ATOM     36  O   UNL     1       9.697   1.321  21.379  0.00  0.00    -0.386 OA
ATOM     37  H   UNL     1       9.359   0.461  21.079  0.00  0.00    +0.210 HD
ENDBRANCH  32  36
BRANCH  33  38
ATOM     38  O   UNL     1      10.327   1.176  25.007  0.00  0.00    -0.387 OA
ATOM     39  H   UNL     1       9.390   1.168  25.284  0.00  0.00    +0.210 HD
ENDBRANCH  33  38
ENDBRANCH  26  30
ENDBRANCH   1  26
TORSDOF 10
ENDMDL
MODEL 4
REMARK VINA RESULT:      -6.7      2.403      3.694
REMARK  Name = 
REMARK  11 active torsions:
REMARK  status: ('A' for Active; 'I' for Inactive)
REMARK    1  A    between atoms: C_1  and  C_2
REMARK    2  A    between atoms: C_4  and  O_37
REMARK    3  A    between atoms: C_6  and  O_36
REMARK    4  A    between atoms: C_8  and  O_35
REMARK    5  A    between atoms: C_10  and  O_13
REMARK    6  A    between atoms: O_13  and  C_14
REMARK    7  A    between atoms: C_15  and  C_27
REMARK    8  A    between atoms: C_19  and  O_26
REMARK    9  A    between atoms: C_21  and  O_25
REMARK   10  A    between atoms: C_29  and  O_34
REMARK   11  A    between atoms: C_30  and  O_33
REMARK                            x       y       z     vdW  Elec       q    Type
REMARK                         _______ _______ _______ _____ _____    ______ ____
ROOT
ATOM      1  C   UNL     1       7.376  -2.692  24.622  0.00  0.00    +0.214 A 
ATOM      2  C   UNL     1       8.575  -2.415  23.776  0.00  0.00    +0.238 A 
ATOM      3  O   UNL     1       9.474  -3.234  23.651  0.00  0.00    -0.283 OA
ATOM      4  C   UNL     1       8.682  -1.078  23.178  0.00  0.00    +0.109 A 
ATOM      5  C   UNL     1       7.801  -0.096  23.627  0.00  0.00    +0.147 A 
ATOM      6  C   UNL     1       7.932   1.219  23.169  0.00  0.00    +0.092 A 
ATOM      7  C   UNL     1       8.946   1.531  22.264  0.00  0.00    +0.124 A 
ATOM      8  C   UNL     1       9.812   0.555  21.788  0.00  0.00    +0.091 A 
ATOM      9  O   UNL     1       6.798  -0.343  24.536  0.00  0.00    -0.451 OA
ATOM     10  C   UNL     1       9.675  -0.754  22.241  0.00  0.00    +0.135 A 
ATOM     11  C   UNL     1       6.604  -1.645  24.989  0.00  0.00    +0.181 A 
ENDROOT
BRANCH  11  12
ATOM     12  C   UNL     1       5.451  -1.787  25.935  0.00  0.00    +0.025 A 
ATOM     13  C   UNL     1       5.604  -1.511  27.308  0.00  0.00    +0.015 A 
ATOM     14  C   UNL     1       4.520  -1.604  28.198  0.00  0.00    +0.050 A 
ATOM     15  C   UNL     1       3.272  -1.962  27.715  0.00  0.00    +0.158 A 
ATOM     16  C   UNL     1       3.098  -2.261  26.373  0.00  0.00    +0.159 A 
ATOM     17  C   UNL     1       4.178  -2.206  25.494  0.00  0.00    +0.060 A 
BRANCH  15  18
ATOM     18  O   UNL     1       2.207  -2.014  28.568  0.00  0.00    -0.503 OA
ATOM     19  H   UNL     1       2.242  -1.167  29.056  0.00  0.00    +0.292 HD
ENDBRANCH  15  18
BRANCH  16  20
ATOM     20  O   UNL     1       1.841  -2.596  25.948  0.00  0.00    -0.503 OA
ATOM     21  H   UNL     1       1.908  -3.412  25.420  0.00  0.00    +0.292 HD
ENDBRANCH  16  20
ENDBRANCH  11  12
BRANCH   7  22
ATOM     22  O   UNL     1       9.135   2.800  21.805  0.00  0.00    -0.507 OA
ATOM     23  H   UNL     1       9.785   3.252  22.366  0.00  0.00    +0.292 HD
ENDBRANCH   7  22
BRANCH  10  24
ATOM     24  O   UNL     1      10.514  -1.711  21.741  0.00  0.00    -0.506 OA
ATOM     25  H   UNL     1      11.080  -2.064  22.448  0.00  0.00    +0.292 HD
ENDBRANCH  10  24
BRANCH   1  26
ATOM     26  O   UNL     1       7.125  -3.962  25.111  0.00  0.00    -0.453 OA
BRANCH  26  30
ATOM     27  C   UNL     1       6.174  -6.136  21.466  0.00  0.00    +0.041 C 
ATOM     28  C   UNL     1       5.280  -5.123  22.173  0.00  0.00    +0.150 C 
ATOM     29  O   UNL     1       6.017  -4.273  23.064  0.00  0.00    -0.334 OA
ATOM     30  C   UNL     1       6.441  -4.898  24.279  0.00  0.00    +0.339 C 
ATOM     31  C   UNL     1       5.243  -5.418  25.098  0.00  0.00    +0.214 C 
ATOM     32  C   UNL     1       4.395  -6.366  24.242  0.00  0.00    +0.180 C 
ATOM     33  C   UNL     1       4.053  -5.718  22.892  0.00  0.00    +0.174 C 
BRANCH  31  34
ATOM     34  O   UNL     1       5.678  -6.093  26.292  0.00  0.00    -0.383 OA
ATOM     35  H   UNL     1       6.218  -5.457  26.800  0.00  0.00    +0.210 HD
ENDBRANCH  31  34
BRANCH  32  36
ATOM     36  O   UNL     1       5.035  -7.644  24.100  0.00  0.00    -0.386 OA
ATOM     37  H   UNL     1       5.790  -7.593  23.492  0.00  0.00    +0.210 HD
ENDBRANCH  32  36
BRANCH  33  38
ATOM     38  O   UNL     1       3.124  -4.643  23.138  0.00  0.00    -0.387 OA
ATOM     39  H   UNL     1       2.222  -4.986  22.987  0.00  0.00    +0.210 HD
ENDBRANCH  33  38
ENDBRANCH  26  30
ENDBRANCH   1  26
TORSDOF 10
ENDMDL
MODEL 5
REMARK VINA RESULT:      -6.6      2.816      8.162
REMARK  Name = 
REMARK  11 active torsions:
REMARK  status: ('A' for Active; 'I' for Inactive)
REMARK    1  A    between atoms: C_1  and  C_2
REMARK    2  A    between atoms: C_4  and  O_37
REMARK    3  A    between atoms: C_6  and  O_36
REMARK    4  A    between atoms: C_8  and  O_35
REMARK    5  A    between atoms: C_10  and  O_13
REMARK    6  A    between atoms: O_13  and  C_14
REMARK    7  A    between atoms: C_15  and  C_27
REMARK    8  A    between atoms: C_19  and  O_26
REMARK    9  A    between atoms: C_21  and  O_25
REMARK   10  A    between atoms: C_29  and  O_34
REMARK   11  A    between atoms: C_30  and  O_33
REMARK                            x       y       z     vdW  Elec       q    Type
REMARK                         _______ _______ _______ _____ _____    ______ ____
ROOT
ATOM      1  C   UNL     1       7.571  -1.890  25.136  0.00  0.00    +0.214 A 
ATOM      2  C   UNL     1       6.947  -3.210  25.447  0.00  0.00    +0.238 A 
ATOM      3  O   UNL     1       6.859  -3.622  26.596  0.00  0.00    -0.283 OA
ATOM      4  C   UNL     1       6.534  -4.045  24.312  0.00  0.00    +0.109 A 
ATOM      5  C   UNL     1       6.963  -3.665  23.041  0.00  0.00    +0.147 A 
ATOM      6  C   UNL     1       6.687  -4.484  21.941  0.00  0.00    +0.092 A 
ATOM      7  C   UNL     1       5.983  -5.673  22.131  0.00  0.00    +0.124 A 
ATOM      8  C   UNL     1       5.526  -6.047  23.388  0.00  0.00    +0.091 A 
ATOM      9  O   UNL     1       7.680  -2.517  22.800  0.00  0.00    -0.451 OA
ATOM     10  C   UNL     1       5.796  -5.227  24.480  0.00  0.00    +0.135 A 
ATOM     11  C   UNL     1       7.943  -1.651  23.858  0.00  0.00    +0.181 A 
ENDROOT
BRANCH  11  12
ATOM     12  C   UNL     1       8.687  -0.416  23.454  0.00  0.00    +0.025 A 
ATOM     13  C   UNL     1      10.014  -0.201  23.873  0.00  0.00    +0.015 A 
ATOM     14  C   UNL     1      10.734   0.936  23.469  0.00  0.00    +0.050 A 
ATOM     15  C   UNL     1      10.133   1.860  22.629  0.00  0.00    +0.158 A 
ATOM     16  C   UNL     1       8.820   1.685  22.220  0.00  0.00    +0.159 A 
ATOM     17  C   UNL     1       8.091   0.578  22.649  0.00  0.00    +0.060 A 
BRANCH  15  18
ATOM     18  O   UNL     1      10.841   2.945  22.201  0.00  0.00    -0.503 OA
ATOM     19  H   UNL     1      10.185   3.494  21.725  0.00  0.00    +0.292 HD
ENDBRANCH  15  18
BRANCH  16  20
ATOM     20  O   UNL     1       8.280   2.621  21.381  0.00  0.00    -0.503 OA
ATOM     21  H   UNL     1       8.512   3.504  21.723  0.00  0.00    +0.292 HD
ENDBRANCH  16  20
ENDBRANCH  11  12
BRANCH   7  22
ATOM     22  O   UNL     1       5.709  -6.520  21.098  0.00  0.00    -0.507 OA
ATOM     23  H   UNL     1       5.954  -7.424  21.351  0.00  0.00    +0.292 HD
ENDBRANCH   7  22
BRANCH  10  24
ATOM     24  O   UNL     1       5.315  -5.590  25.707  0.00  0.00    -0.506 OA
ATOM     25  H   UNL     1       5.369  -4.842  26.324  0.00  0.00    +0.292 HD
ENDBRANCH  10  24
BRANCH   1  26
ATOM     26  O   UNL     1       7.865  -0.984  26.139  0.00  0.00    -0.453 OA
BRANCH  26  30
ATOM     27  C   UNL     1       6.375   2.947  25.022  0.00  0.00    +0.041 C 
ATOM     28  C   UNL     1       7.217   2.616  26.249  0.00  0.00    +0.150 C 
ATOM     29  O   UNL     1       7.908   1.365  26.115  0.00  0.00    -0.334 OA
ATOM     30  C   UNL     1       7.081   0.205  26.245  0.00  0.00    +0.339 C 
ATOM     31  C   UNL     1       6.390   0.151  27.621  0.00  0.00    +0.214 C 
ATOM     32  C   UNL     1       5.594   1.440  27.858  0.00  0.00    +0.180 C 
ATOM     33  C   UNL     1       6.470   2.673  27.596  0.00  0.00    +0.174 C 
BRANCH  31  34
ATOM     34  O   UNL     1       5.518  -0.989  27.726  0.00  0.00    -0.383 OA
ATOM     35  H   UNL     1       4.877  -0.929  26.993  0.00  0.00    +0.210 HD
ENDBRANCH  31  34
BRANCH  32  36
ATOM     36  O   UNL     1       4.380   1.445  27.090  0.00  0.00    -0.386 OA
ATOM     37  H   UNL     1       3.729   0.825  27.458  0.00  0.00    +0.210 HD
ENDBRANCH  32  36
BRANCH  33  38
ATOM     38  O   UNL     1       7.457   2.748  28.643  0.00  0.00    -0.387 OA
ATOM     39  H   UNL     1       8.251   2.264  28.344  0.00  0.00    +0.210 HD
ENDBRANCH  33  38
ENDBRANCH  26  30
ENDBRANCH   1  26
TORSDOF 10
ENDMDL
MODEL 6
REMARK VINA RESULT:      -6.6      1.745      4.651
REMARK  Name = 
REMARK  11 active torsions:
REMARK  status: ('A' for Active; 'I' for Inactive)
REMARK    1  A    between atoms: C_1  and  C_2
REMARK    2  A    between atoms: C_4  and  O_37
REMARK    3  A    between atoms: C_6  and  O_36
REMARK    4  A    between atoms: C_8  and  O_35
REMARK    5  A    between atoms: C_10  and  O_13
REMARK    6  A    between atoms: O_13  and  C_14
REMARK    7  A    between atoms: C_15  and  C_27
REMARK    8  A    between atoms: C_19  and  O_26
REMARK    9  A    between atoms: C_21  and  O_25
REMARK   10  A    between atoms: C_29  and  O_34
REMARK   11  A    between atoms: C_30  and  O_33
REMARK                            x       y       z     vdW  Elec       q    Type
REMARK                         _______ _______ _______ _____ _____    ______ ____
ROOT
ATOM      1  C   UNL     1       7.789  -2.800  25.227  0.00  0.00    +0.214 A 
ATOM      2  C   UNL     1       8.688  -1.659  25.573  0.00  0.00    +0.238 A 
ATOM      3  O   UNL     1       9.027  -1.439  26.728  0.00  0.00    -0.283 OA
ATOM      4  C   UNL     1       9.069  -0.748  24.486  0.00  0.00    +0.109 A 
ATOM      5  C   UNL     1       8.386  -0.864  23.276  0.00  0.00    +0.147 A 
ATOM      6  C   UNL     1       8.636   0.050  22.247  0.00  0.00    +0.092 A 
ATOM      7  C   UNL     1       9.569   1.066  22.445  0.00  0.00    +0.124 A 
ATOM      8  C   UNL     1      10.276   1.174  23.636  0.00  0.00    +0.091 A 
ATOM      9  O   UNL     1       7.440  -1.832  23.036  0.00  0.00    -0.451 OA
ATOM     10  C   UNL     1      10.030   0.260  24.657  0.00  0.00    +0.135 A 
ATOM     11  C   UNL     1       7.187  -2.788  24.017  0.00  0.00    +0.181 A 
ENDROOT
BRANCH  11  12
ATOM     12  C   UNL     1       6.173  -3.812  23.611  0.00  0.00    +0.025 A 
ATOM     13  C   UNL     1       6.561  -4.980  22.924  0.00  0.00    +0.015 A 
ATOM     14  C   UNL     1       5.623  -5.966  22.571  0.00  0.00    +0.050 A 
ATOM     15  C   UNL     1       4.292  -5.795  22.915  0.00  0.00    +0.158 A 
ATOM     16  C   UNL     1       3.880  -4.644  23.570  0.00  0.00    +0.159 A 
ATOM     17  C   UNL     1       4.800  -3.648  23.888  0.00  0.00    +0.060 A 
BRANCH  15  18
ATOM     18  O   UNL     1       3.385  -6.767  22.610  0.00  0.00    -0.503 OA
ATOM     19  H   UNL     1       2.519  -6.379  22.851  0.00  0.00    +0.292 HD
ENDBRANCH  15  18
BRANCH  16  20
ATOM     20  O   UNL     1       2.556  -4.532  23.897  0.00  0.00    -0.503 OA
ATOM     21  H   UNL     1       2.179  -5.430  23.943  0.00  0.00    +0.292 HD
ENDBRANCH  16  20
ENDBRANCH  11  12
BRANCH   7  22
ATOM     22  O   UNL     1       9.833   1.998  21.485  0.00  0.00    -0.507 OA
ATOM     23  H   UNL     1       8.999   2.285  21.079  0.00  0.00    +0.292 HD
ENDBRANCH   7  22
BRANCH  10  24
ATOM     24  O   UNL     1      10.754   0.358  25.812  0.00  0.00    -0.506 OA
ATOM     25  H   UNL     1      10.947   1.289  26.010  0.00  0.00    +0.292 HD
ENDBRANCH  10  24
BRANCH   1  26
ATOM     26  O   UNL     1       7.490  -3.782  26.155  0.00  0.00    -0.453 OA
BRANCH  26  30
ATOM     27  C   UNL     1       3.485  -2.461  27.219  0.00  0.00    +0.041 C 
ATOM     28  C   UNL     1       4.553  -2.970  28.181  0.00  0.00    +0.150 C 
ATOM     29  O   UNL     1       5.871  -2.908  27.614  0.00  0.00    -0.334 OA
ATOM     30  C   UNL     1       6.147  -3.901  26.624  0.00  0.00    +0.339 C 
ATOM     31  C   UNL     1       6.007  -5.327  27.193  0.00  0.00    +0.214 C 
ATOM     32  C   UNL     1       4.613  -5.512  27.804  0.00  0.00    +0.180 C 
ATOM     33  C   UNL     1       4.292  -4.367  28.776  0.00  0.00    +0.174 C 
BRANCH  31  34
ATOM     34  O   UNL     1       6.234  -6.322  26.178  0.00  0.00    -0.383 OA
ATOM     35  H   UNL     1       6.517  -7.137  26.635  0.00  0.00    +0.210 HD
ENDBRANCH  31  34
BRANCH  32  36
ATOM     36  O   UNL     1       3.618  -5.671  26.781  0.00  0.00    -0.386 OA
ATOM     37  H   UNL     1       3.440  -6.610  26.608  0.00  0.00    +0.210 HD
ENDBRANCH  32  36
BRANCH  33  38
ATOM     38  O   UNL     1       5.136  -4.517  29.934  0.00  0.00    -0.387 OA
ATOM     39  H   UNL     1       6.054  -4.319  29.665  0.00  0.00    +0.210 HD
ENDBRANCH  33  38
ENDBRANCH  26  30
ENDBRANCH   1  26
TORSDOF 10
ENDMDL
MODEL 7
REMARK VINA RESULT:      -6.4      2.851      7.850
REMARK  Name = 
REMARK  11 active torsions:
REMARK  status: ('A' for Active; 'I' for Inactive)
REMARK    1  A    between atoms: C_1  and  C_2
REMARK    2  A    between atoms: C_4  and  O_37
REMARK    3  A    between atoms: C_6  and  O_36
REMARK    4  A    between atoms: C_8  and  O_35
REMARK    5  A    between atoms: C_10  and  O_13
REMARK    6  A    between atoms: O_13  and  C_14
REMARK    7  A    between atoms: C_15  and  C_27
REMARK    8  A    between atoms: C_19  and  O_26
REMARK    9  A    between atoms: C_21  and  O_25
REMARK   10  A    between atoms: C_29  and  O_34
REMARK   11  A    between atoms: C_30  and  O_33
REMARK                            x       y       z     vdW  Elec       q    Type
REMARK                         _______ _______ _______ _____ _____    ______ ____
ROOT
ATOM      1  C   UNL     1       7.616  -1.968  25.349  0.00  0.00    +0.214 A 
ATOM      2  C   UNL     1       7.013  -3.321  25.535  0.00  0.00    +0.238 A 
ATOM      3  O   UNL     1       6.915  -3.832  26.643  0.00  0.00    -0.283 OA
ATOM      4  C   UNL     1       6.633  -4.062  24.325  0.00  0.00    +0.109 A 
ATOM      5  C   UNL     1       7.074  -3.567  23.099  0.00  0.00    +0.147 A 
ATOM      6  C   UNL     1       6.831  -4.293  21.929  0.00  0.00    +0.092 A 
ATOM      7  C   UNL     1       6.146  -5.505  22.004  0.00  0.00    +0.124 A 
ATOM      8  C   UNL     1       5.679  -5.995  23.217  0.00  0.00    +0.091 A 
ATOM      9  O   UNL     1       7.772  -2.390  22.970  0.00  0.00    -0.451 OA
ATOM     10  C   UNL     1       5.916  -5.267  24.380  0.00  0.00    +0.135 A 
ATOM     11  C   UNL     1       8.002  -1.613  24.103  0.00  0.00    +0.181 A 
ENDROOT
BRANCH  11  12
ATOM     12  C   UNL     1       8.728  -0.335  23.819  0.00  0.00    +0.025 A 
ATOM     13  C   UNL     1       9.992  -0.078  24.386  0.00  0.00    +0.015 A 
ATOM     14  C   UNL     1      10.698   1.101  24.096  0.00  0.00    +0.050 A 
ATOM     15  C   UNL     1      10.149   2.027  23.224  0.00  0.00    +0.158 A 
ATOM     16  C   UNL     1       8.897   1.811  22.670  0.00  0.00    +0.159 A 
ATOM     17  C   UNL     1       8.177   0.661  22.984  0.00  0.00    +0.060 A 
BRANCH  15  18
ATOM     18  O   UNL     1      10.849   3.155  22.908  0.00  0.00    -0.503 OA
ATOM     19  H   UNL     1      11.414   3.321  23.689  0.00  0.00    +0.292 HD
ENDBRANCH  15  18
BRANCH  16  20
ATOM     20  O   UNL     1       8.408   2.753  21.806  0.00  0.00    -0.503 OA
ATOM     21  H   UNL     1       8.168   2.305  20.974  0.00  0.00    +0.292 HD
ENDBRANCH  16  20
ENDBRANCH  11  12
BRANCH   7  22
ATOM     22  O   UNL     1       5.905  -6.265  20.898  0.00  0.00    -0.507 OA
ATOM     23  H   UNL     1       6.735  -6.400  20.413  0.00  0.00    +0.292 HD
ENDBRANCH   7  22
BRANCH  10  24
ATOM     24  O   UNL     1       5.423  -5.744  25.562  0.00  0.00    -0.506 OA
ATOM     25  H   UNL     1       6.134  -5.807  26.222  0.00  0.00    +0.292 HD
ENDBRANCH  10  24
BRANCH   1  26
ATOM     26  O   UNL     1       7.877  -1.147  26.431  0.00  0.00    -0.453 OA
BRANCH  26  30
ATOM     27  C   UNL     1       3.734  -0.398  27.525  0.00  0.00    +0.041 C 
ATOM     28  C   UNL     1       4.626   0.513  26.688  0.00  0.00    +0.150 C 
ATOM     29  O   UNL     1       5.754  -0.184  26.139  0.00  0.00    -0.334 OA
ATOM     30  C   UNL     1       6.785  -0.495  27.081  0.00  0.00    +0.339 C 
ATOM     31  C   UNL     1       7.360   0.776  27.734  0.00  0.00    +0.214 C 
ATOM     32  C   UNL     1       6.232   1.589  28.381  0.00  0.00    +0.180 C 
ATOM     33  C   UNL     1       5.083   1.808  27.385  0.00  0.00    +0.174 C 
BRANCH  31  34
ATOM     34  O   UNL     1       8.359   0.454  28.719  0.00  0.00    -0.383 OA
ATOM     35  H   UNL     1       8.373   1.188  29.363  0.00  0.00    +0.210 HD
ENDBRANCH  31  34
BRANCH  32  36
ATOM     36  O   UNL     1       5.799   0.984  29.609  0.00  0.00    -0.386 OA
ATOM     37  H   UNL     1       5.066   0.365  29.455  0.00  0.00    +0.210 HD
ENDBRANCH  32  36
BRANCH  33  38
ATOM     38  O   UNL     1       5.545   2.717  26.366  0.00  0.00    -0.387 OA
ATOM     39  H   UNL     1       5.383   3.628  26.680  0.00  0.00    +0.210 HD
ENDBRANCH  33  38
ENDBRANCH  26  30
ENDBRANCH   1  26
TORSDOF 10
ENDMDL
MODEL 8
REMARK VINA RESULT:      -6.4      2.334      7.711
REMARK  Name = 
REMARK  11 active torsions:
REMARK  status: ('A' for Active; 'I' for Inactive)
REMARK    1  A    between atoms: C_1  and  C_2
REMARK    2  A    between atoms: C_4  and  O_37
REMARK    3  A    between atoms: C_6  and  O_36
REMARK    4  A    between atoms: C_8  and  O_35
REMARK    5  A    between atoms: C_10  and  O_13
REMARK    6  A    between atoms: O_13  and  C_14
REMARK    7  A    between atoms: C_15  and  C_27
REMARK    8  A    between atoms: C_19  and  O_26
REMARK    9  A    between atoms: C_21  and  O_25
REMARK   10  A    between atoms: C_29  and  O_34
REMARK   11  A    between atoms: C_30  and  O_33
REMARK                            x       y       z     vdW  Elec       q    Type
REMARK                         _______ _______ _______ _____ _____    ______ ____
ROOT
ATOM      1  C   UNL     1       6.982  -3.435  25.855  0.00  0.00    +0.214 A 
ATOM      2  C   UNL     1       6.395  -4.602  26.575  0.00  0.00    +0.238 A 
ATOM      3  O   UNL     1       6.746  -4.898  27.710  0.00  0.00    -0.283 OA
ATOM      4  C   UNL     1       5.450  -5.446  25.832  0.00  0.00    +0.109 A 
ATOM      5  C   UNL     1       5.352  -5.249  24.456  0.00  0.00    +0.147 A 
ATOM      6  C   UNL     1       4.549  -6.099  23.687  0.00  0.00    +0.092 A 
ATOM      7  C   UNL     1       3.853  -7.133  24.311  0.00  0.00    +0.124 A 
ATOM      8  C   UNL     1       3.922  -7.322  25.685  0.00  0.00    +0.091 A 
ATOM      9  O   UNL     1       6.033  -4.260  23.787  0.00  0.00    -0.451 OA
ATOM     10  C   UNL     1       4.717  -6.472  26.449  0.00  0.00    +0.135 A 
ATOM     11  C   UNL     1       6.814  -3.365  24.516  0.00  0.00    +0.181 A 
ENDROOT
BRANCH  11  12
ATOM     12  C   UNL     1       7.460  -2.309  23.675  0.00  0.00    +0.025 A 
ATOM     13  C   UNL     1       8.684  -2.554  23.020  0.00  0.00    +0.015 A 
ATOM     14  C   UNL     1       9.281  -1.583  22.199  0.00  0.00    +0.050 A 
ATOM     15  C   UNL     1       8.650  -0.363  22.017  0.00  0.00    +0.158 A 
ATOM     16  C   UNL     1       7.458  -0.086  22.668  0.00  0.00    +0.159 A 
ATOM     17  C   UNL     1       6.881  -1.032  23.513  0.00  0.00    +0.060 A 
BRANCH  15  18
ATOM     18  O   UNL     1       9.205   0.569  21.188  0.00  0.00    -0.503 OA
ATOM     19  H   UNL     1       9.573   1.246  21.792  0.00  0.00    +0.292 HD
ENDBRANCH  15  18
BRANCH  16  20
ATOM     20  O   UNL     1       6.871   1.129  22.442  0.00  0.00    -0.503 OA
ATOM     21  H   UNL     1       7.075   1.399  21.528  0.00  0.00    +0.292 HD
ENDBRANCH  16  20
ENDBRANCH  11  12
BRANCH   7  22
ATOM     22  O   UNL     1       3.077  -8.005  23.607  0.00  0.00    -0.507 OA
ATOM     23  H   UNL     1       3.256  -7.901  22.658  0.00  0.00    +0.292 HD
ENDBRANCH   7  22
BRANCH  10  24
ATOM     24  O   UNL     1       4.752  -6.648  27.804  0.00  0.00    -0.506 OA
ATOM     25  H   UNL     1       5.019  -7.557  28.018  0.00  0.00    +0.292 HD
ENDBRANCH  10  24
BRANCH   1  26
ATOM     26  O   UNL     1       7.772  -2.510  26.516  0.00  0.00    -0.453 OA
BRANCH  26  30
ATOM     27  C   UNL     1       4.631  -0.332  28.592  0.00  0.00    +0.041 C 
ATOM     28  C   UNL     1       5.130  -0.067  27.176  0.00  0.00    +0.150 C 
ATOM     29  O   UNL     1       5.832  -1.191  26.625  0.00  0.00    -0.334 OA
ATOM     30  C   UNL     1       7.144  -1.399  27.156  0.00  0.00    +0.339 C 
ATOM     31  C   UNL     1       8.056  -0.181  26.912  0.00  0.00    +0.214 C 
ATOM     32  C   UNL     1       7.407   1.083  27.490  0.00  0.00    +0.180 C 
ATOM     33  C   UNL     1       5.959   1.220  27.000  0.00  0.00    +0.174 C 
BRANCH  31  34
ATOM     34  O   UNL     1       9.357  -0.375  27.494  0.00  0.00    -0.383 OA
ATOM     35  H   UNL     1       9.975  -0.557  26.761  0.00  0.00    +0.210 HD
ENDBRANCH  31  34
BRANCH  32  36
ATOM     36  O   UNL     1       7.517   1.109  28.922  0.00  0.00    -0.386 OA
ATOM     37  H   UNL     1       7.921   0.293  29.258  0.00  0.00    +0.210 HD
ENDBRANCH  32  36
BRANCH  33  38
ATOM     38  O   UNL     1       5.993   1.533  25.593  0.00  0.00    -0.387 OA
ATOM     39  H   UNL     1       6.610   0.910  25.162  0.00  0.00    +0.210 HD
ENDBRANCH  33  38
ENDBRANCH  26  30
ENDBRANCH   1  26
TORSDOF 10
ENDMDL
MODEL 9
REMARK VINA RESULT:      -6.4      4.689      7.690
REMARK  Name = 
REMARK  11 active torsions:
REMARK  status: ('A' for Active; 'I' for Inactive)
REMARK    1  A    between atoms: C_1  and  C_2
REMARK    2  A    between atoms: C_4  and  O_37
REMARK    3  A    between atoms: C_6  and  O_36
REMARK    4  A    between atoms: C_8  and  O_35
REMARK    5  A    between atoms: C_10  and  O_13
REMARK    6  A    between atoms: O_13  and  C_14
REMARK    7  A    between atoms: C_15  and  C_27
REMARK    8  A    between atoms: C_19  and  O_26
REMARK    9  A    between atoms: C_21  and  O_25
REMARK   10  A    between atoms: C_29  and  O_34
REMARK   11  A    between atoms: C_30  and  O_33
REMARK                            x       y       z     vdW  Elec       q    Type
REMARK                         _______ _______ _______ _____ _____    ______ ____
ROOT
ATOM      1  C   UNL     1       8.129   2.360  23.900  0.00  0.00    +0.214 A 
ATOM      2  C   UNL     1       8.387   3.824  23.766  0.00  0.00    +0.238 A 
ATOM      3  O   UNL     1       7.473   4.625  23.627  0.00  0.00    -0.283 OA
ATOM      4  C   UNL     1       9.789   4.258  23.704  0.00  0.00    +0.109 A 
ATOM      5  C   UNL     1      10.763   3.275  23.533  0.00  0.00    +0.147 A 
ATOM      6  C   UNL     1      12.100   3.645  23.360  0.00  0.00    +0.092 A 
ATOM      7  C   UNL     1      12.443   4.997  23.363  0.00  0.00    +0.124 A 
ATOM      8  C   UNL     1      11.485   5.983  23.559  0.00  0.00    +0.091 A 
ATOM      9  O   UNL     1      10.477   1.931  23.500  0.00  0.00    -0.451 OA
ATOM     10  C   UNL     1      10.155   5.612  23.738  0.00  0.00    +0.135 A 
ATOM     11  C   UNL     1       9.165   1.513  23.708  0.00  0.00    +0.181 A 
ENDROOT
BRANCH  11  12
ATOM     12  C   UNL     1       8.999   0.025  23.696  0.00  0.00    +0.025 A 
ATOM     13  C   UNL     1       9.624  -0.780  24.668  0.00  0.00    +0.015 A 
ATOM     14  C   UNL     1       9.445  -2.174  24.689  0.00  0.00    +0.050 A 
ATOM     15  C   UNL     1       8.627  -2.770  23.744  0.00  0.00    +0.158 A 
ATOM     16  C   UNL     1       8.018  -2.004  22.761  0.00  0.00    +0.159 A 
ATOM     17  C   UNL     1       8.223  -0.627  22.714  0.00  0.00    +0.060 A 
BRANCH  15  18
ATOM     18  O   UNL     1       8.417  -4.118  23.784  0.00  0.00    -0.503 OA
ATOM     19  H   UNL     1       7.444  -4.216  23.744  0.00  0.00    +0.292 HD
ENDBRANCH  15  18
BRANCH  16  20
ATOM     20  O   UNL     1       7.210  -2.642  21.860  0.00  0.00    -0.503 OA
ATOM     21  H   UNL     1       7.504  -2.397  20.964  0.00  0.00    +0.292 HD
ENDBRANCH  16  20
ENDBRANCH  11  12
BRANCH   7  22
ATOM     22  O   UNL     1      13.727   5.413  23.173  0.00  0.00    -0.507 OA
ATOM     23  H   UNL     1      13.810   5.810  22.291  0.00  0.00    +0.292 HD
ENDBRANCH   7  22
BRANCH  10  24
ATOM     24  O   UNL     1       9.227   6.590  23.962  0.00  0.00    -0.506 OA
ATOM     25  H   UNL     1       9.625   7.326  24.455  0.00  0.00    +0.292 HD
ENDBRANCH  10  24
BRANCH   1  26
ATOM     26  O   UNL     1       6.848   1.875  24.102  0.00  0.00    -0.453 OA
BRANCH  26  30
ATOM     27  C   UNL     1       5.625   3.318  28.019  0.00  0.00    +0.041 C 
ATOM     28  C   UNL     1       6.818   2.416  27.721  0.00  0.00    +0.150 C 
ATOM     29  O   UNL     1       7.216   2.476  26.343  0.00  0.00    -0.334 OA
ATOM     30  C   UNL     1       6.345   1.794  25.436  0.00  0.00    +0.339 C 
ATOM     31  C   UNL     1       6.236   0.294  25.771  0.00  0.00    +0.214 C 
ATOM     32  C   UNL     1       5.787   0.113  27.227  0.00  0.00    +0.180 C 
ATOM     33  C   UNL     1       6.663   0.950  28.171  0.00  0.00    +0.174 C 
BRANCH  31  34
ATOM     34  O   UNL     1       5.318  -0.376  24.889  0.00  0.00    -0.383 OA
ATOM     35  H   UNL     1       5.829  -1.050  24.401  0.00  0.00    +0.210 HD
ENDBRANCH  31  34
BRANCH  32  36
ATOM     36  O   UNL     1       4.386   0.392  27.372  0.00  0.00    -0.386 OA
ATOM     37  H   UNL     1       4.037   0.852  26.591  0.00  0.00    +0.210 HD
ENDBRANCH  32  36
BRANCH  33  38
ATOM     38  O   UNL     1       7.977   0.358  28.200  0.00  0.00    -0.387 OA
ATOM     39  H   UNL     1       8.403   0.530  27.337  0.00  0.00    +0.210 HD
ENDBRANCH  33  38
ENDBRANCH  26  30
ENDBRANCH   1  26
TORSDOF 10
ENDMDL
