MODEL 1
REMARK VINA RESULT:      -7.2      0.000      0.000
REMARK  Name = 
REMARK  9 active torsions:
REMARK  status: ('A' for Active; 'I' for Inactive)
REMARK    1  A    between atoms: C_3  and  O_26
REMARK    2  A    between atoms: C_4  and  O_21
REMARK    3  A    between atoms: C_6  and  C_7
REMARK    4  A    between atoms: C_8  and  O_20
REMARK    5  A    between atoms: C_12  and  O_19
REMARK    6  A    between atoms: C_14  and  O_18
REMARK    7  A    between atoms: O_21  and  P_22
REMARK    8  A    between atoms: P_22  and  O_24
REMARK    9  A    between atoms: P_22  and  O_25
REMARK                            x       y       z     vdW  Elec       q    Type
REMARK                         _______ _______ _______ _____ _____    ______ ____
ROOT
ATOM      1  C   UNL     1       7.652  -2.396  23.849  0.00  0.00    +0.181 A 
ATOM      2  O   UNL     1       6.731  -3.091  23.058  0.00  0.00    -0.451 OA
ATOM      3  C   UNL     1       6.083  -4.186  23.587  0.00  0.00    +0.147 A 
ATOM      4  C   UNL     1       6.380  -4.710  24.838  0.00  0.00    +0.109 A 
ATOM      5  C   UNL     1       5.690  -5.829  25.328  0.00  0.00    +0.135 A 
ATOM      6  C   UNL     1       4.689  -6.423  24.565  0.00  0.00    +0.091 A 
ATOM      7  C   UNL     1       4.389  -5.889  23.316  0.00  0.00    +0.124 A 
ATOM      8  C   UNL     1       7.414  -4.053  25.639  0.00  0.00    +0.238 A 
ATOM      9  O   UNL     1       7.736  -4.524  26.726  0.00  0.00    -0.283 OA
ATOM     10  C   UNL     1       5.079  -4.779  22.820  0.00  0.00    +0.092 A 
ATOM     11  C   UNL     1       7.991  -2.792  25.099  0.00  0.00    +0.208 A 
ENDROOT
BRANCH   1  13
ATOM     12  C   UNL     1       9.118  -1.261  22.118  0.00  0.00    +0.015 A 
ATOM     13  C   UNL     1       8.203  -1.166  23.185  0.00  0.00    +0.025 A 
ATOM     14  C   UNL     1       7.834   0.132  23.606  0.00  0.00    +0.061 A 
ATOM     15  C   UNL     1       8.425   1.279  23.040  0.00  0.00    +0.174 A 
ATOM     16  C   UNL     1       9.407   1.132  22.061  0.00  0.00    +0.159 A 
ATOM     17  C   UNL     1       9.745  -0.129  21.587  0.00  0.00    +0.050 A 
BRANCH  16  18
ATOM     18  O   UNL     1      10.018   2.244  21.553  0.00  0.00    -0.503 OA
ATOM     19  H   UNL     1       9.539   3.034  21.852  0.00  0.00    +0.292 HD
ENDBRANCH  16  18
BRANCH  15  20
ATOM     20  O   UNL     1       8.130   2.572  23.424  0.00  0.00    -0.400 OA
BRANCH  20  21
ATOM     21  P   UNL     1       6.769   3.360  22.702  0.00  0.00    +0.528 P 
ATOM     22  O   UNL     1       6.334   4.010  24.017  0.00  0.00    -0.216 OA
BRANCH  21  23
ATOM     23  O   UNL     1       5.409   4.147  21.979  0.00  0.00    -0.293 OA
ATOM     24  H   UNL     1       4.888   3.376  21.666  0.00  0.00    +0.223 HD
ENDBRANCH  21  23
BRANCH  21  25
ATOM     25  O   UNL     1       7.749   4.425  21.952  0.00  0.00    -0.293 OA
ATOM     26  H   UNL     1       8.122   5.077  22.570  0.00  0.00    +0.223 HD
ENDBRANCH  21  25
ENDBRANCH  20  21
ENDBRANCH  15  20
ENDBRANCH   1  13
BRANCH   5  27
ATOM     27  O   UNL     1       5.936  -6.388  26.554  0.00  0.00    -0.506 OA
ATOM     28  H   UNL     1       5.137  -6.259  27.116  0.00  0.00    +0.292 HD
ENDBRANCH   5  27
BRANCH   7  29
ATOM     29  O   UNL     1       3.410  -6.433  22.538  0.00  0.00    -0.507 OA
ATOM     30  H   UNL     1       3.009  -7.180  23.014  0.00  0.00    +0.292 HD
ENDBRANCH   7  29
BRANCH  11  31
ATOM     31  O   UNL     1       8.820  -2.100  25.961  0.00  0.00    -0.501 OA
ATOM     32  H   UNL     1       8.281  -1.758  26.695  0.00  0.00    +0.292 HD
ENDBRANCH  11  31
TORSDOF 9
ENDMDL
MODEL 2
REMARK VINA RESULT:      -7.2      1.151      2.688
REMARK  Name = 
REMARK  9 active torsions:
REMARK  status: ('A' for Active; 'I' for Inactive)
REMARK    1  A    between atoms: C_3  and  O_26
REMARK    2  A    between atoms: C_4  and  O_21
REMARK    3  A    between atoms: C_6  and  C_7
REMARK    4  A    between atoms: C_8  and  O_20
REMARK    5  A    between atoms: C_12  and  O_19
REMARK    6  A    between atoms: C_14  and  O_18
REMARK    7  A    between atoms: O_21  and  P_22
REMARK    8  A    between atoms: P_22  and  O_24
REMARK    9  A    between atoms: P_22  and  O_25
REMARK                            x       y       z     vdW  Elec       q    Type
REMARK                         _______ _______ _______ _____ _____    ______ ____
ROOT
ATOM      1  C   UNL     1       6.856  -2.493  23.268  0.00  0.00    +0.181 A 
ATOM      2  O   UNL     1       7.234  -2.868  24.561  0.00  0.00    -0.451 OA
ATOM      3  C   UNL     1       6.667  -3.988  25.128  0.00  0.00    +0.147 A 
ATOM      4  C   UNL     1       5.646  -4.709  24.523  0.00  0.00    +0.109 A 
ATOM      5  C   UNL     1       5.102  -5.842  25.146  0.00  0.00    +0.135 A 
ATOM      6  C   UNL     1       5.588  -6.264  26.380  0.00  0.00    +0.091 A 
ATOM      7  C   UNL     1       6.618  -5.544  26.978  0.00  0.00    +0.124 A 
ATOM      8  C   UNL     1       5.168  -4.269  23.211  0.00  0.00    +0.238 A 
ATOM      9  O   UNL     1       4.231  -4.853  22.674  0.00  0.00    -0.283 OA
ATOM     10  C   UNL     1       7.158  -4.409  26.365  0.00  0.00    +0.092 A 
ATOM     11  C   UNL     1       5.899  -3.144  22.565  0.00  0.00    +0.208 A 
ENDROOT
BRANCH   1  13
ATOM     12  C   UNL     1       8.714  -1.499  21.856  0.00  0.00    +0.015 A 
ATOM     13  C   UNL     1       7.628  -1.319  22.736  0.00  0.00    +0.025 A 
ATOM     14  C   UNL     1       7.306   0.008  23.101  0.00  0.00    +0.061 A 
ATOM     15  C   UNL     1       8.092   1.096  22.671  0.00  0.00    +0.174 A 
ATOM     16  C   UNL     1       9.222   0.858  21.889  0.00  0.00    +0.159 A 
ATOM     17  C   UNL     1       9.528  -0.430  21.466  0.00  0.00    +0.050 A 
BRANCH  16  18
ATOM     18  O   UNL     1      10.014   1.909  21.519  0.00  0.00    -0.503 OA
ATOM     19  H   UNL     1      10.309   2.379  22.316  0.00  0.00    +0.292 HD
ENDBRANCH  16  18
BRANCH  15  20
ATOM     20  O   UNL     1       7.848   2.411  23.013  0.00  0.00    -0.400 OA
BRANCH  20  21
ATOM     21  P   UNL     1       6.389   3.155  22.453  0.00  0.00    +0.528 P 
ATOM     22  O   UNL     1       6.003   3.654  23.847  0.00  0.00    -0.216 OA
BRANCH  21  23
ATOM     23  O   UNL     1       4.932   3.898  21.892  0.00  0.00    -0.293 OA
ATOM     24  H   UNL     1       4.955   4.751  22.379  0.00  0.00    +0.223 HD
ENDBRANCH  21  23
BRANCH  21  25
ATOM     25  O   UNL     1       7.240   4.352  21.744  0.00  0.00    -0.293 OA
ATOM     26  H   UNL     1       7.644   4.949  22.396  0.00  0.00    +0.223 HD
ENDBRANCH  21  25
ENDBRANCH  20  21
ENDBRANCH  15  20
ENDBRANCH   1  13
BRANCH   5  27
ATOM     27  O   UNL     1       4.097  -6.594  24.597  0.00  0.00    -0.506 OA
ATOM     28  H   UNL     1       4.005  -6.338  23.650  0.00  0.00    +0.292 HD
ENDBRANCH   5  27
BRANCH   7  29
ATOM     29  O   UNL     1       7.132  -5.925  28.182  0.00  0.00    -0.507 OA
ATOM     30  H   UNL     1       6.609  -5.514  28.892  0.00  0.00    +0.292 HD
ENDBRANCH   7  29
BRANCH  11  31
ATOM     31  O   UNL     1       5.548  -2.879  21.256  0.00  0.00    -0.501 OA
ATOM     32  H   UNL     1       6.362  -2.720  20.747  0.00  0.00    +0.292 HD
ENDBRANCH  11  31
TORSDOF 9
ENDMDL
MODEL 3
REMARK VINA RESULT:      -7.1      2.544      7.672
REMARK  Name = 
REMARK  9 active torsions:
REMARK  status: ('A' for Active; 'I' for Inactive)
REMARK    1  A    between atoms: C_3  and  O_26
REMARK    2  A    between atoms: C_4  and  O_21
REMARK    3  A    between atoms: C_6  and  C_7
REMARK    4  A    between atoms: C_8  and  O_20
REMARK    5  A    between atoms: C_12  and  O_19
REMARK    6  A    between atoms: C_14  and  O_18
REMARK    7  A    between atoms: O_21  and  P_22
REMARK    8  A    between atoms: P_22  and  O_24
REMARK    9  A    between atoms: P_22  and  O_25
REMARK                            x       y       z     vdW  Elec       q    Type
REMARK                         _______ _______ _______ _____ _____    ______ ____
ROOT
ATOM      1  C   UNL     1       7.915  -1.774  23.248  0.00  0.00    +0.181 A 
ATOM      2  O   UNL     1       7.051  -0.726  22.917  0.00  0.00    -0.451 OA
ATOM      3  C   UNL     1       7.540   0.562  22.880  0.00  0.00    +0.147 A 
ATOM      4  C   UNL     1       8.832   0.892  23.270  0.00  0.00    +0.109 A 
ATOM      5  C   UNL     1       9.278   2.221  23.215  0.00  0.00    +0.135 A 
ATOM      6  C   UNL     1       8.430   3.226  22.760  0.00  0.00    +0.091 A 
ATOM      7  C   UNL     1       7.139   2.889  22.364  0.00  0.00    +0.124 A 
ATOM      8  C   UNL     1       9.720  -0.183  23.716  0.00  0.00    +0.238 A 
ATOM      9  O   UNL     1      10.849   0.084  24.116  0.00  0.00    -0.283 OA
ATOM     10  C   UNL     1       6.687   1.568  22.423  0.00  0.00    +0.092 A 
ATOM     11  C   UNL     1       9.206  -1.576  23.605  0.00  0.00    +0.208 A 
ENDROOT
BRANCH   1  13
ATOM     12  C   UNL     1       6.726  -3.587  21.932  0.00  0.00    +0.015 A 
ATOM     13  C   UNL     1       7.277  -3.131  23.145  0.00  0.00    +0.025 A 
ATOM     14  C   UNL     1       7.196  -3.998  24.258  0.00  0.00    +0.061 A 
ATOM     15  C   UNL     1       6.514  -5.229  24.177  0.00  0.00    +0.174 A 
ATOM     16  C   UNL     1       5.890  -5.590  22.983  0.00  0.00    +0.159 A 
ATOM     17  C   UNL     1       6.006  -4.784  21.858  0.00  0.00    +0.050 A 
BRANCH  16  18
ATOM     18  O   UNL     1       5.184  -6.758  22.923  0.00  0.00    -0.503 OA
ATOM     19  H   UNL     1       5.644  -7.378  22.334  0.00  0.00    +0.292 HD
ENDBRANCH  16  18
BRANCH  15  20
ATOM     20  O   UNL     1       6.376  -6.108  25.232  0.00  0.00    -0.400 OA
BRANCH  20  21
ATOM     21  P   UNL     1       6.371  -5.476  26.843  0.00  0.00    +0.528 P 
ATOM     22  O   UNL     1       5.570  -6.654  27.399  0.00  0.00    -0.216 OA
BRANCH  21  23
ATOM     23  O   UNL     1       6.368  -4.842  28.452  0.00  0.00    -0.293 OA
ATOM     24  H   UNL     1       7.214  -5.202  28.799  0.00  0.00    +0.223 HD
ENDBRANCH  21  23
BRANCH  21  25
ATOM     25  O   UNL     1       7.948  -5.851  27.024  0.00  0.00    -0.293 OA
ATOM     26  H   UNL     1       8.186  -6.667  26.552  0.00  0.00    +0.223 HD
ENDBRANCH  21  25
ENDBRANCH  20  21
ENDBRANCH  15  20
ENDBRANCH   1  13
BRANCH   5  27
ATOM     27  O   UNL     1      10.540   2.607  23.582  0.00  0.00    -0.506 OA
ATOM     28  H   UNL     1      11.047   1.800  23.830  0.00  0.00    +0.292 HD
ENDBRANCH   5  27
BRANCH   7  29
ATOM     29  O   UNL     1       6.277   3.839  21.903  0.00  0.00    -0.507 OA
ATOM     30  H   UNL     1       6.674   4.716  22.039  0.00  0.00    +0.292 HD
ENDBRANCH   7  29
BRANCH  11  31
ATOM     31  O   UNL     1      10.131  -2.572  23.854  0.00  0.00    -0.501 OA
ATOM     32  H   UNL     1      10.321  -3.028  23.015  0.00  0.00    +0.292 HD
ENDBRANCH  11  31
TORSDOF 9
ENDMDL
MODEL 4
REMARK VINA RESULT:      -7.1      2.963      8.020
REMARK  Name = 
REMARK  9 active torsions:
REMARK  status: ('A' for Active; 'I' for Inactive)
REMARK    1  A    between atoms: C_3  and  O_26
REMARK    2  A    between atoms: C_4  and  O_21
REMARK    3  A    between atoms: C_6  and  C_7
REMARK    4  A    between atoms: C_8  and  O_20
REMARK    5  A    between atoms: C_12  and  O_19
REMARK    6  A    between atoms: C_14  and  O_18
REMARK    7  A    between atoms: O_21  and  P_22
REMARK    8  A    between atoms: P_22  and  O_24
REMARK    9  A    between atoms: P_22  and  O_25
REMARK                            x       y       z     vdW  Elec       q    Type
REMARK                         _______ _______ _______ _____ _____    ______ ____
ROOT
ATOM      1  C   UNL     1       7.068  -3.893  24.216  0.00  0.00    +0.181 A 
ATOM      2  O   UNL     1       6.379  -2.695  24.003  0.00  0.00    -0.451 OA
ATOM      3  C   UNL     1       7.075  -1.588  23.571  0.00  0.00    +0.147 A 
ATOM      4  C   UNL     1       8.458  -1.565  23.443  0.00  0.00    +0.109 A 
ATOM      5  C   UNL     1       9.117  -0.409  23.000  0.00  0.00    +0.135 A 
ATOM      6  C   UNL     1       8.389   0.732  22.675  0.00  0.00    +0.091 A 
ATOM      7  C   UNL     1       7.003   0.702  22.798  0.00  0.00    +0.124 A 
ATOM      8  C   UNL     1       9.205  -2.784  23.759  0.00  0.00    +0.238 A 
ATOM      9  O   UNL     1      10.432  -2.779  23.707  0.00  0.00    -0.283 OA
ATOM     10  C   UNL     1       6.342  -0.446  23.245  0.00  0.00    +0.092 A 
ATOM     11  C   UNL     1       8.411  -4.001  24.082  0.00  0.00    +0.208 A 
ENDROOT
BRANCH   1  13
ATOM     12  C   UNL     1       5.284  -5.602  23.640  0.00  0.00    +0.015 A 
ATOM     13  C   UNL     1       6.171  -5.043  24.581  0.00  0.00    +0.025 A 
ATOM     14  C   UNL     1       6.174  -5.602  25.879  0.00  0.00    +0.061 A 
ATOM     15  C   UNL     1       5.266  -6.617  26.239  0.00  0.00    +0.174 A 
ATOM     16  C   UNL     1       4.332  -7.064  25.305  0.00  0.00    +0.159 A 
ATOM     17  C   UNL     1       4.346  -6.574  24.005  0.00  0.00    +0.050 A 
BRANCH  16  18
ATOM     18  O   UNL     1       3.416  -8.009  25.673  0.00  0.00    -0.503 OA
ATOM     19  H   UNL     1       3.377  -8.053  26.643  0.00  0.00    +0.292 HD
ENDBRANCH  16  18
BRANCH  15  20
ATOM     20  O   UNL     1       5.199  -7.187  27.495  0.00  0.00    -0.400 OA
BRANCH  20  21
ATOM     21  P   UNL     1       5.623  -6.220  28.866  0.00  0.00    +0.528 P 
ATOM     22  O   UNL     1       4.797  -7.072  29.833  0.00  0.00    -0.216 OA
BRANCH  21  23
ATOM     23  O   UNL     1       6.047  -5.254  30.236  0.00  0.00    -0.293 OA
ATOM     24  H   UNL     1       6.539  -5.906  30.782  0.00  0.00    +0.223 HD
ENDBRANCH  21  23
BRANCH  21  25
ATOM     25  O   UNL     1       7.132  -6.836  28.868  0.00  0.00    -0.293 OA
ATOM     26  H   UNL     1       7.227  -7.569  29.500  0.00  0.00    +0.223 HD
ENDBRANCH  21  25
ENDBRANCH  20  21
ENDBRANCH  15  20
ENDBRANCH   1  13
BRANCH   5  27
ATOM     27  O   UNL     1      10.477  -0.328  22.851  0.00  0.00    -0.506 OA
ATOM     28  H   UNL     1      10.803  -1.201  22.533  0.00  0.00    +0.292 HD
ENDBRANCH   5  27
BRANCH   7  29
ATOM     29  O   UNL     1       6.248   1.792  22.482  0.00  0.00    -0.507 OA
ATOM     30  H   UNL     1       6.714   2.312  21.805  0.00  0.00    +0.292 HD
ENDBRANCH   7  29
BRANCH  11  31
ATOM     31  O   UNL     1       9.136  -5.173  24.189  0.00  0.00    -0.501 OA
ATOM     32  H   UNL     1      10.010  -4.959  24.559  0.00  0.00    +0.292 HD
ENDBRANCH  11  31
TORSDOF 9
ENDMDL
MODEL 5
REMARK VINA RESULT:      -7.1      2.493      7.709
REMARK  Name = 
REMARK  9 active torsions:
REMARK  status: ('A' for Active; 'I' for Inactive)
REMARK    1  A    between atoms: C_3  and  O_26
REMARK    2  A    between atoms: C_4  and  O_21
REMARK    3  A    between atoms: C_6  and  C_7
REMARK    4  A    between atoms: C_8  and  O_20
REMARK    5  A    between atoms: C_12  and  O_19
REMARK    6  A    between atoms: C_14  and  O_18
REMARK    7  A    between atoms: O_21  and  P_22
REMARK    8  A    between atoms: P_22  and  O_24
REMARK    9  A    between atoms: P_22  and  O_25
REMARK                            x       y       z     vdW  Elec       q    Type
REMARK                         _______ _______ _______ _____ _____    ______ ____
ROOT
ATOM      1  C   UNL     1       7.902  -1.731  24.193  0.00  0.00    +0.181 A 
ATOM      2  O   UNL     1       6.979  -0.692  24.035  0.00  0.00    -0.451 OA
ATOM      3  C   UNL     1       7.340   0.421  23.308  0.00  0.00    +0.147 A 
ATOM      4  C   UNL     1       8.623   0.621  22.815  0.00  0.00    +0.109 A 
ATOM      5  C   UNL     1       8.936   1.775  22.082  0.00  0.00    +0.135 A 
ATOM      6  C   UNL     1       7.960   2.734  21.833  0.00  0.00    +0.091 A 
ATOM      7  C   UNL     1       6.673   2.526  22.322  0.00  0.00    +0.124 A 
ATOM      8  C   UNL     1       9.630  -0.414  23.059  0.00  0.00    +0.238 A 
ATOM      9  O   UNL     1      10.785  -0.242  22.682  0.00  0.00    -0.283 OA
ATOM     10  C   UNL     1       6.357   1.381  23.059  0.00  0.00    +0.092 A 
ATOM     11  C   UNL     1       9.169  -1.665  23.721  0.00  0.00    +0.208 A 
ENDROOT
BRANCH   1  13
ATOM     12  C   UNL     1       7.463  -3.055  26.312  0.00  0.00    +0.015 A 
ATOM     13  C   UNL     1       7.341  -2.925  24.914  0.00  0.00    +0.025 A 
ATOM     14  C   UNL     1       6.681  -3.965  24.223  0.00  0.00    +0.061 A 
ATOM     15  C   UNL     1       6.240  -5.123  24.895  0.00  0.00    +0.174 A 
ATOM     16  C   UNL     1       6.479  -5.256  26.262  0.00  0.00    +0.159 A 
ATOM     17  C   UNL     1       7.073  -4.223  26.976  0.00  0.00    +0.050 A 
BRANCH  16  18
ATOM     18  O   UNL     1       6.101  -6.403  26.900  0.00  0.00    -0.503 OA
ATOM     19  H   UNL     1       6.744  -6.605  27.599  0.00  0.00    +0.292 HD
ENDBRANCH  16  18
BRANCH  15  20
ATOM     20  O   UNL     1       5.613  -6.186  24.275  0.00  0.00    -0.400 OA
BRANCH  20  21
ATOM     21  P   UNL     1       4.066  -5.924  23.545  0.00  0.00    +0.528 P 
ATOM     22  O   UNL     1       4.658  -5.738  22.147  0.00  0.00    -0.216 OA
BRANCH  21  23
ATOM     23  O   UNL     1       2.520  -5.662  22.817  0.00  0.00    -0.293 OA
ATOM     24  H   UNL     1       1.929  -5.733  23.598  0.00  0.00    +0.223 HD
ENDBRANCH  21  23
BRANCH  21  25
ATOM     25  O   UNL     1       3.698  -7.505  23.694  0.00  0.00    -0.293 OA
ATOM     26  H   UNL     1       2.911  -7.646  24.248  0.00  0.00    +0.223 HD
ENDBRANCH  21  25
ENDBRANCH  20  21
ENDBRANCH  15  20
ENDBRANCH   1  13
BRANCH   5  27
ATOM     27  O   UNL     1      10.182   2.025  21.568  0.00  0.00    -0.506 OA
ATOM     28  H   UNL     1      10.495   1.209  21.113  0.00  0.00    +0.292 HD
ENDBRANCH   5  27
BRANCH   7  29
ATOM     29  O   UNL     1       5.682   3.433  22.095  0.00  0.00    -0.507 OA
ATOM     30  H   UNL     1       5.439   3.851  22.939  0.00  0.00    +0.292 HD
ENDBRANCH   7  29
BRANCH  11  31
ATOM     31  O   UNL     1      10.095  -2.690  23.766  0.00  0.00    -0.501 OA
ATOM     32  H   UNL     1       9.638  -3.523  23.559  0.00  0.00    +0.292 HD
ENDBRANCH  11  31
TORSDOF 9
ENDMDL
MODEL 6
REMARK VINA RESULT:      -7.0      2.773      8.000
REMARK  Name = 
REMARK  9 active torsions:
REMARK  status: ('A' for Active; 'I' for Inactive)
REMARK    1  A    between atoms: C_3  and  O_26
REMARK    2  A    between atoms: C_4  and  O_21
REMARK    3  A    between atoms: C_6  and  C_7
REMARK    4  A    between atoms: C_8  and  O_20
REMARK    5  A    between atoms: C_12  and  O_19
REMARK    6  A    between atoms: C_14  and  O_18
REMARK    7  A    between atoms: O_21  and  P_22
REMARK    8  A    between atoms: P_22  and  O_24
REMARK    9  A    between atoms: P_22  and  O_25
REMARK                            x       y       z     vdW  Elec       q    Type
REMARK                         _______ _______ _______ _____ _____    ______ ____
ROOT
ATOM      1  C   UNL     1       8.055  -0.438  23.125  0.00  0.00    +0.181 A 
ATOM      2  O   UNL     1       7.572   0.259  24.238  0.00  0.00    -0.451 OA
ATOM      3  C   UNL     1       7.972   1.563  24.438  0.00  0.00    +0.147 A 
ATOM      4  C   UNL     1       8.927   2.191  23.649  0.00  0.00    +0.109 A 
ATOM      5  C   UNL     1       9.298   3.521  23.899  0.00  0.00    +0.135 A 
ATOM      6  C   UNL     1       8.706   4.230  24.939  0.00  0.00    +0.091 A 
ATOM      7  C   UNL     1       7.744   3.598  25.721  0.00  0.00    +0.124 A 
ATOM      8  C   UNL     1       9.516   1.440  22.540  0.00  0.00    +0.238 A 
ATOM      9  O   UNL     1      10.400   1.950  21.858  0.00  0.00    -0.283 OA
ATOM     10  C   UNL     1       7.375   2.271  25.482  0.00  0.00    +0.092 A 
ATOM     11  C   UNL     1       8.958   0.088  22.264  0.00  0.00    +0.208 A 
ENDROOT
BRANCH   1  13
ATOM     12  C   UNL     1       6.378  -2.038  22.095  0.00  0.00    +0.015 A 
ATOM     13  C   UNL     1       7.456  -1.808  22.972  0.00  0.00    +0.025 A 
ATOM     14  C   UNL     1       7.941  -2.915  23.705  0.00  0.00    +0.061 A 
ATOM     15  C   UNL     1       7.315  -4.175  23.625  0.00  0.00    +0.174 A 
ATOM     16  C   UNL     1       6.183  -4.329  22.825  0.00  0.00    +0.159 A 
ATOM     17  C   UNL     1       5.721  -3.273  22.049  0.00  0.00    +0.050 A 
BRANCH  16  18
ATOM     18  O   UNL     1       5.545  -5.537  22.792  0.00  0.00    -0.503 OA
ATOM     19  H   UNL     1       4.587  -5.388  22.732  0.00  0.00    +0.292 HD
ENDBRANCH  16  18
BRANCH  15  20
ATOM     20  O   UNL     1       7.722  -5.288  24.333  0.00  0.00    -0.400 OA
BRANCH  20  21
ATOM     21  P   UNL     1       8.718  -5.063  25.730  0.00  0.00    +0.528 P 
ATOM     22  O   UNL     1       7.793  -5.882  26.632  0.00  0.00    -0.216 OA
BRANCH  21  23
ATOM     23  O   UNL     1       9.716  -4.837  27.125  0.00  0.00    -0.293 OA
ATOM     24  H   UNL     1       9.507  -5.648  27.639  0.00  0.00    +0.223 HD
ENDBRANCH  21  23
BRANCH  21  25
ATOM     25  O   UNL     1       9.832  -6.095  25.136  0.00  0.00    -0.293 OA
ATOM     26  H   UNL     1       9.705  -6.263  24.186  0.00  0.00    +0.223 HD
ENDBRANCH  21  25
ENDBRANCH  20  21
ENDBRANCH  15  20
ENDBRANCH   1  13
BRANCH   5  27
ATOM     27  O   UNL     1      10.230   4.195  23.154  0.00  0.00    -0.506 OA
ATOM     28  H   UNL     1       9.786   4.537  22.344  0.00  0.00    +0.292 HD
ENDBRANCH   5  27
BRANCH   7  29
ATOM     29  O   UNL     1       7.131   4.257  26.746  0.00  0.00    -0.507 OA
ATOM     30  H   UNL     1       7.805   4.537  27.388  0.00  0.00    +0.292 HD
ENDBRANCH   7  29
BRANCH  11  31
ATOM     31  O   UNL     1       9.401  -0.514  21.102  0.00  0.00    -0.501 OA
ATOM     32  H   UNL     1       9.862  -1.337  21.341  0.00  0.00    +0.292 HD
ENDBRANCH  11  31
TORSDOF 9
ENDMDL
MODEL 7
REMARK VINA RESULT:      -6.9      2.435      2.674
REMARK  Name = 
REMARK  9 active torsions:
REMARK  status: ('A' for Active; 'I' for Inactive)
REMARK    1  A    between atoms: C_3  and  O_26
REMARK    2  A    between atoms: C_4  and  O_21
REMARK    3  A    between atoms: C_6  and  C_7
REMARK    4  A    between atoms: C_8  and  O_20
REMARK    5  A    between atoms: C_12  and  O_19
REMARK    6  A    between atoms: C_14  and  O_18
REMARK    7  A    between atoms: O_21  and  P_22
REMARK    8  A    between atoms: P_22  and  O_24
REMARK    9  A    between atoms: P_22  and  O_25
REMARK                            x       y       z     vdW  Elec       q    Type
REMARK                         _______ _______ _______ _____ _____    ______ ____
ROOT
ATOM      1  C   UNL     1       8.331  -2.021  24.600  0.00  0.00    +0.181 A 
ATOM      2  O   UNL     1       7.131  -1.826  25.292  0.00  0.00    -0.451 OA
ATOM      3  C   UNL     1       6.709  -2.785  26.186  0.00  0.00    +0.147 A 
ATOM      4  C   UNL     1       7.358  -4.001  26.355  0.00  0.00    +0.109 A 
ATOM      5  C   UNL     1       6.882  -4.944  27.278  0.00  0.00    +0.135 A 
ATOM      6  C   UNL     1       5.754  -4.667  28.045  0.00  0.00    +0.091 A 
ATOM      7  C   UNL     1       5.112  -3.444  27.878  0.00  0.00    +0.124 A 
ATOM      8  C   UNL     1       8.561  -4.263  25.562  0.00  0.00    +0.238 A 
ATOM      9  O   UNL     1       9.126  -5.349  25.651  0.00  0.00    -0.283 OA
ATOM     10  C   UNL     1       5.577  -2.504  26.953  0.00  0.00    +0.092 A 
ATOM     11  C   UNL     1       9.070  -3.150  24.716  0.00  0.00    +0.208 A 
ENDROOT
BRANCH   1  13
ATOM     12  C   UNL     1       8.951  -1.006  22.360  0.00  0.00    +0.015 A 
ATOM     13  C   UNL     1       8.724  -0.851  23.742  0.00  0.00    +0.025 A 
ATOM     14  C   UNL     1       8.889   0.443  24.283  0.00  0.00    +0.061 A 
ATOM     15  C   UNL     1       9.346   1.514  23.490  0.00  0.00    +0.174 A 
ATOM     16  C   UNL     1       9.663   1.289  22.150  0.00  0.00    +0.159 A 
ATOM     17  C   UNL     1       9.453   0.041  21.578  0.00  0.00    +0.050 A 
BRANCH  16  18
ATOM     18  O   UNL     1      10.158   2.316  21.397  0.00  0.00    -0.503 OA
ATOM     19  H   UNL     1       9.561   3.079  21.469  0.00  0.00    +0.292 HD
ENDBRANCH  16  18
BRANCH  15  20
ATOM     20  O   UNL     1       9.554   2.795  23.962  0.00  0.00    -0.400 OA
BRANCH  20  21
ATOM     21  P   UNL     1       8.194   3.855  24.107  0.00  0.00    +0.528 P 
ATOM     22  O   UNL     1       8.827   4.655  25.248  0.00  0.00    -0.216 OA
BRANCH  21  23
ATOM     23  O   UNL     1       6.835   4.914  24.251  0.00  0.00    -0.293 OA
ATOM     24  H   UNL     1       6.252   4.572  23.538  0.00  0.00    +0.223 HD
ENDBRANCH  21  23
BRANCH  21  25
ATOM     25  O   UNL     1       8.601   4.611  22.721  0.00  0.00    -0.293 OA
ATOM     26  H   UNL     1       9.284   4.126  22.227  0.00  0.00    +0.223 HD
ENDBRANCH  21  25
ENDBRANCH  20  21
ENDBRANCH  15  20
ENDBRANCH   1  13
BRANCH   5  27
ATOM     27  O   UNL     1       7.481  -6.158  27.491  0.00  0.00    -0.506 OA
ATOM     28  H   UNL     1       7.741  -6.209  28.440  0.00  0.00    +0.292 HD
ENDBRANCH   5  27
BRANCH   7  29
ATOM     29  O   UNL     1       4.009  -3.125  28.613  0.00  0.00    -0.507 OA
ATOM     30  H   UNL     1       4.135  -3.446  29.523  0.00  0.00    +0.292 HD
ENDBRANCH   7  29
BRANCH  11  31
ATOM     31  O   UNL     1      10.304  -3.363  24.131  0.00  0.00    -0.501 OA
ATOM     32  H   UNL     1      10.652  -2.505  23.833  0.00  0.00    +0.292 HD
ENDBRANCH  11  31
TORSDOF 9
ENDMDL
MODEL 8
REMARK VINA RESULT:      -6.8      3.066      8.558
REMARK  Name = 
REMARK  9 active torsions:
REMARK  status: ('A' for Active; 'I' for Inactive)
REMARK    1  A    between atoms: C_3  and  O_26
REMARK    2  A    between atoms: C_4  and  O_21
REMARK    3  A    between atoms: C_6  and  C_7
REMARK    4  A    between atoms: C_8  and  O_20
REMARK    5  A    between atoms: C_12  and  O_19
REMARK    6  A    between atoms: C_14  and  O_18
REMARK    7  A    between atoms: O_21  and  P_22
REMARK    8  A    between atoms: P_22  and  O_24
REMARK    9  A    between atoms: P_22  and  O_25
REMARK                            x       y       z     vdW  Elec       q    Type
REMARK                         _______ _______ _______ _____ _____    ______ ____
ROOT
ATOM      1  C   UNL     1       8.853   1.401  23.886  0.00  0.00    +0.181 A 
ATOM      2  O   UNL     1      10.147   1.869  23.636  0.00  0.00    -0.451 OA
ATOM      3  C   UNL     1      10.381   3.227  23.632  0.00  0.00    +0.147 A 
ATOM      4  C   UNL     1       9.368   4.170  23.749  0.00  0.00    +0.109 A 
ATOM      5  C   UNL     1       9.662   5.541  23.736  0.00  0.00    +0.135 A 
ATOM      6  C   UNL     1      10.978   5.975  23.612  0.00  0.00    +0.091 A 
ATOM      7  C   UNL     1      11.990   5.026  23.502  0.00  0.00    +0.124 A 
ATOM      8  C   UNL     1       7.992   3.696  23.911  0.00  0.00    +0.238 A 
ATOM      9  O   UNL     1       7.070   4.504  23.964  0.00  0.00    -0.283 OA
ATOM     10  C   UNL     1      11.703   3.658  23.507  0.00  0.00    +0.092 A 
ATOM     11  C   UNL     1       7.794   2.228  24.056  0.00  0.00    +0.208 A 
ENDROOT
BRANCH   1  13
ATOM     12  C   UNL     1       9.313  -0.801  25.057  0.00  0.00    +0.015 A 
ATOM     13  C   UNL     1       8.764  -0.097  23.967  0.00  0.00    +0.025 A 
ATOM     14  C   UNL     1       8.137  -0.858  22.955  0.00  0.00    +0.061 A 
ATOM     15  C   UNL     1       8.139  -2.267  22.993  0.00  0.00    +0.174 A 
ATOM     16  C   UNL     1       8.790  -2.923  24.037  0.00  0.00    +0.159 A 
ATOM     17  C   UNL     1       9.363  -2.199  25.075  0.00  0.00    +0.050 A 
BRANCH  16  18
ATOM     18  O   UNL     1       8.839  -4.289  24.043  0.00  0.00    -0.503 OA
ATOM     19  H   UNL     1       8.479  -4.623  23.204  0.00  0.00    +0.292 HD
ENDBRANCH  16  18
BRANCH  15  20
ATOM     20  O   UNL     1       7.569  -3.068  22.025  0.00  0.00    -0.400 OA
BRANCH  20  21
ATOM     21  P   UNL     1       5.975  -3.685  22.293  0.00  0.00    +0.528 P 
ATOM     22  O   UNL     1       5.593  -3.591  20.814  0.00  0.00    -0.216 OA
BRANCH  21  23
ATOM     23  O   UNL     1       4.381  -4.301  22.562  0.00  0.00    -0.293 OA
ATOM     24  H   UNL     1       4.452  -4.607  23.493  0.00  0.00    +0.223 HD
ENDBRANCH  21  23
BRANCH  21  25
ATOM     25  O   UNL     1       6.565  -5.185  22.533  0.00  0.00    -0.293 OA
ATOM     26  H   UNL     1       7.536  -5.207  22.490  0.00  0.00    +0.223 HD
ENDBRANCH  21  25
ENDBRANCH  20  21
ENDBRANCH  15  20
ENDBRANCH   1  13
BRANCH   5  27
ATOM     27  O   UNL     1       8.707   6.517  23.852  0.00  0.00    -0.506 OA
ATOM     28  H   UNL     1       9.131   7.385  23.657  0.00  0.00    +0.292 HD
ENDBRANCH   5  27
BRANCH   7  29
ATOM     29  O   UNL     1      13.296   5.404  23.388  0.00  0.00    -0.507 OA
ATOM     30  H   UNL     1      13.520   5.477  22.444  0.00  0.00    +0.292 HD
ENDBRANCH   7  29
BRANCH  11  31
ATOM     31  O   UNL     1       6.515   1.831  24.395  0.00  0.00    -0.501 OA
ATOM     32  H   UNL     1       5.987   2.627  24.579  0.00  0.00    +0.292 HD
ENDBRANCH  11  31
TORSDOF 9
ENDMDL
MODEL 9
REMARK VINA RESULT:      -6.7      1.317      1.526
REMARK  Name = 
REMARK  9 active torsions:
REMARK  status: ('A' for Active; 'I' for Inactive)
REMARK    1  A    between atoms: C_3  and  O_26
REMARK    2  A    between atoms: C_4  and  O_21
REMARK    3  A    between atoms: C_6  and  C_7
REMARK    4  A    between atoms: C_8  and  O_20
REMARK    5  A    between atoms: C_12  and  O_19
REMARK    6  A    between atoms: C_14  and  O_18
REMARK    7  A    between atoms: O_21  and  P_22
REMARK    8  A    between atoms: P_22  and  O_24
REMARK    9  A    between atoms: P_22  and  O_25
REMARK                            x       y       z     vdW  Elec       q    Type
REMARK                         _______ _______ _______ _____ _____    ______ ____
ROOT
ATOM      1  C   UNL     1       8.406  -1.734  24.395  0.00  0.00    +0.181 A 
ATOM      2  O   UNL     1       7.845  -2.450  23.332  0.00  0.00    -0.451 OA
ATOM      3  C   UNL     1       7.162  -3.618  23.596  0.00  0.00    +0.147 A 
ATOM      4  C   UNL     1       7.097  -4.188  24.861  0.00  0.00    +0.109 A 
ATOM      5  C   UNL     1       6.389  -5.380  25.072  0.00  0.00    +0.135 A 
ATOM      6  C   UNL     1       5.734  -6.004  24.015  0.00  0.00    +0.091 A 
ATOM      7  C   UNL     1       5.796  -5.424  22.751  0.00  0.00    +0.124 A 
ATOM      8  C   UNL     1       7.765  -3.501  25.968  0.00  0.00    +0.238 A 
ATOM      9  O   UNL     1       7.770  -4.007  27.086  0.00  0.00    -0.283 OA
ATOM     10  C   UNL     1       6.506  -4.240  22.533  0.00  0.00    +0.092 A 
ATOM     11  C   UNL     1       8.369  -2.172  25.675  0.00  0.00    +0.208 A 
ENDROOT
BRANCH   1  13
ATOM     12  C   UNL     1      10.350  -0.105  24.336  0.00  0.00    +0.015 A 
ATOM     13  C   UNL     1       9.027  -0.431  23.976  0.00  0.00    +0.025 A 
ATOM     14  C   UNL     1       8.311   0.521  23.216  0.00  0.00    +0.061 A 
ATOM     15  C   UNL     1       8.868   1.777  22.907  0.00  0.00    +0.174 A 
ATOM     16  C   UNL     1      10.141   2.097  23.378  0.00  0.00    +0.159 A 
ATOM     17  C   UNL     1      10.890   1.159  24.076  0.00  0.00    +0.050 A 
BRANCH  16  18
ATOM     18  O   UNL     1      10.657   3.337  23.124  0.00  0.00    -0.503 OA
ATOM     19  H   UNL     1      11.597   3.248  22.893  0.00  0.00    +0.292 HD
ENDBRANCH  16  18
BRANCH  15  20
ATOM     20  O   UNL     1       8.213   2.760  22.192  0.00  0.00    -0.400 OA
BRANCH  20  21
ATOM     21  P   UNL     1       7.091   3.781  23.023  0.00  0.00    +0.528 P 
ATOM     22  O   UNL     1       8.056   4.969  23.053  0.00  0.00    -0.216 OA
BRANCH  21  23
ATOM     23  O   UNL     1       5.968   4.801  23.855  0.00  0.00    -0.293 OA
ATOM     24  H   UNL     1       5.823   5.506  23.187  0.00  0.00    +0.223 HD
ENDBRANCH  21  23
BRANCH  21  25
ATOM     25  O   UNL     1       6.191   3.939  21.673  0.00  0.00    -0.293 OA
ATOM     26  H   UNL     1       6.044   3.086  21.230  0.00  0.00    +0.223 HD
ENDBRANCH  21  25
ENDBRANCH  20  21
ENDBRANCH  15  20
ENDBRANCH   1  13
BRANCH   5  27
ATOM     27  O   UNL     1       6.286  -5.987  26.297  0.00  0.00    -0.506 OA
ATOM     28  H   UNL     1       6.232  -5.283  26.984  0.00  0.00    +0.292 HD
ENDBRANCH   5  27
BRANCH   7  29
ATOM     29  O   UNL     1       5.162  -5.995  21.687  0.00  0.00    -0.507 OA
ATOM     30  H   UNL     1       4.259  -6.239  21.953  0.00  0.00    +0.292 HD
ENDBRANCH   7  29
BRANCH  11  31
ATOM     31  O   UNL     1       8.822  -1.470  26.776  0.00  0.00    -0.501 OA
ATOM     32  H   UNL     1       9.255  -2.097  27.381  0.00  0.00    +0.292 HD
ENDBRANCH  11  31
TORSDOF 9
ENDMDL
