MODEL 1
REMARK VINA RESULT:      -7.3      0.000      0.000
REMARK  Name = 
REMARK  14 active torsions:
REMARK  status: ('A' for Active; 'I' for Inactive)
REMARK    1  A    between atoms: C_3  and  O_34
REMARK    2  A    between atoms: C_4  and  O_29
REMARK    3  A    between atoms: C_6  and  C_7
REMARK    4  A    between atoms: C_8  and  O_24
REMARK    5  A    between atoms: C_12  and  O_23
REMARK    6  A    between atoms: C_14  and  O_18
REMARK    7  A    between atoms: O_18  and  S_19
REMARK    8  A    between atoms: S_19  and  O_22
REMARK    9  A    between atoms: O_24  and  S_25
REMARK   10  A    between atoms: S_25  and  O_28
REMARK   11  A    between atoms: O_29  and  S_30
REMARK   12  A    between atoms: S_30  and  O_33
REMARK   13  A    between atoms: O_34  and  S_35
REMARK   14  A    between atoms: S_35  and  O_38
REMARK                            x       y       z     vdW  Elec       q    Type
REMARK                         _______ _______ _______ _____ _____    ______ ____
ROOT
ATOM      1  C   UNL     1       6.826  -2.379  24.667  0.00  0.00    +0.184 A 
ATOM      2  O   UNL     1       6.484  -1.068  24.335  0.00  0.00    -0.451 OA
ATOM      3  C   UNL     1       7.244  -0.384  23.424  0.00  0.00    +0.147 A 
ATOM      4  C   UNL     1       8.435  -0.890  22.930  0.00  0.00    +0.109 A 
ATOM      5  C   UNL     1       9.202  -0.119  22.051  0.00  0.00    +0.135 A 
ATOM      6  C   UNL     1       8.767   1.143  21.644  0.00  0.00    +0.095 A 
ATOM      7  C   UNL     1       7.540   1.629  22.095  0.00  0.00    +0.166 A 
ATOM      8  C   UNL     1       8.843  -2.238  23.337  0.00  0.00    +0.241 A 
ATOM      9  O   UNL     1       9.912  -2.701  22.943  0.00  0.00    -0.283 OA
ATOM     10  C   UNL     1       6.787   0.871  23.004  0.00  0.00    +0.096 A 
ATOM     11  C   UNL     1       7.924  -3.016  24.207  0.00  0.00    +0.248 A 
ENDROOT
BRANCH   1  13
ATOM     12  C   UNL     1       5.863  -2.821  26.912  0.00  0.00    +0.015 A 
ATOM     13  C   UNL     1       5.785  -2.964  25.525  0.00  0.00    +0.025 A 
ATOM     14  C   UNL     1       4.814  -3.817  24.978  0.00  0.00    +0.064 A 
ATOM     15  C   UNL     1       3.978  -4.568  25.817  0.00  0.00    +0.204 A 
ATOM     16  C   UNL     1       4.175  -4.534  27.203  0.00  0.00    +0.203 A 
ATOM     17  C   UNL     1       5.069  -3.611  27.747  0.00  0.00    +0.053 A 
BRANCH  15  18
ATOM     18  O   UNL     1       3.000  -5.402  25.327  0.00  0.00    -0.321 OA
BRANCH  18  19
ATOM     19  S   UNL     1       3.397  -6.893  24.787  0.00  0.00    +0.251 S 
ATOM     20  O   UNL     1       4.826  -6.963  24.596  0.00  0.00    -0.108 OA
ATOM     21  O   UNL     1       2.470  -7.295  23.750  0.00  0.00    -0.108 OA
BRANCH  19  22
ATOM     22  O   UNL     1       3.033  -7.840  26.037  0.00  0.00    -0.222 OA
ATOM     23  H   UNL     1       3.654  -8.599  26.010  0.00  0.00    +0.248 HD
ENDBRANCH  19  22
ENDBRANCH  18  19
ENDBRANCH  15  18
BRANCH  16  24
ATOM     24  O   UNL     1       3.470  -5.429  27.974  0.00  0.00    -0.321 OA
BRANCH  24  25
ATOM     25  S   UNL     1       4.260  -6.578  28.835  0.00  0.00    +0.251 S 
ATOM     26  O   UNL     1       4.560  -6.060  30.151  0.00  0.00    -0.108 OA
ATOM     27  O   UNL     1       5.284  -7.182  28.009  0.00  0.00    -0.108 OA
BRANCH  25  28
ATOM     28  O   UNL     1       3.158  -7.732  29.019  0.00  0.00    -0.222 OA
ATOM     29  H   UNL     1       2.971  -8.097  28.130  0.00  0.00    +0.248 HD
ENDBRANCH  25  28
ENDBRANCH  24  25
ENDBRANCH  16  24
ENDBRANCH   1  13
BRANCH   5  30
ATOM     30  O   UNL     1      10.400  -0.543  21.541  0.00  0.00    -0.506 OA
ATOM     31  H   UNL     1      10.935  -0.920  22.275  0.00  0.00    +0.292 HD
ENDBRANCH   5  30
BRANCH   7  32
ATOM     32  O   UNL     1       7.004   2.841  21.732  0.00  0.00    -0.325 OA
BRANCH  32  33
ATOM     33  S   UNL     1       7.132   4.158  22.688  0.00  0.00    +0.251 S 
ATOM     34  O   UNL     1       8.375   4.108  23.424  0.00  0.00    -0.108 OA
ATOM     35  O   UNL     1       5.860   4.382  23.342  0.00  0.00    -0.108 OA
BRANCH  33  36
ATOM     36  O   UNL     1       7.258   5.360  21.620  0.00  0.00    -0.222 OA
ATOM     37  H   UNL     1       7.418   4.954  20.744  0.00  0.00    +0.248 HD
ENDBRANCH  33  36
ENDBRANCH  32  33
ENDBRANCH   7  32
BRANCH  11  38
ATOM     38  O   UNL     1       8.245  -4.350  24.330  0.00  0.00    -0.317 OA
BRANCH  38  39
ATOM     39  S   UNL     1       8.707  -5.068  25.707  0.00  0.00    +0.252 S 
ATOM     40  O   UNL     1       7.640  -5.937  26.150  0.00  0.00    -0.108 OA
ATOM     41  O   UNL     1       9.316  -4.094  26.586  0.00  0.00    -0.108 OA
BRANCH  39  42
ATOM     42  O   UNL     1       9.917  -6.021  25.230  0.00  0.00    -0.222 OA
ATOM     43  H   UNL     1      10.516  -5.487  24.670  0.00  0.00    +0.248 HD
ENDBRANCH  39  42
ENDBRANCH  38  39
ENDBRANCH  11  38
TORSDOF 14
ENDMDL
MODEL 2
REMARK VINA RESULT:      -7.3      2.218      9.198
REMARK  Name = 
REMARK  14 active torsions:
REMARK  status: ('A' for Active; 'I' for Inactive)
REMARK    1  A    between atoms: C_3  and  O_34
REMARK    2  A    between atoms: C_4  and  O_29
REMARK    3  A    between atoms: C_6  and  C_7
REMARK    4  A    between atoms: C_8  and  O_24
REMARK    5  A    between atoms: C_12  and  O_23
REMARK    6  A    between atoms: C_14  and  O_18
REMARK    7  A    between atoms: O_18  and  S_19
REMARK    8  A    between atoms: S_19  and  O_22
REMARK    9  A    between atoms: O_24  and  S_25
REMARK   10  A    between atoms: S_25  and  O_28
REMARK   11  A    between atoms: O_29  and  S_30
REMARK   12  A    between atoms: S_30  and  O_33
REMARK   13  A    between atoms: O_34  and  S_35
REMARK   14  A    between atoms: S_35  and  O_38
REMARK                            x       y       z     vdW  Elec       q    Type
REMARK                         _______ _______ _______ _____ _____    ______ ____
ROOT
ATOM      1  C   UNL     1       7.628  -0.463  24.927  0.00  0.00    +0.184 A 
ATOM      2  O   UNL     1       7.001  -1.378  25.774  0.00  0.00    -0.451 OA
ATOM      3  C   UNL     1       7.544  -2.626  25.934  0.00  0.00    +0.147 A 
ATOM      4  C   UNL     1       8.609  -3.071  25.167  0.00  0.00    +0.109 A 
ATOM      5  C   UNL     1       9.079  -4.378  25.330  0.00  0.00    +0.135 A 
ATOM      6  C   UNL     1       8.506  -5.230  26.275  0.00  0.00    +0.095 A 
ATOM      7  C   UNL     1       7.472  -4.764  27.088  0.00  0.00    +0.166 A 
ATOM      8  C   UNL     1       9.221  -2.139  24.216  0.00  0.00    +0.241 A 
ATOM      9  O   UNL     1      10.146  -2.514  23.497  0.00  0.00    -0.283 OA
ATOM     10  C   UNL     1       6.977  -3.465  26.901  0.00  0.00    +0.096 A 
ATOM     11  C   UNL     1       8.710  -0.744  24.173  0.00  0.00    +0.248 A 
ENDROOT
BRANCH   1  13
ATOM     12  C   UNL     1       5.581   0.942  24.951  0.00  0.00    +0.015 A 
ATOM     13  C   UNL     1       6.971   0.849  25.041  0.00  0.00    +0.025 A 
ATOM     14  C   UNL     1       7.738   2.024  25.056  0.00  0.00    +0.064 A 
ATOM     15  C   UNL     1       7.119   3.275  24.915  0.00  0.00    +0.204 A 
ATOM     16  C   UNL     1       5.742   3.343  24.665  0.00  0.00    +0.203 A 
ATOM     17  C   UNL     1       4.971   2.183  24.752  0.00  0.00    +0.053 A 
BRANCH  15  18
ATOM     18  O   UNL     1       7.826   4.454  24.943  0.00  0.00    -0.321 OA
BRANCH  18  19
ATOM     19  S   UNL     1       8.909   4.783  23.762  0.00  0.00    +0.251 S 
ATOM     20  O   UNL     1      10.114   4.025  24.001  0.00  0.00    -0.108 OA
ATOM     21  O   UNL     1       8.942   6.210  23.520  0.00  0.00    -0.108 OA
BRANCH  19  22
ATOM     22  O   UNL     1       8.209   4.171  22.448  0.00  0.00    -0.222 OA
ATOM     23  H   UNL     1       7.240   4.232  22.586  0.00  0.00    +0.248 HD
ENDBRANCH  19  22
ENDBRANCH  18  19
ENDBRANCH  15  18
BRANCH  16  24
ATOM     24  O   UNL     1       5.209   4.568  24.337  0.00  0.00    -0.321 OA
BRANCH  24  25
ATOM     25  S   UNL     1       4.944   4.959  22.769  0.00  0.00    +0.251 S 
ATOM     26  O   UNL     1       5.745   6.113  22.427  0.00  0.00    -0.108 OA
ATOM     27  O   UNL     1       3.523   4.917  22.493  0.00  0.00    -0.108 OA
BRANCH  25  28
ATOM     28  O   UNL     1       5.548   3.706  21.964  0.00  0.00    -0.222 OA
ATOM     29  H   UNL     1       4.825   3.054  21.861  0.00  0.00    +0.248 HD
ENDBRANCH  25  28
ENDBRANCH  24  25
ENDBRANCH  16  24
ENDBRANCH   1  13
BRANCH   5  30
ATOM     30  O   UNL     1      10.110  -4.894  24.591  0.00  0.00    -0.506 OA
ATOM     31  H   UNL     1      10.912  -4.347  24.749  0.00  0.00    +0.292 HD
ENDBRANCH   5  30
BRANCH   7  32
ATOM     32  O   UNL     1       6.862  -5.507  28.069  0.00  0.00    -0.325 OA
BRANCH  32  33
ATOM     33  S   UNL     1       5.458  -6.296  27.801  0.00  0.00    +0.251 S 
ATOM     34  O   UNL     1       5.401  -6.738  26.425  0.00  0.00    -0.108 OA
ATOM     35  O   UNL     1       4.381  -5.546  28.411  0.00  0.00    -0.108 OA
BRANCH  33  36
ATOM     36  O   UNL     1       5.610  -7.612  28.720  0.00  0.00    -0.222 OA
ATOM     37  H   UNL     1       4.707  -7.907  28.955  0.00  0.00    +0.248 HD
ENDBRANCH  33  36
ENDBRANCH  32  33
ENDBRANCH   7  32
BRANCH  11  38
ATOM     38  O   UNL     1       9.496   0.131  23.456  0.00  0.00    -0.317 OA
BRANCH  38  39
ATOM     39  S   UNL     1       9.162   0.668  21.965  0.00  0.00    +0.252 S 
ATOM     40  O   UNL     1       7.833   1.238  21.971  0.00  0.00    -0.108 OA
ATOM     41  O   UNL     1       9.568  -0.317  20.987  0.00  0.00    -0.108 OA
BRANCH  39  42
ATOM     42  O   UNL     1      10.193   1.895  21.782  0.00  0.00    -0.222 OA
ATOM     43  H   UNL     1      10.712   1.731  20.969  0.00  0.00    +0.248 HD
ENDBRANCH  39  42
ENDBRANCH  38  39
ENDBRANCH  11  38
TORSDOF 14
ENDMDL
MODEL 3
REMARK VINA RESULT:      -7.3      2.862      5.242
REMARK  Name = 
REMARK  14 active torsions:
REMARK  status: ('A' for Active; 'I' for Inactive)
REMARK    1  A    between atoms: C_3  and  O_34
REMARK    2  A    between atoms: C_4  and  O_29
REMARK    3  A    between atoms: C_6  and  C_7
REMARK    4  A    between atoms: C_8  and  O_24
REMARK    5  A    between atoms: C_12  and  O_23
REMARK    6  A    between atoms: C_14  and  O_18
REMARK    7  A    between atoms: O_18  and  S_19
REMARK    8  A    between atoms: S_19  and  O_22
REMARK    9  A    between atoms: O_24  and  S_25
REMARK   10  A    between atoms: S_25  and  O_28
REMARK   11  A    between atoms: O_29  and  S_30
REMARK   12  A    between atoms: S_30  and  O_33
REMARK   13  A    between atoms: O_34  and  S_35
REMARK   14  A    between atoms: S_35  and  O_38
REMARK                            x       y       z     vdW  Elec       q    Type
REMARK                         _______ _______ _______ _____ _____    ______ ____
ROOT
ATOM      1  C   UNL     1       7.447   0.039  23.579  0.00  0.00    +0.184 A 
ATOM      2  O   UNL     1       8.726   0.482  23.240  0.00  0.00    -0.451 OA
ATOM      3  C   UNL     1       9.096   1.765  23.545  0.00  0.00    +0.147 A 
ATOM      4  C   UNL     1       8.195   2.694  24.042  0.00  0.00    +0.109 A 
ATOM      5  C   UNL     1       8.614   4.008  24.274  0.00  0.00    +0.135 A 
ATOM      6  C   UNL     1       9.936   4.386  24.039  0.00  0.00    +0.095 A 
ATOM      7  C   UNL     1      10.858   3.438  23.594  0.00  0.00    +0.166 A 
ATOM      8  C   UNL     1       6.825   2.255  24.325  0.00  0.00    +0.241 A 
ATOM      9  O   UNL     1       5.993   3.064  24.733  0.00  0.00    -0.283 OA
ATOM     10  C   UNL     1      10.430   2.130  23.328  0.00  0.00    +0.096 A 
ATOM     11  C   UNL     1       6.493   0.820  24.128  0.00  0.00    +0.248 A 
ENDROOT
BRANCH   1  13
ATOM     12  C   UNL     1       6.445  -1.863  22.335  0.00  0.00    +0.015 A 
ATOM     13  C   UNL     1       7.334  -1.403  23.310  0.00  0.00    +0.025 A 
ATOM     14  C   UNL     1       7.973  -2.331  24.147  0.00  0.00    +0.064 A 
ATOM     15  C   UNL     1       7.671  -3.698  24.049  0.00  0.00    +0.204 A 
ATOM     16  C   UNL     1       6.662  -4.124  23.177  0.00  0.00    +0.203 A 
ATOM     17  C   UNL     1       6.103  -3.216  22.278  0.00  0.00    +0.053 A 
BRANCH  15  18
ATOM     18  O   UNL     1       8.285  -4.645  24.835  0.00  0.00    -0.321 OA
BRANCH  18  19
ATOM     19  S   UNL     1       7.890  -4.774  26.416  0.00  0.00    +0.251 S 
ATOM     20  O   UNL     1       7.279  -6.061  26.647  0.00  0.00    -0.108 OA
ATOM     21  O   UNL     1       7.268  -3.544  26.861  0.00  0.00    -0.108 OA
BRANCH  19  22
ATOM     22  O   UNL     1       9.323  -4.785  27.148  0.00  0.00    -0.222 OA
ATOM     23  H   UNL     1       9.448  -3.896  27.544  0.00  0.00    +0.248 HD
ENDBRANCH  19  22
ENDBRANCH  18  19
ENDBRANCH  15  18
BRANCH  16  24
ATOM     24  O   UNL     1       6.261  -5.438  23.252  0.00  0.00    -0.321 OA
BRANCH  24  25
ATOM     25  S   UNL     1       4.829  -5.825  23.948  0.00  0.00    +0.251 S 
ATOM     26  O   UNL     1       4.502  -4.828  24.943  0.00  0.00    -0.108 OA
ATOM     27  O   UNL     1       4.808  -7.238  24.259  0.00  0.00    -0.108 OA
BRANCH  25  28
ATOM     28  O   UNL     1       3.773  -5.660  22.747  0.00  0.00    -0.222 OA
ATOM     29  H   UNL     1       4.159  -6.100  21.963  0.00  0.00    +0.248 HD
ENDBRANCH  25  28
ENDBRANCH  24  25
ENDBRANCH  16  24
ENDBRANCH   1  13
BRANCH   5  30
ATOM     30  O   UNL     1       7.775   4.984  24.740  0.00  0.00    -0.506 OA
ATOM     31  H   UNL     1       8.304   5.624  25.268  0.00  0.00    +0.292 HD
ENDBRANCH   5  30
BRANCH   7  32
ATOM     32  O   UNL     1      12.187   3.697  23.363  0.00  0.00    -0.325 OA
BRANCH  32  33
ATOM     33  S   UNL     1      12.752   5.222  23.210  0.00  0.00    +0.251 S 
ATOM     34  O   UNL     1      12.408   5.989  24.387  0.00  0.00    -0.108 OA
ATOM     35  O   UNL     1      12.460   5.693  21.873  0.00  0.00    -0.108 OA
BRANCH  33  36
ATOM     36  O   UNL     1      14.350   5.011  23.227  0.00  0.00    -0.222 OA
ATOM     37  H   UNL     1      14.545   4.227  22.674  0.00  0.00    +0.248 HD
ENDBRANCH  33  36
ENDBRANCH  32  33
ENDBRANCH   7  32
BRANCH  11  38
ATOM     38  O   UNL     1       5.281   0.435  24.657  0.00  0.00    -0.317 OA
BRANCH  38  39
ATOM     39  S   UNL     1       5.084  -0.280  26.097  0.00  0.00    +0.252 S 
ATOM     40  O   UNL     1       3.814   0.138  26.645  0.00  0.00    -0.108 OA
ATOM     41  O   UNL     1       6.312  -0.196  26.856  0.00  0.00    -0.108 OA
BRANCH  39  42
ATOM     42  O   UNL     1       4.933  -1.839  25.709  0.00  0.00    -0.222 OA
ATOM     43  H   UNL     1       5.745  -2.109  25.234  0.00  0.00    +0.248 HD
ENDBRANCH  39  42
ENDBRANCH  38  39
ENDBRANCH  11  38
TORSDOF 14
ENDMDL
MODEL 4
REMARK VINA RESULT:      -7.1      2.863      9.064
REMARK  Name = 
REMARK  14 active torsions:
REMARK  status: ('A' for Active; 'I' for Inactive)
REMARK    1  A    between atoms: C_3  and  O_34
REMARK    2  A    between atoms: C_4  and  O_29
REMARK    3  A    between atoms: C_6  and  C_7
REMARK    4  A    between atoms: C_8  and  O_24
REMARK    5  A    between atoms: C_12  and  O_23
REMARK    6  A    between atoms: C_14  and  O_18
REMARK    7  A    between atoms: O_18  and  S_19
REMARK    8  A    between atoms: S_19  and  O_22
REMARK    9  A    between atoms: O_24  and  S_25
REMARK   10  A    between atoms: S_25  and  O_28
REMARK   11  A    between atoms: O_29  and  S_30
REMARK   12  A    between atoms: S_30  and  O_33
REMARK   13  A    between atoms: O_34  and  S_35
REMARK   14  A    between atoms: S_35  and  O_38
REMARK                            x       y       z     vdW  Elec       q    Type
REMARK                         _______ _______ _______ _____ _____    ______ ____
ROOT
ATOM      1  C   UNL     1       7.247  -0.553  23.404  0.00  0.00    +0.184 A 
ATOM      2  O   UNL     1       6.278  -1.407  22.875  0.00  0.00    -0.451 OA
ATOM      3  C   UNL     1       6.431  -2.761  23.010  0.00  0.00    +0.147 A 
ATOM      4  C   UNL     1       7.589  -3.327  23.517  0.00  0.00    +0.109 A 
ATOM      5  C   UNL     1       7.714  -4.718  23.571  0.00  0.00    +0.135 A 
ATOM      6  C   UNL     1       6.673  -5.544  23.145  0.00  0.00    +0.095 A 
ATOM      7  C   UNL     1       5.483  -4.976  22.688  0.00  0.00    +0.166 A 
ATOM      8  C   UNL     1       8.647  -2.434  24.001  0.00  0.00    +0.241 A 
ATOM      9  O   UNL     1       9.701  -2.904  24.426  0.00  0.00    -0.283 OA
ATOM     10  C   UNL     1       5.371  -3.581  22.602  0.00  0.00    +0.096 A 
ATOM     11  C   UNL     1       8.392  -0.970  23.984  0.00  0.00    +0.248 A 
ENDROOT
BRANCH   1  13
ATOM     12  C   UNL     1       7.011   1.551  22.107  0.00  0.00    +0.015 A 
ATOM     13  C   UNL     1       6.795   0.842  23.290  0.00  0.00    +0.025 A 
ATOM     14  C   UNL     1       6.314   1.524  24.419  0.00  0.00    +0.064 A 
ATOM     15  C   UNL     1       6.117   2.912  24.377  0.00  0.00    +0.204 A 
ATOM     16  C   UNL     1       6.489   3.631  23.234  0.00  0.00    +0.203 A 
ATOM     17  C   UNL     1       6.870   2.941  22.083  0.00  0.00    +0.053 A 
BRANCH  15  18
ATOM     18  O   UNL     1       5.630   3.619  25.452  0.00  0.00    -0.321 OA
BRANCH  18  19
ATOM     19  S   UNL     1       6.656   4.163  26.602  0.00  0.00    +0.251 S 
ATOM     20  O   UNL     1       7.996   3.732  26.283  0.00  0.00    -0.108 OA
ATOM     21  O   UNL     1       6.076   3.942  27.911  0.00  0.00    -0.108 OA
BRANCH  19  22
ATOM     22  O   UNL     1       6.606   5.760  26.408  0.00  0.00    -0.222 OA
ATOM     23  H   UNL     1       6.158   6.130  27.198  0.00  0.00    +0.248 HD
ENDBRANCH  19  22
ENDBRANCH  18  19
ENDBRANCH  15  18
BRANCH  16  24
ATOM     24  O   UNL     1       6.466   5.005  23.304  0.00  0.00    -0.321 OA
BRANCH  24  25
ATOM     25  S   UNL     1       7.859   5.860  23.195  0.00  0.00    +0.251 S 
ATOM     26  O   UNL     1       8.977   4.974  23.430  0.00  0.00    -0.108 OA
ATOM     27  O   UNL     1       7.719   7.107  23.917  0.00  0.00    -0.108 OA
BRANCH  25  28
ATOM     28  O   UNL     1       7.913   6.293  21.649  0.00  0.00    -0.222 OA
ATOM     29  H   UNL     1       8.336   7.175  21.611  0.00  0.00    +0.248 HD
ENDBRANCH  25  28
ENDBRANCH  24  25
ENDBRANCH  16  24
ENDBRANCH   1  13
BRANCH   5  30
ATOM     30  O   UNL     1       8.838  -5.347  24.037  0.00  0.00    -0.506 OA
ATOM     31  H   UNL     1       9.104  -4.923  24.883  0.00  0.00    +0.292 HD
ENDBRANCH   5  30
BRANCH   7  32
ATOM     32  O   UNL     1       4.388  -5.696  22.277  0.00  0.00    -0.325 OA
BRANCH  32  33
ATOM     33  S   UNL     1       3.180  -6.085  23.305  0.00  0.00    +0.251 S 
ATOM     34  O   UNL     1       1.916  -6.065  22.603  0.00  0.00    -0.108 OA
ATOM     35  O   UNL     1       3.380  -5.371  24.548  0.00  0.00    -0.108 OA
BRANCH  33  36
ATOM     36  O   UNL     1       3.502  -7.624  23.664  0.00  0.00    -0.222 OA
ATOM     37  H   UNL     1       4.254  -7.625  24.291  0.00  0.00    +0.248 HD
ENDBRANCH  33  36
ENDBRANCH  32  33
ENDBRANCH   7  32
BRANCH  11  38
ATOM     38  O   UNL     1       9.309  -0.221  24.687  0.00  0.00    -0.317 OA
BRANCH  38  39
ATOM     39  S   UNL     1      10.388   0.787  24.020  0.00  0.00    +0.252 S 
ATOM     40  O   UNL     1      10.335   0.628  22.585  0.00  0.00    -0.108 OA
ATOM     41  O   UNL     1      11.633   0.725  24.753  0.00  0.00    -0.108 OA
BRANCH  39  42
ATOM     42  O   UNL     1       9.775   2.242  24.351  0.00  0.00    -0.222 OA
ATOM     43  H   UNL     1       8.814   2.211  24.169  0.00  0.00    +0.248 HD
ENDBRANCH  39  42
ENDBRANCH  38  39
ENDBRANCH  11  38
TORSDOF 14
ENDMDL
MODEL 5
REMARK VINA RESULT:      -7.0      2.307      9.030
REMARK  Name = 
REMARK  14 active torsions:
REMARK  status: ('A' for Active; 'I' for Inactive)
REMARK    1  A    between atoms: C_3  and  O_34
REMARK    2  A    between atoms: C_4  and  O_29
REMARK    3  A    between atoms: C_6  and  C_7
REMARK    4  A    between atoms: C_8  and  O_24
REMARK    5  A    between atoms: C_12  and  O_23
REMARK    6  A    between atoms: C_14  and  O_18
REMARK    7  A    between atoms: O_18  and  S_19
REMARK    8  A    between atoms: S_19  and  O_22
REMARK    9  A    between atoms: O_24  and  S_25
REMARK   10  A    between atoms: S_25  and  O_28
REMARK   11  A    between atoms: O_29  and  S_30
REMARK   12  A    between atoms: S_30  and  O_33
REMARK   13  A    between atoms: O_34  and  S_35
REMARK   14  A    between atoms: S_35  and  O_38
REMARK                            x       y       z     vdW  Elec       q    Type
REMARK                         _______ _______ _______ _____ _____    ______ ____
ROOT
ATOM      1  C   UNL     1       7.610  -0.795  23.935  0.00  0.00    +0.184 A 
ATOM      2  O   UNL     1       6.675  -1.705  24.429  0.00  0.00    -0.451 OA
ATOM      3  C   UNL     1       7.086  -2.958  24.798  0.00  0.00    +0.147 A 
ATOM      4  C   UNL     1       8.372  -3.414  24.556  0.00  0.00    +0.109 A 
ATOM      5  C   UNL     1       8.717  -4.726  24.896  0.00  0.00    +0.135 A 
ATOM      6  C   UNL     1       7.788  -5.572  25.502  0.00  0.00    +0.095 A 
ATOM      7  C   UNL     1       6.510  -5.097  25.799  0.00  0.00    +0.166 A 
ATOM      8  C   UNL     1       9.340  -2.487  23.962  0.00  0.00    +0.241 A 
ATOM      9  O   UNL     1      10.480  -2.871  23.703  0.00  0.00    -0.283 OA
ATOM     10  C   UNL     1       6.154  -3.792  25.427  0.00  0.00    +0.096 A 
ATOM     11  C   UNL     1       8.909  -1.086  23.712  0.00  0.00    +0.248 A 
ENDROOT
BRANCH   1  13
ATOM     12  C   UNL     1       6.843   1.071  22.489  0.00  0.00    +0.015 A 
ATOM     13  C   UNL     1       6.980   0.523  23.766  0.00  0.00    +0.025 A 
ATOM     14  C   UNL     1       6.682   1.314  24.886  0.00  0.00    +0.064 A 
ATOM     15  C   UNL     1       6.315   2.658  24.727  0.00  0.00    +0.204 A 
ATOM     16  C   UNL     1       6.337   3.236  23.451  0.00  0.00    +0.203 A 
ATOM     17  C   UNL     1       6.533   2.425  22.334  0.00  0.00    +0.053 A 
BRANCH  15  18
ATOM     18  O   UNL     1       5.996   3.466  25.794  0.00  0.00    -0.321 OA
BRANCH  18  19
ATOM     19  S   UNL     1       7.181   4.055  26.753  0.00  0.00    +0.251 S 
ATOM     20  O   UNL     1       6.679   5.200  27.476  0.00  0.00    -0.108 OA
ATOM     21  O   UNL     1       8.423   4.107  26.011  0.00  0.00    -0.108 OA
BRANCH  19  22
ATOM     22  O   UNL     1       7.404   2.873  27.823  0.00  0.00    -0.222 OA
ATOM     23  H   UNL     1       8.280   2.477  27.631  0.00  0.00    +0.248 HD
ENDBRANCH  19  22
ENDBRANCH  18  19
ENDBRANCH  15  18
BRANCH  16  24
ATOM     24  O   UNL     1       6.164   4.599  23.360  0.00  0.00    -0.321 OA
BRANCH  24  25
ATOM     25  S   UNL     1       7.436   5.569  23.009  0.00  0.00    +0.251 S 
ATOM     26  O   UNL     1       7.603   6.533  24.074  0.00  0.00    -0.108 OA
ATOM     27  O   UNL     1       7.363   5.980  21.623  0.00  0.00    -0.108 OA
BRANCH  25  28
ATOM     28  O   UNL     1       8.695   4.573  23.069  0.00  0.00    -0.222 OA
ATOM     29  H   UNL     1       8.964   4.394  22.145  0.00  0.00    +0.248 HD
ENDBRANCH  25  28
ENDBRANCH  24  25
ENDBRANCH  16  24
ENDBRANCH   1  13
BRANCH   5  30
ATOM     30  O   UNL     1       9.959  -5.252  24.664  0.00  0.00    -0.506 OA
ATOM     31  H   UNL     1       9.947  -6.202  24.916  0.00  0.00    +0.292 HD
ENDBRANCH   5  30
BRANCH   7  32
ATOM     32  O   UNL     1       5.534  -5.834  26.422  0.00  0.00    -0.325 OA
BRANCH  32  33
ATOM     33  S   UNL     1       5.427  -5.920  28.049  0.00  0.00    +0.251 S 
ATOM     34  O   UNL     1       4.159  -5.380  28.485  0.00  0.00    -0.108 OA
ATOM     35  O   UNL     1       6.684  -5.485  28.620  0.00  0.00    -0.108 OA
BRANCH  33  36
ATOM     36  O   UNL     1       5.387  -7.510  28.319  0.00  0.00    -0.222 OA
ATOM     37  H   UNL     1       4.571  -7.854  27.902  0.00  0.00    +0.248 HD
ENDBRANCH  33  36
ENDBRANCH  32  33
ENDBRANCH   7  32
BRANCH  11  38
ATOM     38  O   UNL     1       9.933  -0.219  23.404  0.00  0.00    -0.317 OA
BRANCH  38  39
ATOM     39  S   UNL     1      10.587   0.846  24.435  0.00  0.00    +0.252 S 
ATOM     40  O   UNL     1      10.045   2.154  24.146  0.00  0.00    -0.108 OA
ATOM     41  O   UNL     1      12.010   0.613  24.541  0.00  0.00    -0.108 OA
BRANCH  39  42
ATOM     42  O   UNL     1       9.977   0.393  25.857  0.00  0.00    -0.222 OA
ATOM     43  H   UNL     1       9.040   0.674  25.885  0.00  0.00    +0.248 HD
ENDBRANCH  39  42
ENDBRANCH  38  39
ENDBRANCH  11  38
TORSDOF 14
ENDMDL
MODEL 6
REMARK VINA RESULT:      -6.8      2.048      2.858
REMARK  Name = 
REMARK  14 active torsions:
REMARK  status: ('A' for Active; 'I' for Inactive)
REMARK    1  A    between atoms: C_3  and  O_34
REMARK    2  A    between atoms: C_4  and  O_29
REMARK    3  A    between atoms: C_6  and  C_7
REMARK    4  A    between atoms: C_8  and  O_24
REMARK    5  A    between atoms: C_12  and  O_23
REMARK    6  A    between atoms: C_14  and  O_18
REMARK    7  A    between atoms: O_18  and  S_19
REMARK    8  A    between atoms: S_19  and  O_22
REMARK    9  A    between atoms: O_24  and  S_25
REMARK   10  A    between atoms: S_25  and  O_28
REMARK   11  A    between atoms: O_29  and  S_30
REMARK   12  A    between atoms: S_30  and  O_33
REMARK   13  A    between atoms: O_34  and  S_35
REMARK   14  A    between atoms: S_35  and  O_38
REMARK                            x       y       z     vdW  Elec       q    Type
REMARK                         _______ _______ _______ _____ _____    ______ ____
ROOT
ATOM      1  C   UNL     1       6.171  -0.640  24.576  0.00  0.00    +0.184 A 
ATOM      2  O   UNL     1       5.419   0.533  24.654  0.00  0.00    -0.451 OA
ATOM      3  C   UNL     1       5.758   1.603  23.868  0.00  0.00    +0.147 A 
ATOM      4  C   UNL     1       6.915   1.621  23.107  0.00  0.00    +0.109 A 
ATOM      5  C   UNL     1       7.243   2.766  22.374  0.00  0.00    +0.135 A 
ATOM      6  C   UNL     1       6.402   3.880  22.379  0.00  0.00    +0.095 A 
ATOM      7  C   UNL     1       5.208   3.841  23.098  0.00  0.00    +0.166 A 
ATOM      8  C   UNL     1       7.754   0.419  23.084  0.00  0.00    +0.241 A 
ATOM      9  O   UNL     1       8.806   0.416  22.445  0.00  0.00    -0.283 OA
ATOM     10  C   UNL     1       4.896   2.706  23.861  0.00  0.00    +0.096 A 
ATOM     11  C   UNL     1       7.283  -0.780  23.825  0.00  0.00    +0.248 A 
ENDROOT
BRANCH   1  13
ATOM     12  C   UNL     1       5.632  -1.675  26.768  0.00  0.00    +0.015 A 
ATOM     13  C   UNL     1       5.530  -1.695  25.375  0.00  0.00    +0.025 A 
ATOM     14  C   UNL     1       4.974  -2.819  24.745  0.00  0.00    +0.064 A 
ATOM     15  C   UNL     1       4.587  -3.936  25.501  0.00  0.00    +0.204 A 
ATOM     16  C   UNL     1       4.842  -3.963  26.878  0.00  0.00    +0.203 A 
ATOM     17  C   UNL     1       5.300  -2.808  27.514  0.00  0.00    +0.053 A 
BRANCH  15  18
ATOM     18  O   UNL     1       4.020  -5.051  24.930  0.00  0.00    -0.321 OA
BRANCH  18  19
ATOM     19  S   UNL     1       4.814  -5.854  23.748  0.00  0.00    +0.251 S 
ATOM     20  O   UNL     1       6.236  -5.742  23.972  0.00  0.00    -0.108 OA
ATOM     21  O   UNL     1       4.219  -5.540  22.465  0.00  0.00    -0.108 OA
BRANCH  19  22
ATOM     22  O   UNL     1       4.406  -7.388  24.013  0.00  0.00    -0.222 OA
ATOM     23  H   UNL     1       3.608  -7.568  23.473  0.00  0.00    +0.248 HD
ENDBRANCH  19  22
ENDBRANCH  18  19
ENDBRANCH  15  18
BRANCH  16  24
ATOM     24  O   UNL     1       4.630  -5.147  27.547  0.00  0.00    -0.321 OA
BRANCH  24  25
ATOM     25  S   UNL     1       5.897  -5.986  28.159  0.00  0.00    +0.251 S 
ATOM     26  O   UNL     1       6.130  -5.564  29.522  0.00  0.00    -0.108 OA
ATOM     27  O   UNL     1       6.968  -6.023  27.186  0.00  0.00    -0.108 OA
BRANCH  25  28
ATOM     28  O   UNL     1       5.352  -7.497  28.216  0.00  0.00    -0.222 OA
ATOM     29  H   UNL     1       5.392  -7.852  27.305  0.00  0.00    +0.248 HD
ENDBRANCH  25  28
ENDBRANCH  24  25
ENDBRANCH  16  24
ENDBRANCH   1  13
BRANCH   5  30
ATOM     30  O   UNL     1       8.381   2.866  21.619  0.00  0.00    -0.506 OA
ATOM     31  H   UNL     1       8.282   2.290  20.828  0.00  0.00    +0.292 HD
ENDBRANCH   5  30
BRANCH   7  32
ATOM     32  O   UNL     1       4.296   4.867  23.144  0.00  0.00    -0.325 OA
BRANCH  32  33
ATOM     33  S   UNL     1       2.931   4.845  22.248  0.00  0.00    +0.251 S 
ATOM     34  O   UNL     1       2.763   6.119  21.583  0.00  0.00    -0.108 OA
ATOM     35  O   UNL     1       1.873   4.240  23.028  0.00  0.00    -0.108 OA
BRANCH  33  36
ATOM     36  O   UNL     1       3.272   3.755  21.110  0.00  0.00    -0.222 OA
ATOM     37  H   UNL     1       3.603   4.244  20.329  0.00  0.00    +0.248 HD
ENDBRANCH  33  36
ENDBRANCH  32  33
ENDBRANCH   7  32
BRANCH  11  38
ATOM     38  O   UNL     1       7.979  -1.936  23.546  0.00  0.00    -0.317 OA
BRANCH  38  39
ATOM     39  S   UNL     1       9.005  -2.668  24.564  0.00  0.00    +0.252 S 
ATOM     40  O   UNL     1       9.093  -1.878  25.771  0.00  0.00    -0.108 OA
ATOM     41  O   UNL     1      10.181  -3.103  23.844  0.00  0.00    -0.108 OA
BRANCH  39  42
ATOM     42  O   UNL     1       8.221  -4.024  24.951  0.00  0.00    -0.222 OA
ATOM     43  H   UNL     1       8.708  -4.775  24.555  0.00  0.00    +0.248 HD
ENDBRANCH  39  42
ENDBRANCH  38  39
ENDBRANCH  11  38
TORSDOF 14
ENDMDL
MODEL 7
REMARK VINA RESULT:      -6.6      2.335      3.438
REMARK  Name = 
REMARK  14 active torsions:
REMARK  status: ('A' for Active; 'I' for Inactive)
REMARK    1  A    between atoms: C_3  and  O_34
REMARK    2  A    between atoms: C_4  and  O_29
REMARK    3  A    between atoms: C_6  and  C_7
REMARK    4  A    between atoms: C_8  and  O_24
REMARK    5  A    between atoms: C_12  and  O_23
REMARK    6  A    between atoms: C_14  and  O_18
REMARK    7  A    between atoms: O_18  and  S_19
REMARK    8  A    between atoms: S_19  and  O_22
REMARK    9  A    between atoms: O_24  and  S_25
REMARK   10  A    between atoms: S_25  and  O_28
REMARK   11  A    between atoms: O_29  and  S_30
REMARK   12  A    between atoms: S_30  and  O_33
REMARK   13  A    between atoms: O_34  and  S_35
REMARK   14  A    between atoms: S_35  and  O_38
REMARK                            x       y       z     vdW  Elec       q    Type
REMARK                         _______ _______ _______ _____ _____    ______ ____
ROOT
ATOM      1  C   UNL     1       6.646  -0.780  24.490  0.00  0.00    +0.184 A 
ATOM      2  O   UNL     1       5.705   0.186  24.850  0.00  0.00    -0.451 OA
ATOM      3  C   UNL     1       5.667   1.374  24.169  0.00  0.00    +0.147 A 
ATOM      4  C   UNL     1       6.629   1.719  23.233  0.00  0.00    +0.109 A 
ATOM      5  C   UNL     1       6.575   2.973  22.617  0.00  0.00    +0.135 A 
ATOM      6  C   UNL     1       5.546   3.869  22.912  0.00  0.00    +0.095 A 
ATOM      7  C   UNL     1       4.545   3.499  23.810  0.00  0.00    +0.166 A 
ATOM      8  C   UNL     1       7.670   0.739  22.909  0.00  0.00    +0.241 A 
ATOM      9  O   UNL     1       8.557   1.028  22.108  0.00  0.00    -0.283 OA
ATOM     10  C   UNL     1       4.618   2.256  24.455  0.00  0.00    +0.096 A 
ATOM     11  C   UNL     1       7.598  -0.599  23.551  0.00  0.00    +0.248 A 
ENDROOT
BRANCH   1  13
ATOM     12  C   UNL     1       7.225  -2.378  26.300  0.00  0.00    +0.015 A 
ATOM     13  C   UNL     1       6.393  -2.022  25.236  0.00  0.00    +0.025 A 
ATOM     14  C   UNL     1       5.438  -2.942  24.775  0.00  0.00    +0.064 A 
ATOM     15  C   UNL     1       5.366  -4.227  25.332  0.00  0.00    +0.204 A 
ATOM     16  C   UNL     1       6.312  -4.622  26.287  0.00  0.00    +0.203 A 
ATOM     17  C   UNL     1       7.192  -3.677  26.814  0.00  0.00    +0.053 A 
BRANCH  15  18
ATOM     18  O   UNL     1       4.436  -5.155  24.927  0.00  0.00    -0.321 OA
BRANCH  18  19
ATOM     19  S   UNL     1       4.655  -5.971  23.527  0.00  0.00    +0.251 S 
ATOM     20  O   UNL     1       6.043  -5.882  23.140  0.00  0.00    -0.108 OA
ATOM     21  O   UNL     1       3.586  -5.648  22.606  0.00  0.00    -0.108 OA
BRANCH  19  22
ATOM     22  O   UNL     1       4.372  -7.498  23.950  0.00  0.00    -0.222 OA
ATOM     23  H   UNL     1       3.418  -7.665  23.790  0.00  0.00    +0.248 HD
ENDBRANCH  19  22
ENDBRANCH  18  19
ENDBRANCH  15  18
BRANCH  16  24
ATOM     24  O   UNL     1       6.331  -5.946  26.663  0.00  0.00    -0.321 OA
BRANCH  24  25
ATOM     25  S   UNL     1       5.286  -6.495  27.799  0.00  0.00    +0.251 S 
ATOM     26  O   UNL     1       4.616  -5.369  28.410  0.00  0.00    -0.108 OA
ATOM     27  O   UNL     1       5.932  -7.515  28.598  0.00  0.00    -0.108 OA
BRANCH  25  28
ATOM     28  O   UNL     1       4.186  -7.293  26.941  0.00  0.00    -0.222 OA
ATOM     29  H   UNL     1       3.757  -7.932  27.545  0.00  0.00    +0.248 HD
ENDBRANCH  25  28
ENDBRANCH  24  25
ENDBRANCH  16  24
ENDBRANCH   1  13
BRANCH   5  30
ATOM     30  O   UNL     1       7.503   3.392  21.702  0.00  0.00    -0.506 OA
ATOM     31  H   UNL     1       7.030   3.721  20.905  0.00  0.00    +0.292 HD
ENDBRANCH   5  30
BRANCH   7  32
ATOM     32  O   UNL     1       3.473   4.291  24.145  0.00  0.00    -0.325 OA
BRANCH  32  33
ATOM     33  S   UNL     1       2.094   4.286  23.270  0.00  0.00    +0.251 S 
ATOM     34  O   UNL     1       1.588   2.936  23.165  0.00  0.00    -0.108 OA
ATOM     35  O   UNL     1       2.278   5.131  22.109  0.00  0.00    -0.108 OA
BRANCH  33  36
ATOM     36  O   UNL     1       1.074   5.106  24.212  0.00  0.00    -0.222 OA
ATOM     37  H   UNL     1       0.804   4.507  24.938  0.00  0.00    +0.248 HD
ENDBRANCH  33  36
ENDBRANCH  32  33
ENDBRANCH   7  32
BRANCH  11  38
ATOM     38  O   UNL     1       8.443  -1.542  23.006  0.00  0.00    -0.317 OA
BRANCH  38  39
ATOM     39  S   UNL     1       9.957  -1.827  23.506  0.00  0.00    +0.252 S 
ATOM     40  O   UNL     1      10.237  -0.964  24.631  0.00  0.00    -0.108 OA
ATOM     41  O   UNL     1      10.841  -1.910  22.364  0.00  0.00    -0.108 OA
BRANCH  39  42
ATOM     42  O   UNL     1       9.870  -3.330  24.083  0.00  0.00    -0.222 OA
ATOM     43  H   UNL     1      10.104  -3.944  23.358  0.00  0.00    +0.248 HD
ENDBRANCH  39  42
ENDBRANCH  38  39
ENDBRANCH  11  38
TORSDOF 14
ENDMDL
MODEL 8
REMARK VINA RESULT:      -6.6      2.367      8.785
REMARK  Name = 
REMARK  14 active torsions:
REMARK  status: ('A' for Active; 'I' for Inactive)
REMARK    1  A    between atoms: C_3  and  O_34
REMARK    2  A    between atoms: C_4  and  O_29
REMARK    3  A    between atoms: C_6  and  C_7
REMARK    4  A    between atoms: C_8  and  O_24
REMARK    5  A    between atoms: C_12  and  O_23
REMARK    6  A    between atoms: C_14  and  O_18
REMARK    7  A    between atoms: O_18  and  S_19
REMARK    8  A    between atoms: S_19  and  O_22
REMARK    9  A    between atoms: O_24  and  S_25
REMARK   10  A    between atoms: S_25  and  O_28
REMARK   11  A    between atoms: O_29  and  S_30
REMARK   12  A    between atoms: S_30  and  O_33
REMARK   13  A    between atoms: O_34  and  S_35
REMARK   14  A    between atoms: S_35  and  O_38
REMARK                            x       y       z     vdW  Elec       q    Type
REMARK                         _______ _______ _______ _____ _____    ______ ____
ROOT
ATOM      1  C   UNL     1       7.454  -0.443  23.241  0.00  0.00    +0.184 A 
ATOM      2  O   UNL     1       6.364  -1.285  23.463  0.00  0.00    -0.451 OA
ATOM      3  C   UNL     1       6.582  -2.570  23.887  0.00  0.00    +0.147 A 
ATOM      4  C   UNL     1       7.852  -3.118  23.956  0.00  0.00    +0.109 A 
ATOM      5  C   UNL     1       8.008  -4.455  24.333  0.00  0.00    +0.135 A 
ATOM      6  C   UNL     1       6.901  -5.236  24.668  0.00  0.00    +0.095 A 
ATOM      7  C   UNL     1       5.627  -4.668  24.655  0.00  0.00    +0.166 A 
ATOM      8  C   UNL     1       9.000  -2.261  23.644  0.00  0.00    +0.241 A 
ATOM      9  O   UNL     1      10.138  -2.727  23.663  0.00  0.00    -0.283 OA
ATOM     10  C   UNL     1       5.466  -3.337  24.243  0.00  0.00    +0.096 A 
ATOM     11  C   UNL     1       8.743  -0.830  23.336  0.00  0.00    +0.248 A 
ENDROOT
BRANCH   1  13
ATOM     12  C   UNL     1       7.555   1.658  21.921  0.00  0.00    +0.015 A 
ATOM     13  C   UNL     1       6.980   0.920  22.958  0.00  0.00    +0.025 A 
ATOM     14  C   UNL     1       6.084   1.553  23.834  0.00  0.00    +0.064 A 
ATOM     15  C   UNL     1       5.822   2.925  23.710  0.00  0.00    +0.204 A 
ATOM     16  C   UNL     1       6.528   3.683  22.766  0.00  0.00    +0.203 A 
ATOM     17  C   UNL     1       7.339   3.035  21.834  0.00  0.00    +0.053 A 
BRANCH  15  18
ATOM     18  O   UNL     1       4.938   3.584  24.532  0.00  0.00    -0.321 OA
BRANCH  18  19
ATOM     19  S   UNL     1       3.334   3.515  24.226  0.00  0.00    +0.251 S 
ATOM     20  O   UNL     1       2.825   4.856  24.064  0.00  0.00    -0.108 OA
ATOM     21  O   UNL     1       2.710   2.568  25.125  0.00  0.00    -0.108 OA
BRANCH  19  22
ATOM     22  O   UNL     1       3.270   2.800  22.785  0.00  0.00    -0.222 OA
ATOM     23  H   UNL     1       2.905   3.458  22.156  0.00  0.00    +0.248 HD
ENDBRANCH  19  22
ENDBRANCH  18  19
ENDBRANCH  15  18
BRANCH  16  24
ATOM     24  O   UNL     1       6.389   5.051  22.808  0.00  0.00    -0.321 OA
BRANCH  24  25
ATOM     25  S   UNL     1       7.492   5.968  23.599  0.00  0.00    +0.251 S 
ATOM     26  O   UNL     1       6.810   6.803  24.562  0.00  0.00    -0.108 OA
ATOM     27  O   UNL     1       8.431   6.525  22.648  0.00  0.00    -0.108 OA
BRANCH  25  28
ATOM     28  O   UNL     1       8.349   4.891  24.428  0.00  0.00    -0.222 OA
ATOM     29  H   UNL     1       7.714   4.252  24.812  0.00  0.00    +0.248 HD
ENDBRANCH  25  28
ENDBRANCH  24  25
ENDBRANCH  16  24
ENDBRANCH   1  13
BRANCH   5  30
ATOM     30  O   UNL     1       9.229  -5.071  24.400  0.00  0.00    -0.506 OA
ATOM     31  H   UNL     1       9.363  -5.590  23.575  0.00  0.00    +0.292 HD
ENDBRANCH   5  30
BRANCH   7  32
ATOM     32  O   UNL     1       4.476  -5.336  24.998  0.00  0.00    -0.325 OA
BRANCH  32  33
ATOM     33  S   UNL     1       3.733  -6.355  23.961  0.00  0.00    +0.251 S 
ATOM     34  O   UNL     1       4.028  -7.723  24.326  0.00  0.00    -0.108 OA
ATOM     35  O   UNL     1       3.919  -5.863  22.613  0.00  0.00    -0.108 OA
BRANCH  33  36
ATOM     36  O   UNL     1       2.172  -6.104  24.275  0.00  0.00    -0.222 OA
ATOM     37  H   UNL     1       1.761  -6.980  24.422  0.00  0.00    +0.248 HD
ENDBRANCH  33  36
ENDBRANCH  32  33
ENDBRANCH   7  32
BRANCH  11  38
ATOM     38  O   UNL     1       9.871  -0.038  23.313  0.00  0.00    -0.317 OA
BRANCH  38  39
ATOM     39  S   UNL     1      10.390   0.870  24.550  0.00  0.00    +0.252 S 
ATOM     40  O   UNL     1       9.759   2.167  24.460  0.00  0.00    -0.108 OA
ATOM     41  O   UNL     1      11.820   0.722  24.699  0.00  0.00    -0.108 OA
BRANCH  39  42
ATOM     42  O   UNL     1       9.752   0.131  25.834  0.00  0.00    -0.222 OA
ATOM     43  H   UNL     1       9.703   0.783  26.562  0.00  0.00    +0.248 HD
ENDBRANCH  39  42
ENDBRANCH  38  39
ENDBRANCH  11  38
TORSDOF 14
ENDMDL
MODEL 9
REMARK VINA RESULT:      -6.6      2.125      2.984
REMARK  Name = 
REMARK  14 active torsions:
REMARK  status: ('A' for Active; 'I' for Inactive)
REMARK    1  A    between atoms: C_3  and  O_34
REMARK    2  A    between atoms: C_4  and  O_29
REMARK    3  A    between atoms: C_6  and  C_7
REMARK    4  A    between atoms: C_8  and  O_24
REMARK    5  A    between atoms: C_12  and  O_23
REMARK    6  A    between atoms: C_14  and  O_18
REMARK    7  A    between atoms: O_18  and  S_19
REMARK    8  A    between atoms: S_19  and  O_22
REMARK    9  A    between atoms: O_24  and  S_25
REMARK   10  A    between atoms: S_25  and  O_28
REMARK   11  A    between atoms: O_29  and  S_30
REMARK   12  A    between atoms: S_30  and  O_33
REMARK   13  A    between atoms: O_34  and  S_35
REMARK   14  A    between atoms: S_35  and  O_38
REMARK                            x       y       z     vdW  Elec       q    Type
REMARK                         _______ _______ _______ _____ _____    ______ ____
ROOT
ATOM      1  C   UNL     1       7.891  -2.143  24.594  0.00  0.00    +0.184 A 
ATOM      2  O   UNL     1       8.069  -0.924  25.249  0.00  0.00    -0.451 OA
ATOM      3  C   UNL     1       8.364   0.196  24.516  0.00  0.00    +0.147 A 
ATOM      4  C   UNL     1       8.645   0.137  23.161  0.00  0.00    +0.109 A 
ATOM      5  C   UNL     1       9.003   1.304  22.478  0.00  0.00    +0.135 A 
ATOM      6  C   UNL     1       9.052   2.531  23.140  0.00  0.00    +0.095 A 
ATOM      7  C   UNL     1       8.712   2.601  24.491  0.00  0.00    +0.166 A 
ATOM      8  C   UNL     1       8.539  -1.158  22.481  0.00  0.00    +0.241 A 
ATOM      9  O   UNL     1       8.817  -1.249  21.286  0.00  0.00    -0.283 OA
ATOM     10  C   UNL     1       8.387   1.426  25.184  0.00  0.00    +0.096 A 
ATOM     11  C   UNL     1       8.070  -2.327  23.269  0.00  0.00    +0.248 A 
ENDROOT
BRANCH   1  13
ATOM     12  C   UNL     1       8.274  -4.192  25.943  0.00  0.00    +0.015 A 
ATOM     13  C   UNL     1       7.422  -3.157  25.551  0.00  0.00    +0.025 A 
ATOM     14  C   UNL     1       6.073  -3.199  25.932  0.00  0.00    +0.064 A 
ATOM     15  C   UNL     1       5.571  -4.300  26.641  0.00  0.00    +0.204 A 
ATOM     16  C   UNL     1       6.400  -5.402  26.888  0.00  0.00    +0.203 A 
ATOM     17  C   UNL     1       7.762  -5.314  26.599  0.00  0.00    +0.053 A 
BRANCH  15  18
ATOM     18  O   UNL     1       4.260  -4.377  27.052  0.00  0.00    -0.321 OA
BRANCH  18  19
ATOM     19  S   UNL     1       3.095  -4.795  25.985  0.00  0.00    +0.251 S 
ATOM     20  O   UNL     1       2.756  -3.646  25.179  0.00  0.00    -0.108 OA
ATOM     21  O   UNL     1       2.080  -5.578  26.658  0.00  0.00    -0.108 OA
BRANCH  19  22
ATOM     22  O   UNL     1       3.843  -5.850  25.026  0.00  0.00    -0.222 OA
ATOM     23  H   UNL     1       4.490  -6.332  25.583  0.00  0.00    +0.248 HD
ENDBRANCH  19  22
ENDBRANCH  18  19
ENDBRANCH  15  18
BRANCH  16  24
ATOM     24  O   UNL     1       5.821  -6.537  27.408  0.00  0.00    -0.321 OA
BRANCH  24  25
ATOM     25  S   UNL     1       5.763  -6.763  29.030  0.00  0.00    +0.251 S 
ATOM     26  O   UNL     1       6.915  -7.534  29.442  0.00  0.00    -0.108 OA
ATOM     27  O   UNL     1       4.421  -7.145  29.417  0.00  0.00    -0.108 OA
BRANCH  25  28
ATOM     28  O   UNL     1       5.947  -5.281  29.621  0.00  0.00    -0.222 OA
ATOM     29  H   UNL     1       5.087  -4.823  29.524  0.00  0.00    +0.248 HD
ENDBRANCH  25  28
ENDBRANCH  24  25
ENDBRANCH  16  24
ENDBRANCH   1  13
BRANCH   5  30
ATOM     30  O   UNL     1       9.318   1.318  21.145  0.00  0.00    -0.506 OA
ATOM     31  H   UNL     1       9.623   0.420  20.887  0.00  0.00    +0.292 HD
ENDBRANCH   5  30
BRANCH   7  32
ATOM     32  O   UNL     1       8.695   3.760  25.228  0.00  0.00    -0.325 OA
BRANCH  32  33
ATOM     33  S   UNL     1       7.798   5.049  24.782  0.00  0.00    +0.251 S 
ATOM     34  O   UNL     1       6.473   4.614  24.403  0.00  0.00    -0.108 OA
ATOM     35  O   UNL     1       8.601   5.900  23.929  0.00  0.00    -0.108 OA
BRANCH  33  36
ATOM     36  O   UNL     1       7.654   5.874  26.160  0.00  0.00    -0.222 OA
ATOM     37  H   UNL     1       8.121   6.726  26.039  0.00  0.00    +0.248 HD
ENDBRANCH  33  36
ENDBRANCH  32  33
ENDBRANCH   7  32
BRANCH  11  38
ATOM     38  O   UNL     1       7.747  -3.434  22.514  0.00  0.00    -0.317 OA
BRANCH  38  39
ATOM     39  S   UNL     1       6.239  -3.904  22.158  0.00  0.00    +0.252 S 
ATOM     40  O   UNL     1       5.867  -4.970  23.060  0.00  0.00    -0.108 OA
ATOM     41  O   UNL     1       6.090  -4.025  20.725  0.00  0.00    -0.108 OA
BRANCH  39  42
ATOM     42  O   UNL     1       5.354  -2.619  22.567  0.00  0.00    -0.222 OA
ATOM     43  H   UNL     1       5.892  -2.064  23.167  0.00  0.00    +0.248 HD
ENDBRANCH  39  42
ENDBRANCH  38  39
ENDBRANCH  11  38
TORSDOF 14
ENDMDL
