MODEL 1
REMARK VINA RESULT:      -7.3      0.000      0.000
REMARK  Name = 
REMARK  21 active torsions:
REMARK  status: ('A' for Active; 'I' for Inactive)
REMARK    1  A    between atoms: C_1  and  C_2
REMARK    2  A    between atoms: C_3  and  O_61
REMARK    3  A    between atoms: C_5  and  O_60
REMARK    4  A    between atoms: C_6  and  O_47
REMARK    5  A    between atoms: C_8  and  O_11
REMARK    6  A    between atoms: O_11  and  C_12
REMARK    7  A    between atoms: C_12  and  C_13
REMARK    8  A    between atoms: C_14  and  O_46
REMARK    9  A    between atoms: C_16  and  O_45
REMARK   10  A    between atoms: C_18  and  O_44
REMARK   11  A    between atoms: C_19  and  O_22
REMARK   12  A    between atoms: O_22  and  C_23
REMARK   13  A    between atoms: C_24  and  C_36
REMARK   14  A    between atoms: C_28  and  O_35
REMARK   15  A    between atoms: C_30  and  O_34
REMARK   16  A    between atoms: C_38  and  O_43
REMARK   17  A    between atoms: C_39  and  O_42
REMARK   18  A    between atoms: O_47  and  C_48
REMARK   19  A    between atoms: C_50  and  O_59
REMARK   20  A    between atoms: C_51  and  O_58
REMARK   21  A    between atoms: C_53  and  O_57
REMARK                            x       y       z     vdW  Elec       q    Type
REMARK                         _______ _______ _______ _____ _____    ______ ____
ROOT
ATOM      1  C   UNL     1       4.324  -0.485  26.420  0.00  0.00    +0.179 C 
ATOM      2  O   UNL     1       5.198  -0.053  25.367  0.00  0.00    -0.331 OA
ATOM      3  C   UNL     1       6.136   1.024  25.628  0.00  0.00    +0.340 C 
ATOM      4  C   UNL     1       5.404   2.249  26.287  0.00  0.00    +0.214 C 
ATOM      5  C   UNL     1       4.596   1.751  27.506  0.00  0.00    +0.180 C 
ATOM      6  C   UNL     1       3.569   0.714  27.037  0.00  0.00    +0.177 C 
ENDROOT
BRANCH   6   7
ATOM      7  O   UNL     1       2.734   0.342  28.143  0.00  0.00    -0.386 OA
ATOM      8  H   UNL     1       3.054  -0.520  28.470  0.00  0.00    +0.210 HD
ENDBRANCH   6   7
BRANCH   5   9
ATOM      9  O   UNL     1       3.912   2.800  28.206  0.00  0.00    -0.386 OA
ATOM     10  H   UNL     1       3.478   3.335  27.509  0.00  0.00    +0.210 HD
ENDBRANCH   5   9
BRANCH   4  11
ATOM     11  O   UNL     1       4.500   2.909  25.373  0.00  0.00    -0.383 OA
ATOM     12  H   UNL     1       5.018   3.245  24.623  0.00  0.00    +0.210 HD
ENDBRANCH   4  11
BRANCH   3  13
ATOM     13  O   UNL     1       6.693   1.313  24.323  0.00  0.00    -0.453 OA
BRANCH  13  14
ATOM     14  C   UNL     1       7.862   2.026  24.101  0.00  0.00    +0.214 A 
ATOM     15  C   UNL     1       7.909   3.484  23.699  0.00  0.00    +0.238 A 
ATOM     16  O   UNL     1       6.873   4.110  23.519  0.00  0.00    -0.283 OA
ATOM     17  C   UNL     1       9.269   4.148  23.631  0.00  0.00    +0.109 A 
ATOM     18  C   UNL     1      10.344   3.292  23.551  0.00  0.00    +0.147 A 
ATOM     19  C   UNL     1      11.687   3.727  23.517  0.00  0.00    +0.092 A 
ATOM     20  C   UNL     1      11.927   5.067  23.584  0.00  0.00    +0.124 A 
ATOM     21  C   UNL     1      10.871   5.972  23.648  0.00  0.00    +0.091 A 
ATOM     22  O   UNL     1      10.169   1.962  23.522  0.00  0.00    -0.451 OA
ATOM     23  C   UNL     1       9.537   5.510  23.670  0.00  0.00    +0.135 A 
ATOM     24  C   UNL     1       9.086   1.460  24.230  0.00  0.00    +0.181 A 
BRANCH  24  25
ATOM     25  C   UNL     1       9.580   0.209  24.836  0.00  0.00    +0.025 A 
ATOM     26  C   UNL     1       9.433  -0.009  26.199  0.00  0.00    +0.015 A 
ATOM     27  C   UNL     1       8.953  -1.251  26.626  0.00  0.00    +0.050 A 
ATOM     28  C   UNL     1       8.671  -2.253  25.695  0.00  0.00    +0.158 A 
ATOM     29  C   UNL     1       9.046  -2.109  24.369  0.00  0.00    +0.159 A 
ATOM     30  C   UNL     1       9.556  -0.898  23.943  0.00  0.00    +0.060 A 
BRANCH  29  31
ATOM     31  O   UNL     1       8.795  -3.075  23.436  0.00  0.00    -0.503 OA
ATOM     32  H   UNL     1       7.836  -3.036  23.265  0.00  0.00    +0.292 HD
ENDBRANCH  29  31
BRANCH  28  33
ATOM     33  O   UNL     1       7.934  -3.347  26.055  0.00  0.00    -0.503 OA
ATOM     34  H   UNL     1       7.151  -3.354  25.472  0.00  0.00    +0.292 HD
ENDBRANCH  28  33
ENDBRANCH  24  25
BRANCH  23  35
ATOM     35  O   UNL     1       8.522   6.413  23.756  0.00  0.00    -0.506 OA
ATOM     36  H   UNL     1       7.863   6.096  24.395  0.00  0.00    +0.292 HD
ENDBRANCH  23  35
BRANCH  20  37
ATOM     37  O   UNL     1      13.206   5.547  23.592  0.00  0.00    -0.507 OA
ATOM     38  H   UNL     1      13.183   6.520  23.680  0.00  0.00    +0.292 HD
ENDBRANCH  20  37
ENDBRANCH  13  14
ENDBRANCH   3  13
BRANCH   1  39
ATOM     39  C   UNL     1       4.997  -1.360  27.514  0.00  0.00    +0.197 C 
BRANCH  39  40
ATOM     40  O   UNL     1       5.402  -2.672  27.163  0.00  0.00    -0.346 OA
BRANCH  40  44
ATOM     41  C   UNL     1       5.703  -5.683  30.232  0.00  0.00    +0.041 C 
ATOM     42  C   UNL     1       5.760  -5.899  28.724  0.00  0.00    +0.149 C 
ATOM     43  O   UNL     1       5.965  -4.672  28.026  0.00  0.00    -0.343 OA
ATOM     44  C   UNL     1       4.829  -3.818  27.781  0.00  0.00    +0.282 C 
ATOM     45  C   UNL     1       3.720  -4.615  26.977  0.00  0.00    +0.208 C 
ATOM     46  C   UNL     1       3.361  -5.780  27.927  0.00  0.00    +0.179 C 
ATOM     47  C   UNL     1       4.566  -6.695  28.185  0.00  0.00    +0.174 C 
BRANCH  47  48
ATOM     48  O   UNL     1       4.945  -7.347  26.964  0.00  0.00    -0.387 OA
ATOM     49  H   UNL     1       4.240  -7.151  26.307  0.00  0.00    +0.210 HD
ENDBRANCH  47  48
BRANCH  46  50
ATOM     50  O   UNL     1       2.228  -6.518  27.480  0.00  0.00    -0.386 OA
ATOM     51  H   UNL     1       1.474  -6.275  28.050  0.00  0.00    +0.210 HD
ENDBRANCH  46  50
BRANCH  45  52
ATOM     52  O   UNL     1       4.217  -5.005  25.676  0.00  0.00    -0.338 OA
BRANCH  52  53
ATOM     53  C   UNL     1       3.933  -4.238  24.494  0.00  0.00    +0.282 C 
ATOM     54  O   UNL     1       3.118  -5.051  23.629  0.00  0.00    -0.346 OA
ATOM     55  C   UNL     1       3.785  -6.227  23.167  0.00  0.00    +0.197 C 
ATOM     56  C   UNL     1       5.266  -6.087  22.729  0.00  0.00    +0.171 C 
ATOM     57  C   UNL     1       6.018  -4.840  23.222  0.00  0.00    +0.178 C 
ATOM     58  C   UNL     1       5.058  -3.715  23.580  0.00  0.00    +0.201 C 
BRANCH  58  59
ATOM     59  O   UNL     1       5.743  -2.560  24.058  0.00  0.00    -0.384 OA
ATOM     60  H   UNL     1       6.644  -2.574  23.694  0.00  0.00    +0.210 HD
ENDBRANCH  58  59
BRANCH  57  61
ATOM     61  O   UNL     1       6.850  -5.152  24.351  0.00  0.00    -0.386 OA
ATOM     62  H   UNL     1       7.773  -5.049  24.056  0.00  0.00    +0.210 HD
ENDBRANCH  57  61
BRANCH  56  63
ATOM     63  O   UNL     1       5.313  -6.087  21.290  0.00  0.00    -0.387 OA
ATOM     64  H   UNL     1       4.573  -5.536  20.975  0.00  0.00    +0.210 HD
ENDBRANCH  56  63
ENDBRANCH  52  53
ENDBRANCH  45  52
ENDBRANCH  40  44
ENDBRANCH  39  40
ENDBRANCH   1  39
TORSDOF 20
ENDMDL
MODEL 2
REMARK VINA RESULT:      -6.7      1.862      3.283
REMARK  Name = 
REMARK  21 active torsions:
REMARK  status: ('A' for Active; 'I' for Inactive)
REMARK    1  A    between atoms: C_1  and  C_2
REMARK    2  A    between atoms: C_3  and  O_61
REMARK    3  A    between atoms: C_5  and  O_60
REMARK    4  A    between atoms: C_6  and  O_47
REMARK    5  A    between atoms: C_8  and  O_11
REMARK    6  A    between atoms: O_11  and  C_12
REMARK    7  A    between atoms: C_12  and  C_13
REMARK    8  A    between atoms: C_14  and  O_46
REMARK    9  A    between atoms: C_16  and  O_45
REMARK   10  A    between atoms: C_18  and  O_44
REMARK   11  A    between atoms: C_19  and  O_22
REMARK   12  A    between atoms: O_22  and  C_23
REMARK   13  A    between atoms: C_24  and  C_36
REMARK   14  A    between atoms: C_28  and  O_35
REMARK   15  A    between atoms: C_30  and  O_34
REMARK   16  A    between atoms: C_38  and  O_43
REMARK   17  A    between atoms: C_39  and  O_42
REMARK   18  A    between atoms: O_47  and  C_48
REMARK   19  A    between atoms: C_50  and  O_59
REMARK   20  A    between atoms: C_51  and  O_58
REMARK   21  A    between atoms: C_53  and  O_57
REMARK                            x       y       z     vdW  Elec       q    Type
REMARK                         _______ _______ _______ _____ _____    ______ ____
ROOT
ATOM      1  C   UNL     1       4.458   0.956  25.781  0.00  0.00    +0.179 C 
ATOM      2  O   UNL     1       5.176   2.016  25.133  0.00  0.00    -0.331 OA
ATOM      3  C   UNL     1       6.229   2.701  25.860  0.00  0.00    +0.340 C 
ATOM      4  C   UNL     1       5.719   3.154  27.276  0.00  0.00    +0.214 C 
ATOM      5  C   UNL     1       5.088   1.939  27.992  0.00  0.00    +0.180 C 
ATOM      6  C   UNL     1       3.916   1.416  27.154  0.00  0.00    +0.177 C 
ENDROOT
BRANCH   6   7
ATOM      7  O   UNL     1       3.250   0.369  27.874  0.00  0.00    -0.386 OA
ATOM      8  H   UNL     1       2.314   0.632  27.965  0.00  0.00    +0.210 HD
ENDBRANCH   6   7
BRANCH   5   9
ATOM      9  O   UNL     1       4.618   2.236  29.315  0.00  0.00    -0.386 OA
ATOM     10  H   UNL     1       3.833   1.664  29.445  0.00  0.00    +0.210 HD
ENDBRANCH   5   9
BRANCH   4  11
ATOM     11  O   UNL     1       4.732   4.207  27.198  0.00  0.00    -0.383 OA
ATOM     12  H   UNL     1       3.888   3.858  27.528  0.00  0.00    +0.210 HD
ENDBRANCH   4  11
BRANCH   3  13
ATOM     13  O   UNL     1       6.581   3.803  24.989  0.00  0.00    -0.453 OA
BRANCH  13  14
ATOM     14  C   UNL     1       7.869   4.093  24.561  0.00  0.00    +0.214 A 
ATOM     15  C   UNL     1       8.637   5.338  24.948  0.00  0.00    +0.238 A 
ATOM     16  O   UNL     1       8.119   6.187  25.661  0.00  0.00    -0.283 OA
ATOM     17  C   UNL     1      10.082   5.436  24.506  0.00  0.00    +0.109 A 
ATOM     18  C   UNL     1      10.446   4.594  23.478  0.00  0.00    +0.147 A 
ATOM     19  C   UNL     1      11.757   4.518  22.960  0.00  0.00    +0.092 A 
ATOM     20  C   UNL     1      12.714   5.310  23.521  0.00  0.00    +0.124 A 
ATOM     21  C   UNL     1      12.389   6.191  24.550  0.00  0.00    +0.091 A 
ATOM     22  O   UNL     1       9.555   3.764  22.915  0.00  0.00    -0.451 OA
ATOM     23  C   UNL     1      11.067   6.254  25.042  0.00  0.00    +0.135 A 
ATOM     24  C   UNL     1       8.559   3.263  23.742  0.00  0.00    +0.181 A 
BRANCH  24  25
ATOM     25  C   UNL     1       8.384   1.862  23.315  0.00  0.00    +0.025 A 
ATOM     26  C   UNL     1       8.253   1.557  21.968  0.00  0.00    +0.015 A 
ATOM     27  C   UNL     1       9.003   0.496  21.450  0.00  0.00    +0.050 A 
ATOM     28  C   UNL     1       9.830  -0.255  22.287  0.00  0.00    +0.158 A 
ATOM     29  C   UNL     1       9.771  -0.096  23.663  0.00  0.00    +0.159 A 
ATOM     30  C   UNL     1       9.003   0.926  24.189  0.00  0.00    +0.060 A 
BRANCH  29  31
ATOM     31  O   UNL     1      10.558  -0.823  24.510  0.00  0.00    -0.503 OA
ATOM     32  H   UNL     1      10.782  -1.641  24.029  0.00  0.00    +0.292 HD
ENDBRANCH  29  31
BRANCH  28  33
ATOM     33  O   UNL     1      10.780  -1.085  21.762  0.00  0.00    -0.503 OA
ATOM     34  H   UNL     1      11.088  -1.649  22.496  0.00  0.00    +0.292 HD
ENDBRANCH  28  33
ENDBRANCH  24  25
BRANCH  23  35
ATOM     35  O   UNL     1      10.779   7.105  26.065  0.00  0.00    -0.506 OA
ATOM     36  H   UNL     1      10.749   6.607  26.898  0.00  0.00    +0.292 HD
ENDBRANCH  23  35
BRANCH  20  37
ATOM     37  O   UNL     1      14.008   5.256  23.085  0.00  0.00    -0.507 OA
ATOM     38  H   UNL     1      14.053   4.695  22.286  0.00  0.00    +0.292 HD
ENDBRANCH  20  37
ENDBRANCH  13  14
ENDBRANCH   3  13
BRANCH   1  39
ATOM     39  C   UNL     1       5.230  -0.388  25.893  0.00  0.00    +0.197 C 
BRANCH  39  40
ATOM     40  O   UNL     1       4.544  -1.510  26.421  0.00  0.00    -0.346 OA
BRANCH  40  44
ATOM     41  C   UNL     1       1.463  -4.456  25.788  0.00  0.00    +0.041 C 
ATOM     42  C   UNL     1       2.953  -4.712  25.982  0.00  0.00    +0.149 C 
ATOM     43  O   UNL     1       3.621  -3.559  26.494  0.00  0.00    -0.343 OA
ATOM     44  C   UNL     1       4.000  -2.515  25.575  0.00  0.00    +0.282 C 
ATOM     45  C   UNL     1       4.933  -3.110  24.441  0.00  0.00    +0.208 C 
ATOM     46  C   UNL     1       4.034  -4.167  23.760  0.00  0.00    +0.179 C 
ATOM     47  C   UNL     1       3.633  -5.284  24.733  0.00  0.00    +0.174 C 
BRANCH  47  48
ATOM     48  O   UNL     1       4.799  -6.022  25.125  0.00  0.00    -0.387 OA
ATOM     49  H   UNL     1       4.850  -5.972  26.106  0.00  0.00    +0.210 HD
ENDBRANCH  47  48
BRANCH  46  50
ATOM     50  O   UNL     1       4.615  -4.692  22.569  0.00  0.00    -0.386 OA
ATOM     51  H   UNL     1       5.563  -4.841  22.744  0.00  0.00    +0.210 HD
ENDBRANCH  46  50
BRANCH  45  52
ATOM     52  O   UNL     1       6.165  -3.614  25.006  0.00  0.00    -0.338 OA
BRANCH  52  53
ATOM     53  C   UNL     1       7.440  -3.032  24.689  0.00  0.00    +0.282 C 
ATOM     54  O   UNL     1       8.037  -3.827  23.647  0.00  0.00    -0.346 OA
ATOM     55  C   UNL     1       8.323  -5.166  24.054  0.00  0.00    +0.197 C 
ATOM     56  C   UNL     1       8.930  -5.375  25.465  0.00  0.00    +0.171 C 
ATOM     57  C   UNL     1       8.775  -4.216  26.463  0.00  0.00    +0.178 C 
ATOM     58  C   UNL     1       8.550  -2.891  25.747  0.00  0.00    +0.201 C 
BRANCH  58  59
ATOM     59  O   UNL     1       8.385  -1.811  26.663  0.00  0.00    -0.384 OA
ATOM     60  H   UNL     1       8.600  -2.137  27.553  0.00  0.00    +0.210 HD
ENDBRANCH  58  59
BRANCH  57  61
ATOM     61  O   UNL     1       7.698  -4.465  27.381  0.00  0.00    -0.386 OA
ATOM     62  H   UNL     1       7.041  -5.002  26.901  0.00  0.00    +0.210 HD
ENDBRANCH  57  61
BRANCH  56  63
ATOM     63  O   UNL     1      10.338  -5.640  25.316  0.00  0.00    -0.387 OA
ATOM     64  H   UNL     1      10.809  -4.801  25.471  0.00  0.00    +0.210 HD
ENDBRANCH  56  63
ENDBRANCH  52  53
ENDBRANCH  45  52
ENDBRANCH  40  44
ENDBRANCH  39  40
ENDBRANCH   1  39
TORSDOF 20
ENDMDL
MODEL 3
REMARK VINA RESULT:      -6.7      2.073      8.710
REMARK  Name = 
REMARK  21 active torsions:
REMARK  status: ('A' for Active; 'I' for Inactive)
REMARK    1  A    between atoms: C_1  and  C_2
REMARK    2  A    between atoms: C_3  and  O_61
REMARK    3  A    between atoms: C_5  and  O_60
REMARK    4  A    between atoms: C_6  and  O_47
REMARK    5  A    between atoms: C_8  and  O_11
REMARK    6  A    between atoms: O_11  and  C_12
REMARK    7  A    between atoms: C_12  and  C_13
REMARK    8  A    between atoms: C_14  and  O_46
REMARK    9  A    between atoms: C_16  and  O_45
REMARK   10  A    between atoms: C_18  and  O_44
REMARK   11  A    between atoms: C_19  and  O_22
REMARK   12  A    between atoms: O_22  and  C_23
REMARK   13  A    between atoms: C_24  and  C_36
REMARK   14  A    between atoms: C_28  and  O_35
REMARK   15  A    between atoms: C_30  and  O_34
REMARK   16  A    between atoms: C_38  and  O_43
REMARK   17  A    between atoms: C_39  and  O_42
REMARK   18  A    between atoms: O_47  and  C_48
REMARK   19  A    between atoms: C_50  and  O_59
REMARK   20  A    between atoms: C_51  and  O_58
REMARK   21  A    between atoms: C_53  and  O_57
REMARK                            x       y       z     vdW  Elec       q    Type
REMARK                         _______ _______ _______ _____ _____    ______ ____
ROOT
ATOM      1  C   UNL     1       5.704   1.699  28.098  0.00  0.00    +0.179 C 
ATOM      2  O   UNL     1       5.568   0.294  28.354  0.00  0.00    -0.331 OA
ATOM      3  C   UNL     1       5.298  -0.601  27.244  0.00  0.00    +0.340 C 
ATOM      4  C   UNL     1       4.096  -0.069  26.383  0.00  0.00    +0.214 C 
ATOM      5  C   UNL     1       4.363   1.405  26.008  0.00  0.00    +0.180 C 
ATOM      6  C   UNL     1       4.498   2.233  27.292  0.00  0.00    +0.177 C 
ENDROOT
BRANCH   6   7
ATOM      7  O   UNL     1       4.621   3.620  26.949  0.00  0.00    -0.386 OA
ATOM      8  H   UNL     1       3.940   3.813  26.276  0.00  0.00    +0.210 HD
ENDBRANCH   6   7
BRANCH   5   9
ATOM      9  O   UNL     1       3.336   1.982  25.189  0.00  0.00    -0.386 OA
ATOM     10  H   UNL     1       2.604   2.196  25.803  0.00  0.00    +0.210 HD
ENDBRANCH   5   9
BRANCH   4  11
ATOM     11  O   UNL     1       2.836  -0.145  27.087  0.00  0.00    -0.383 OA
ATOM     12  H   UNL     1       2.722   0.674  27.596  0.00  0.00    +0.210 HD
ENDBRANCH   4  11
BRANCH   3  13
ATOM     13  O   UNL     1       5.035  -1.871  27.887  0.00  0.00    -0.453 OA
BRANCH  13  14
ATOM     14  C   UNL     1       4.678  -3.036  27.224  0.00  0.00    +0.214 A 
ATOM     15  C   UNL     1       3.295  -3.650  27.262  0.00  0.00    +0.238 A 
ATOM     16  O   UNL     1       2.409  -3.136  27.931  0.00  0.00    -0.283 OA
ATOM     17  C   UNL     1       3.036  -4.848  26.371  0.00  0.00    +0.109 A 
ATOM     18  C   UNL     1       4.158  -5.504  25.918  0.00  0.00    +0.147 A 
ATOM     19  C   UNL     1       4.113  -6.616  25.049  0.00  0.00    +0.092 A 
ATOM     20  C   UNL     1       2.892  -7.049  24.627  0.00  0.00    +0.124 A 
ATOM     21  C   UNL     1       1.728  -6.428  25.074  0.00  0.00    +0.091 A 
ATOM     22  O   UNL     1       5.387  -5.097  26.270  0.00  0.00    -0.451 OA
ATOM     23  C   UNL     1       1.801  -5.324  25.950  0.00  0.00    +0.135 A 
ATOM     24  C   UNL     1       5.560  -3.735  26.469  0.00  0.00    +0.181 A 
BRANCH  24  25
ATOM     25  C   UNL     1       6.891  -3.438  25.907  0.00  0.00    +0.025 A 
ATOM     26  C   UNL     1       8.000  -3.378  26.739  0.00  0.00    +0.015 A 
ATOM     27  C   UNL     1       9.165  -4.043  26.344  0.00  0.00    +0.050 A 
ATOM     28  C   UNL     1       9.211  -4.713  25.120  0.00  0.00    +0.158 A 
ATOM     29  C   UNL     1       8.188  -4.565  24.197  0.00  0.00    +0.159 A 
ATOM     30  C   UNL     1       7.047  -3.878  24.563  0.00  0.00    +0.060 A 
BRANCH  29  31
ATOM     31  O   UNL     1       8.208  -5.197  22.986  0.00  0.00    -0.503 OA
ATOM     32  H   UNL     1       7.291  -5.486  22.822  0.00  0.00    +0.292 HD
ENDBRANCH  29  31
BRANCH  28  33
ATOM     33  O   UNL     1      10.215  -5.602  24.853  0.00  0.00    -0.503 OA
ATOM     34  H   UNL     1      10.077  -6.359  25.453  0.00  0.00    +0.292 HD
ENDBRANCH  28  33
ENDBRANCH  24  25
BRANCH  23  35
ATOM     35  O   UNL     1       0.651  -4.719  26.354  0.00  0.00    -0.506 OA
ATOM     36  H   UNL     1       0.775  -4.355  27.246  0.00  0.00    +0.292 HD
ENDBRANCH  23  35
BRANCH  20  37
ATOM     37  O   UNL     1       2.786  -8.098  23.758  0.00  0.00    -0.507 OA
ATOM     38  H   UNL     1       2.650  -7.752  22.853  0.00  0.00    +0.292 HD
ENDBRANCH  20  37
ENDBRANCH  13  14
ENDBRANCH   3  13
BRANCH   1  39
ATOM     39  C   UNL     1       7.053   2.122  27.453  0.00  0.00    +0.197 C 
BRANCH  39  40
ATOM     40  O   UNL     1       7.115   2.225  26.041  0.00  0.00    -0.346 OA
BRANCH  40  44
ATOM     41  C   UNL     1       5.866   6.074  24.559  0.00  0.00    +0.041 C 
ATOM     42  C   UNL     1       6.380   4.897  23.739  0.00  0.00    +0.149 C 
ATOM     43  O   UNL     1       6.381   3.689  24.499  0.00  0.00    -0.343 OA
ATOM     44  C   UNL     1       7.480   3.441  25.399  0.00  0.00    +0.282 C 
ATOM     45  C   UNL     1       8.848   3.472  24.599  0.00  0.00    +0.208 C 
ATOM     46  C   UNL     1       8.893   4.908  24.030  0.00  0.00    +0.179 C 
ATOM     47  C   UNL     1       7.729   5.175  23.067  0.00  0.00    +0.174 C 
BRANCH  47  48
ATOM     48  O   UNL     1       7.862   4.339  21.908  0.00  0.00    -0.387 OA
ATOM     49  H   UNL     1       6.955   4.199  21.554  0.00  0.00    +0.210 HD
ENDBRANCH  47  48
BRANCH  46  50
ATOM     50  O   UNL     1      10.149   5.219  23.434  0.00  0.00    -0.386 OA
ATOM     51  H   UNL     1      10.755   5.495  24.148  0.00  0.00    +0.210 HD
ENDBRANCH  46  50
BRANCH  45  52
ATOM     52  O   UNL     1       8.887   2.413  23.615  0.00  0.00    -0.338 OA
BRANCH  52  53
ATOM     53  C   UNL     1      10.058   1.602  23.420  0.00  0.00    +0.282 C 
ATOM     54  O   UNL     1      10.138   1.281  22.018  0.00  0.00    -0.346 OA
ATOM     55  C   UNL     1       9.045   0.485  21.559  0.00  0.00    +0.197 C 
ATOM     56  C   UNL     1       8.568  -0.676  22.469  0.00  0.00    +0.171 C 
ATOM     57  C   UNL     1       8.994  -0.616  23.945  0.00  0.00    +0.178 C 
ATOM     58  C   UNL     1      10.232   0.248  24.133  0.00  0.00    +0.201 C 
BRANCH  58  59
ATOM     59  O   UNL     1      10.625   0.328  25.501  0.00  0.00    -0.384 OA
ATOM     60  H   UNL     1      10.721  -0.579  25.839  0.00  0.00    +0.210 HD
ENDBRANCH  58  59
BRANCH  57  61
ATOM     61  O   UNL     1       7.925  -0.127  24.771  0.00  0.00    -0.386 OA
ATOM     62  H   UNL     1       7.725  -0.830  25.415  0.00  0.00    +0.210 HD
ENDBRANCH  57  61
BRANCH  56  63
ATOM     63  O   UNL     1       9.062  -1.912  21.920  0.00  0.00    -0.387 OA
ATOM     64  H   UNL     1       9.825  -2.186  22.461  0.00  0.00    +0.210 HD
ENDBRANCH  56  63
ENDBRANCH  52  53
ENDBRANCH  45  52
ENDBRANCH  40  44
ENDBRANCH  39  40
ENDBRANCH   1  39
TORSDOF 20
ENDMDL
MODEL 4
REMARK VINA RESULT:      -6.7      2.295      4.619
REMARK  Name = 
REMARK  21 active torsions:
REMARK  status: ('A' for Active; 'I' for Inactive)
REMARK    1  A    between atoms: C_1  and  C_2
REMARK    2  A    between atoms: C_3  and  O_61
REMARK    3  A    between atoms: C_5  and  O_60
REMARK    4  A    between atoms: C_6  and  O_47
REMARK    5  A    between atoms: C_8  and  O_11
REMARK    6  A    between atoms: O_11  and  C_12
REMARK    7  A    between atoms: C_12  and  C_13
REMARK    8  A    between atoms: C_14  and  O_46
REMARK    9  A    between atoms: C_16  and  O_45
REMARK   10  A    between atoms: C_18  and  O_44
REMARK   11  A    between atoms: C_19  and  O_22
REMARK   12  A    between atoms: O_22  and  C_23
REMARK   13  A    between atoms: C_24  and  C_36
REMARK   14  A    between atoms: C_28  and  O_35
REMARK   15  A    between atoms: C_30  and  O_34
REMARK   16  A    between atoms: C_38  and  O_43
REMARK   17  A    between atoms: C_39  and  O_42
REMARK   18  A    between atoms: O_47  and  C_48
REMARK   19  A    between atoms: C_50  and  O_59
REMARK   20  A    between atoms: C_51  and  O_58
REMARK   21  A    between atoms: C_53  and  O_57
REMARK                            x       y       z     vdW  Elec       q    Type
REMARK                         _______ _______ _______ _____ _____    ______ ____
ROOT
ATOM      1  C   UNL     1       8.572  -2.990  25.331  0.00  0.00    +0.179 C 
ATOM      2  O   UNL     1       7.849  -1.816  24.935  0.00  0.00    -0.331 OA
ATOM      3  C   UNL     1       6.579  -1.969  24.249  0.00  0.00    +0.340 C 
ATOM      4  C   UNL     1       6.715  -2.975  23.049  0.00  0.00    +0.214 C 
ATOM      5  C   UNL     1       7.363  -4.280  23.563  0.00  0.00    +0.180 C 
ATOM      6  C   UNL     1       8.747  -3.959  24.140  0.00  0.00    +0.177 C 
ENDROOT
BRANCH   6   7
ATOM      7  O   UNL     1       9.403  -5.182  24.503  0.00  0.00    -0.386 OA
ATOM      8  H   UNL     1       9.752  -5.066  25.407  0.00  0.00    +0.210 HD
ENDBRANCH   6   7
BRANCH   5   9
ATOM      9  O   UNL     1       7.504  -5.285  22.550  0.00  0.00    -0.386 OA
ATOM     10  H   UNL     1       7.923  -6.049  22.999  0.00  0.00    +0.210 HD
ENDBRANCH   5   9
BRANCH   4  11
ATOM     11  O   UNL     1       7.526  -2.448  21.976  0.00  0.00    -0.383 OA
ATOM     12  H   UNL     1       8.055  -1.712  22.326  0.00  0.00    +0.210 HD
ENDBRANCH   4  11
BRANCH   3  13
ATOM     13  O   UNL     1       6.248  -0.619  23.841  0.00  0.00    -0.453 OA
BRANCH  13  14
ATOM     14  C   UNL     1       6.396   0.508  24.637  0.00  0.00    +0.214 A 
ATOM     15  C   UNL     1       5.426   0.920  25.722  0.00  0.00    +0.238 A 
ATOM     16  O   UNL     1       4.416   0.262  25.930  0.00  0.00    -0.283 OA
ATOM     17  C   UNL     1       5.807   2.101  26.591  0.00  0.00    +0.109 A 
ATOM     18  C   UNL     1       6.783   2.925  26.077  0.00  0.00    +0.147 A 
ATOM     19  C   UNL     1       7.292   4.051  26.760  0.00  0.00    +0.092 A 
ATOM     20  C   UNL     1       6.798   4.323  28.001  0.00  0.00    +0.124 A 
ATOM     21  C   UNL     1       5.797   3.529  28.554  0.00  0.00    +0.091 A 
ATOM     22  O   UNL     1       7.333   2.682  24.877  0.00  0.00    -0.451 OA
ATOM     23  C   UNL     1       5.299   2.414  27.844  0.00  0.00    +0.135 A 
ATOM     24  C   UNL     1       7.449   1.351  24.503  0.00  0.00    +0.181 A 
BRANCH  24  25
ATOM     25  C   UNL     1       8.753   1.265  23.818  0.00  0.00    +0.025 A 
ATOM     26  C   UNL     1       9.873   0.825  24.508  0.00  0.00    +0.015 A 
ATOM     27  C   UNL     1      10.700  -0.125  23.899  0.00  0.00    +0.050 A 
ATOM     28  C   UNL     1      10.414  -0.582  22.610  0.00  0.00    +0.158 A 
ATOM     29  C   UNL     1       9.439   0.036  21.843  0.00  0.00    +0.159 A 
ATOM     30  C   UNL     1       8.641   1.003  22.424  0.00  0.00    +0.060 A 
BRANCH  29  31
ATOM     31  O   UNL     1       9.144  -0.378  20.576  0.00  0.00    -0.503 OA
ATOM     32  H   UNL     1       8.373   0.149  20.297  0.00  0.00    +0.292 HD
ENDBRANCH  29  31
BRANCH  28  33
ATOM     33  O   UNL     1      11.021  -1.705  22.122  0.00  0.00    -0.503 OA
ATOM     34  H   UNL     1      11.159  -1.550  21.168  0.00  0.00    +0.292 HD
ENDBRANCH  28  33
ENDBRANCH  24  25
BRANCH  23  35
ATOM     35  O   UNL     1       4.337   1.639  28.415  0.00  0.00    -0.506 OA
ATOM     36  H   UNL     1       3.640   1.460  27.764  0.00  0.00    +0.292 HD
ENDBRANCH  23  35
BRANCH  20  37
ATOM     37  O   UNL     1       7.276   5.379  28.725  0.00  0.00    -0.507 OA
ATOM     38  H   UNL     1       6.708   6.158  28.568  0.00  0.00    +0.292 HD
ENDBRANCH  20  37
ENDBRANCH  13  14
ENDBRANCH   3  13
BRANCH   1  39
ATOM     39  C   UNL     1       8.005  -3.719  26.582  0.00  0.00    +0.197 C 
BRANCH  39  40
ATOM     40  O   UNL     1       7.013  -4.711  26.383  0.00  0.00    -0.346 OA
BRANCH  40  44
ATOM     41  C   UNL     1       5.838  -6.410  30.166  0.00  0.00    +0.041 C 
ATOM     42  C   UNL     1       5.350  -6.822  28.782  0.00  0.00    +0.149 C 
ATOM     43  O   UNL     1       6.182  -6.290  27.752  0.00  0.00    -0.343 OA
ATOM     44  C   UNL     1       5.976  -4.927  27.332  0.00  0.00    +0.282 C 
ATOM     45  C   UNL     1       4.479  -4.733  26.848  0.00  0.00    +0.208 C 
ATOM     46  C   UNL     1       3.652  -5.071  28.108  0.00  0.00    +0.179 C 
ATOM     47  C   UNL     1       3.863  -6.524  28.555  0.00  0.00    +0.174 C 
BRANCH  47  48
ATOM     48  O   UNL     1       3.349  -7.414  27.555  0.00  0.00    -0.387 OA
ATOM     49  H   UNL     1       2.391  -7.529  27.742  0.00  0.00    +0.210 HD
ENDBRANCH  47  48
BRANCH  46  50
ATOM     50  O   UNL     1       2.269  -4.767  27.951  0.00  0.00    -0.386 OA
ATOM     51  H   UNL     1       2.125  -3.864  28.292  0.00  0.00    +0.210 HD
ENDBRANCH  46  50
BRANCH  45  52
ATOM     52  O   UNL     1       4.208  -5.555  25.689  0.00  0.00    -0.338 OA
BRANCH  52  53
ATOM     53  C   UNL     1       3.939  -4.982  24.399  0.00  0.00    +0.282 C 
ATOM     54  O   UNL     1       2.725  -4.216  24.505  0.00  0.00    -0.346 OA
ATOM     55  C   UNL     1       1.580  -5.013  24.812  0.00  0.00    +0.197 C 
ATOM     56  C   UNL     1       1.433  -6.372  24.080  0.00  0.00    +0.171 C 
ATOM     57  C   UNL     1       2.703  -6.950  23.434  0.00  0.00    +0.178 C 
ATOM     58  C   UNL     1       3.729  -5.862  23.151  0.00  0.00    +0.201 C 
BRANCH  58  59
ATOM     59  O   UNL     1       4.919  -6.389  22.571  0.00  0.00    -0.384 OA
ATOM     60  H   UNL     1       4.985  -7.326  22.820  0.00  0.00    +0.210 HD
ENDBRANCH  58  59
BRANCH  57  61
ATOM     61  O   UNL     1       3.286  -7.969  24.263  0.00  0.00    -0.386 OA
ATOM     62  H   UNL     1       2.546  -8.453  24.673  0.00  0.00    +0.210 HD
ENDBRANCH  57  61
BRANCH  56  63
ATOM     63  O   UNL     1       0.444  -6.224  23.045  0.00  0.00    -0.387 OA
ATOM     64  H   UNL     1       0.043  -7.100  22.897  0.00  0.00    +0.210 HD
ENDBRANCH  56  63
ENDBRANCH  52  53
ENDBRANCH  45  52
ENDBRANCH  40  44
ENDBRANCH  39  40
ENDBRANCH   1  39
TORSDOF 20
ENDMDL
MODEL 5
REMARK VINA RESULT:      -6.7      1.919      3.500
REMARK  Name = 
REMARK  21 active torsions:
REMARK  status: ('A' for Active; 'I' for Inactive)
REMARK    1  A    between atoms: C_1  and  C_2
REMARK    2  A    between atoms: C_3  and  O_61
REMARK    3  A    between atoms: C_5  and  O_60
REMARK    4  A    between atoms: C_6  and  O_47
REMARK    5  A    between atoms: C_8  and  O_11
REMARK    6  A    between atoms: O_11  and  C_12
REMARK    7  A    between atoms: C_12  and  C_13
REMARK    8  A    between atoms: C_14  and  O_46
REMARK    9  A    between atoms: C_16  and  O_45
REMARK   10  A    between atoms: C_18  and  O_44
REMARK   11  A    between atoms: C_19  and  O_22
REMARK   12  A    between atoms: O_22  and  C_23
REMARK   13  A    between atoms: C_24  and  C_36
REMARK   14  A    between atoms: C_28  and  O_35
REMARK   15  A    between atoms: C_30  and  O_34
REMARK   16  A    between atoms: C_38  and  O_43
REMARK   17  A    between atoms: C_39  and  O_42
REMARK   18  A    between atoms: O_47  and  C_48
REMARK   19  A    between atoms: C_50  and  O_59
REMARK   20  A    between atoms: C_51  and  O_58
REMARK   21  A    between atoms: C_53  and  O_57
REMARK                            x       y       z     vdW  Elec       q    Type
REMARK                         _______ _______ _______ _____ _____    ______ ____
ROOT
ATOM      1  C   UNL     1       3.520  -1.955  27.610  0.00  0.00    +0.179 C 
ATOM      2  O   UNL     1       3.740  -1.144  26.448  0.00  0.00    -0.331 OA
ATOM      3  C   UNL     1       4.780  -0.132  26.482  0.00  0.00    +0.340 C 
ATOM      4  C   UNL     1       4.645   0.759  27.769  0.00  0.00    +0.214 C 
ATOM      5  C   UNL     1       4.562  -0.162  29.007  0.00  0.00    +0.180 C 
ATOM      6  C   UNL     1       3.340  -1.078  28.870  0.00  0.00    +0.177 C 
ENDROOT
BRANCH   6   7
ATOM      7  O   UNL     1       3.187  -1.845  30.072  0.00  0.00    -0.386 OA
ATOM      8  H   UNL     1       2.440  -2.458  29.930  0.00  0.00    +0.210 HD
ENDBRANCH   6   7
BRANCH   5   9
ATOM      9  O   UNL     1       4.469   0.554  30.247  0.00  0.00    -0.386 OA
ATOM     10  H   UNL     1       4.064  -0.074  30.880  0.00  0.00    +0.210 HD
ENDBRANCH   5   9
BRANCH   4  11
ATOM     11  O   UNL     1       3.469   1.599  27.739  0.00  0.00    -0.383 OA
ATOM     12  H   UNL     1       3.602   2.331  28.363  0.00  0.00    +0.210 HD
ENDBRANCH   4  11
BRANCH   3  13
ATOM     13  O   UNL     1       4.585   0.598  25.247  0.00  0.00    -0.453 OA
BRANCH  13  14
ATOM     14  C   UNL     1       5.451   1.562  24.751  0.00  0.00    +0.214 A 
ATOM     15  C   UNL     1       5.233   3.054  24.878  0.00  0.00    +0.238 A 
ATOM     16  O   UNL     1       4.227   3.486  25.423  0.00  0.00    -0.283 OA
ATOM     17  C   UNL     1       6.344   3.967  24.403  0.00  0.00    +0.109 A 
ATOM     18  C   UNL     1       7.260   3.393  23.550  0.00  0.00    +0.147 A 
ATOM     19  C   UNL     1       8.382   4.078  23.036  0.00  0.00    +0.092 A 
ATOM     20  C   UNL     1       8.573   5.372  23.419  0.00  0.00    +0.124 A 
ATOM     21  C   UNL     1       7.662   6.001  24.264  0.00  0.00    +0.091 A 
ATOM     22  O   UNL     1       7.145   2.111  23.172  0.00  0.00    -0.451 OA
ATOM     23  C   UNL     1       6.542   5.295  24.756  0.00  0.00    +0.135 A 
ATOM     24  C   UNL     1       6.592   1.235  24.096  0.00  0.00    +0.181 A 
BRANCH  24  25
ATOM     25  C   UNL     1       7.372  -0.008  23.949  0.00  0.00    +0.025 A 
ATOM     26  C   UNL     1       7.076  -0.899  22.926  0.00  0.00    +0.015 A 
ATOM     27  C   UNL     1       8.131  -1.415  22.168  0.00  0.00    +0.050 A 
ATOM     28  C   UNL     1       9.449  -1.066  22.468  0.00  0.00    +0.158 A 
ATOM     29  C   UNL     1       9.748  -0.373  23.631  0.00  0.00    +0.159 A 
ATOM     30  C   UNL     1       8.713   0.110  24.409  0.00  0.00    +0.060 A 
BRANCH  29  31
ATOM     31  O   UNL     1      11.027  -0.027  23.959  0.00  0.00    -0.503 OA
ATOM     32  H   UNL     1      11.166  -0.354  24.867  0.00  0.00    +0.292 HD
ENDBRANCH  29  31
BRANCH  28  33
ATOM     33  O   UNL     1      10.454  -1.313  21.574  0.00  0.00    -0.503 OA
ATOM     34  H   UNL     1      10.579  -2.281  21.564  0.00  0.00    +0.292 HD
ENDBRANCH  28  33
ENDBRANCH  24  25
BRANCH  23  35
ATOM     35  O   UNL     1       5.679   5.923  25.600  0.00  0.00    -0.506 OA
ATOM     36  H   UNL     1       4.779   5.597  25.441  0.00  0.00    +0.292 HD
ENDBRANCH  23  35
BRANCH  20  37
ATOM     37  O   UNL     1       9.659   6.076  22.982  0.00  0.00    -0.507 OA
ATOM     38  H   UNL     1      10.449   5.789  23.482  0.00  0.00    +0.292 HD
ENDBRANCH  20  37
ENDBRANCH  13  14
ENDBRANCH   3  13
BRANCH   1  39
ATOM     39  C   UNL     1       4.575  -3.073  27.840  0.00  0.00    +0.197 C 
BRANCH  39  40
ATOM     40  O   UNL     1       4.185  -4.416  27.607  0.00  0.00    -0.346 OA
BRANCH  40  44
ATOM     41  C   UNL     1       1.713  -7.161  25.388  0.00  0.00    +0.041 C 
ATOM     42  C   UNL     1       3.232  -7.048  25.339  0.00  0.00    +0.149 C 
ATOM     43  O   UNL     1       3.736  -6.280  26.431  0.00  0.00    -0.343 OA
ATOM     44  C   UNL     1       3.704  -4.842  26.338  0.00  0.00    +0.282 C 
ATOM     45  C   UNL     1       4.497  -4.368  25.050  0.00  0.00    +0.208 C 
ATOM     46  C   UNL     1       3.719  -5.030  23.891  0.00  0.00    +0.179 C 
ATOM     47  C   UNL     1       3.755  -6.562  23.982  0.00  0.00    +0.174 C 
BRANCH  47  48
ATOM     48  O   UNL     1       5.102  -7.022  23.803  0.00  0.00    -0.387 OA
ATOM     49  H   UNL     1       5.214  -7.207  22.843  0.00  0.00    +0.210 HD
ENDBRANCH  47  48
BRANCH  46  50
ATOM     50  O   UNL     1       4.148  -4.571  22.612  0.00  0.00    -0.386 OA
ATOM     51  H   UNL     1       3.351  -4.415  22.072  0.00  0.00    +0.210 HD
ENDBRANCH  46  50
BRANCH  45  52
ATOM     52  O   UNL     1       5.893  -4.733  25.148  0.00  0.00    -0.338 OA
BRANCH  52  53
ATOM     53  C   UNL     1       6.943  -3.823  24.780  0.00  0.00    +0.282 C 
ATOM     54  O   UNL     1       7.709  -4.442  23.729  0.00  0.00    -0.346 OA
ATOM     55  C   UNL     1       8.371  -5.638  24.142  0.00  0.00    +0.197 C 
ATOM     56  C   UNL     1       9.054  -5.637  25.534  0.00  0.00    +0.171 C 
ATOM     57  C   UNL     1       8.609  -4.546  26.522  0.00  0.00    +0.178 C 
ATOM     58  C   UNL     1       8.000  -3.354  25.797  0.00  0.00    +0.201 C 
BRANCH  58  59
ATOM     59  O   UNL     1       7.564  -2.344  26.704  0.00  0.00    -0.384 OA
ATOM     60  H   UNL     1       8.339  -2.034  27.203  0.00  0.00    +0.210 HD
ENDBRANCH  58  59
BRANCH  57  61
ATOM     61  O   UNL     1       7.673  -5.068  27.479  0.00  0.00    -0.386 OA
ATOM     62  H   UNL     1       7.380  -4.314  28.023  0.00  0.00    +0.210 HD
ENDBRANCH  57  61
BRANCH  56  63
ATOM     63  O   UNL     1      10.474  -5.499  25.340  0.00  0.00    -0.387 OA
ATOM     64  H   UNL     1      10.914  -5.994  26.056  0.00  0.00    +0.210 HD
ENDBRANCH  56  63
ENDBRANCH  52  53
ENDBRANCH  45  52
ENDBRANCH  40  44
ENDBRANCH  39  40
ENDBRANCH   1  39
TORSDOF 20
ENDMDL
MODEL 6
REMARK VINA RESULT:      -6.5      2.019      8.307
REMARK  Name = 
REMARK  21 active torsions:
REMARK  status: ('A' for Active; 'I' for Inactive)
REMARK    1  A    between atoms: C_1  and  C_2
REMARK    2  A    between atoms: C_3  and  O_61
REMARK    3  A    between atoms: C_5  and  O_60
REMARK    4  A    between atoms: C_6  and  O_47
REMARK    5  A    between atoms: C_8  and  O_11
REMARK    6  A    between atoms: O_11  and  C_12
REMARK    7  A    between atoms: C_12  and  C_13
REMARK    8  A    between atoms: C_14  and  O_46
REMARK    9  A    between atoms: C_16  and  O_45
REMARK   10  A    between atoms: C_18  and  O_44
REMARK   11  A    between atoms: C_19  and  O_22
REMARK   12  A    between atoms: O_22  and  C_23
REMARK   13  A    between atoms: C_24  and  C_36
REMARK   14  A    between atoms: C_28  and  O_35
REMARK   15  A    between atoms: C_30  and  O_34
REMARK   16  A    between atoms: C_38  and  O_43
REMARK   17  A    between atoms: C_39  and  O_42
REMARK   18  A    between atoms: O_47  and  C_48
REMARK   19  A    between atoms: C_50  and  O_59
REMARK   20  A    between atoms: C_51  and  O_58
REMARK   21  A    between atoms: C_53  and  O_57
REMARK                            x       y       z     vdW  Elec       q    Type
REMARK                         _______ _______ _______ _____ _____    ______ ____
ROOT
ATOM      1  C   UNL     1       5.982   1.565  28.236  0.00  0.00    +0.179 C 
ATOM      2  O   UNL     1       5.604   0.457  27.407  0.00  0.00    -0.331 OA
ATOM      3  C   UNL     1       4.846   0.709  26.195  0.00  0.00    +0.340 C 
ATOM      4  C   UNL     1       3.609   1.631  26.497  0.00  0.00    +0.214 C 
ATOM      5  C   UNL     1       4.094   2.884  27.260  0.00  0.00    +0.180 C 
ATOM      6  C   UNL     1       4.757   2.446  28.572  0.00  0.00    +0.177 C 
ENDROOT
BRANCH   6   7
ATOM      7  O   UNL     1       5.096   3.609  29.341  0.00  0.00    -0.386 OA
ATOM      8  H   UNL     1       5.121   3.337  30.279  0.00  0.00    +0.210 HD
ENDBRANCH   6   7
BRANCH   5   9
ATOM      9  O   UNL     1       3.044   3.814  27.558  0.00  0.00    -0.386 OA
ATOM     10  H   UNL     1       2.584   3.966  26.706  0.00  0.00    +0.210 HD
ENDBRANCH   5   9
BRANCH   4  11
ATOM     11  O   UNL     1       2.605   0.965  27.294  0.00  0.00    -0.383 OA
ATOM     12  H   UNL     1       2.244   0.228  26.775  0.00  0.00    +0.210 HD
ENDBRANCH   4  11
BRANCH   3  13
ATOM     13  O   UNL     1       4.485  -0.616  25.737  0.00  0.00    -0.453 OA
BRANCH  13  14
ATOM     14  C   UNL     1       4.856  -1.798  26.362  0.00  0.00    +0.214 A 
ATOM     15  C   UNL     1       4.174  -2.369  27.586  0.00  0.00    +0.238 A 
ATOM     16  O   UNL     1       3.246  -1.769  28.111  0.00  0.00    -0.283 OA
ATOM     17  C   UNL     1       4.616  -3.738  28.060  0.00  0.00    +0.109 A 
ATOM     18  C   UNL     1       5.840  -4.161  27.593  0.00  0.00    +0.147 A 
ATOM     19  C   UNL     1       6.397  -5.422  27.897  0.00  0.00    +0.092 A 
ATOM     20  C   UNL     1       5.673  -6.269  28.682  0.00  0.00    +0.124 A 
ATOM     21  C   UNL     1       4.437  -5.877  29.193  0.00  0.00    +0.091 A 
ATOM     22  O   UNL     1       6.578  -3.385  26.785  0.00  0.00    -0.451 OA
ATOM     23  C   UNL     1       3.908  -4.606  28.881  0.00  0.00    +0.135 A 
ATOM     24  C   UNL     1       5.886  -2.556  25.913  0.00  0.00    +0.181 A 
BRANCH  24  25
ATOM     25  C   UNL     1       6.666  -2.592  24.661  0.00  0.00    +0.025 A 
ATOM     26  C   UNL     1       7.930  -3.165  24.645  0.00  0.00    +0.015 A 
ATOM     27  C   UNL     1       8.246  -4.049  23.608  0.00  0.00    +0.050 A 
ATOM     28  C   UNL     1       7.318  -4.310  22.599  0.00  0.00    +0.158 A 
ATOM     29  C   UNL     1       6.160  -3.556  22.494  0.00  0.00    +0.159 A 
ATOM     30  C   UNL     1       5.854  -2.652  23.494  0.00  0.00    +0.060 A 
BRANCH  29  31
ATOM     31  O   UNL     1       5.238  -3.778  21.512  0.00  0.00    -0.503 OA
ATOM     32  H   UNL     1       5.414  -4.678  21.180  0.00  0.00    +0.292 HD
ENDBRANCH  29  31
BRANCH  28  33
ATOM     33  O   UNL     1       7.488  -5.375  21.758  0.00  0.00    -0.503 OA
ATOM     34  H   UNL     1       7.623  -5.002  20.867  0.00  0.00    +0.292 HD
ENDBRANCH  28  33
ENDBRANCH  24  25
BRANCH  23  35
ATOM     35  O   UNL     1       2.689  -4.255  29.372  0.00  0.00    -0.506 OA
ATOM     36  H   UNL     1       2.764  -4.076  30.323  0.00  0.00    +0.292 HD
ENDBRANCH  23  35
BRANCH  20  37
ATOM     37  O   UNL     1       6.143  -7.516  28.982  0.00  0.00    -0.507 OA
ATOM     38  H   UNL     1       7.113  -7.532  28.853  0.00  0.00    +0.292 HD
ENDBRANCH  20  37
ENDBRANCH  13  14
ENDBRANCH   3  13
BRANCH   1  39
ATOM     39  C   UNL     1       7.165   2.415  27.695  0.00  0.00    +0.197 C 
BRANCH  39  40
ATOM     40  O   UNL     1       7.481   2.319  26.317  0.00  0.00    -0.346 OA
BRANCH  40  44
ATOM     41  C   UNL     1       5.447   5.584  24.373  0.00  0.00    +0.041 C 
ATOM     42  C   UNL     1       6.172   4.424  23.702  0.00  0.00    +0.149 C 
ATOM     43  O   UNL     1       6.435   3.366  24.623  0.00  0.00    -0.343 OA
ATOM     44  C   UNL     1       7.579   3.475  25.493  0.00  0.00    +0.282 C 
ATOM     45  C   UNL     1       8.896   3.658  24.631  0.00  0.00    +0.208 C 
ATOM     46  C   UNL     1       8.637   4.975  23.864  0.00  0.00    +0.179 C 
ATOM     47  C   UNL     1       7.424   4.861  22.932  0.00  0.00    +0.174 C 
BRANCH  47  48
ATOM     48  O   UNL     1       7.700   3.907  21.897  0.00  0.00    -0.387 OA
ATOM     49  H   UNL     1       8.499   4.226  21.422  0.00  0.00    +0.210 HD
ENDBRANCH  47  48
BRANCH  46  50
ATOM     50  O   UNL     1       9.791   5.437  23.169  0.00  0.00    -0.386 OA
ATOM     51  H   UNL     1      10.015   4.771  22.493  0.00  0.00    +0.210 HD
ENDBRANCH  46  50
BRANCH  45  52
ATOM     52  O   UNL     1       9.129   2.494  23.804  0.00  0.00    -0.338 OA
BRANCH  52  53
ATOM     53  C   UNL     1       8.449   1.250  24.037  0.00  0.00    +0.282 C 
ATOM     54  O   UNL     1       9.418   0.309  24.537  0.00  0.00    -0.346 OA
ATOM     55  C   UNL     1      10.450   0.008  23.597  0.00  0.00    +0.197 C 
ATOM     56  C   UNL     1      10.035  -0.206  22.119  0.00  0.00    +0.171 C 
ATOM     57  C   UNL     1       8.660   0.338  21.701  0.00  0.00    +0.178 C 
ATOM     58  C   UNL     1       7.735   0.494  22.900  0.00  0.00    +0.201 C 
BRANCH  58  59
ATOM     59  O   UNL     1       6.462   1.018  22.528  0.00  0.00    -0.384 OA
ATOM     60  H   UNL     1       5.779   0.494  22.979  0.00  0.00    +0.210 HD
ENDBRANCH  58  59
BRANCH  57  61
ATOM     61  O   UNL     1       8.788   1.594  21.014  0.00  0.00    -0.386 OA
ATOM     62  H   UNL     1       7.888   1.952  20.915  0.00  0.00    +0.210 HD
ENDBRANCH  57  61
BRANCH  56  63
ATOM     63  O   UNL     1      10.049  -1.620  21.846  0.00  0.00    -0.387 OA
ATOM     64  H   UNL     1      10.982  -1.901  21.810  0.00  0.00    +0.210 HD
ENDBRANCH  56  63
ENDBRANCH  52  53
ENDBRANCH  45  52
ENDBRANCH  40  44
ENDBRANCH  39  40
ENDBRANCH   1  39
TORSDOF 20
ENDMDL
MODEL 7
REMARK VINA RESULT:      -6.5      2.224      4.090
REMARK  Name = 
REMARK  21 active torsions:
REMARK  status: ('A' for Active; 'I' for Inactive)
REMARK    1  A    between atoms: C_1  and  C_2
REMARK    2  A    between atoms: C_3  and  O_61
REMARK    3  A    between atoms: C_5  and  O_60
REMARK    4  A    between atoms: C_6  and  O_47
REMARK    5  A    between atoms: C_8  and  O_11
REMARK    6  A    between atoms: O_11  and  C_12
REMARK    7  A    between atoms: C_12  and  C_13
REMARK    8  A    between atoms: C_14  and  O_46
REMARK    9  A    between atoms: C_16  and  O_45
REMARK   10  A    between atoms: C_18  and  O_44
REMARK   11  A    between atoms: C_19  and  O_22
REMARK   12  A    between atoms: O_22  and  C_23
REMARK   13  A    between atoms: C_24  and  C_36
REMARK   14  A    between atoms: C_28  and  O_35
REMARK   15  A    between atoms: C_30  and  O_34
REMARK   16  A    between atoms: C_38  and  O_43
REMARK   17  A    between atoms: C_39  and  O_42
REMARK   18  A    between atoms: O_47  and  C_48
REMARK   19  A    between atoms: C_50  and  O_59
REMARK   20  A    between atoms: C_51  and  O_58
REMARK   21  A    between atoms: C_53  and  O_57
REMARK                            x       y       z     vdW  Elec       q    Type
REMARK                         _______ _______ _______ _____ _____    ______ ____
ROOT
ATOM      1  C   UNL     1       4.478  -0.049  26.742  0.00  0.00    +0.179 C 
ATOM      2  O   UNL     1       5.541   0.909  26.630  0.00  0.00    -0.331 OA
ATOM      3  C   UNL     1       6.460   1.073  27.741  0.00  0.00    +0.340 C 
ATOM      4  C   UNL     1       5.672   1.264  29.088  0.00  0.00    +0.214 C 
ATOM      5  C   UNL     1       4.642   0.121  29.231  0.00  0.00    +0.180 C 
ATOM      6  C   UNL     1       3.673   0.168  28.043  0.00  0.00    +0.177 C 
ENDROOT
BRANCH   6   7
ATOM      7  O   UNL     1       2.642  -0.810  28.236  0.00  0.00    -0.386 OA
ATOM      8  H   UNL     1       2.703  -1.444  27.495  0.00  0.00    +0.210 HD
ENDBRANCH   6   7
BRANCH   5   9
ATOM      9  O   UNL     1       3.888   0.181  30.449  0.00  0.00    -0.386 OA
ATOM     10  H   UNL     1       3.155  -0.459  30.332  0.00  0.00    +0.210 HD
ENDBRANCH   5   9
BRANCH   4  11
ATOM     11  O   UNL     1       4.971   2.526  29.144  0.00  0.00    -0.383 OA
ATOM     12  H   UNL     1       4.507   2.579  29.996  0.00  0.00    +0.210 HD
ENDBRANCH   4  11
BRANCH   3  13
ATOM     13  O   UNL     1       7.249   2.226  27.362  0.00  0.00    -0.453 OA
BRANCH  13  14
ATOM     14  C   UNL     1       7.025   3.003  26.235  0.00  0.00    +0.214 A 
ATOM     15  C   UNL     1       6.040   4.150  26.170  0.00  0.00    +0.238 A 
ATOM     16  O   UNL     1       5.354   4.431  27.144  0.00  0.00    -0.283 OA
ATOM     17  C   UNL     1       6.017   4.983  24.906  0.00  0.00    +0.109 A 
ATOM     18  C   UNL     1       6.591   4.399  23.799  0.00  0.00    +0.147 A 
ATOM     19  C   UNL     1       6.695   5.038  22.545  0.00  0.00    +0.092 A 
ATOM     20  C   UNL     1       6.214   6.309  22.433  0.00  0.00    +0.124 A 
ATOM     21  C   UNL     1       5.608   6.934  23.520  0.00  0.00    +0.091 A 
ATOM     22  O   UNL     1       7.116   3.166  23.862  0.00  0.00    -0.451 OA
ATOM     23  C   UNL     1       5.508   6.267  24.760  0.00  0.00    +0.135 A 
ATOM     24  C   UNL     1       7.687   2.792  25.071  0.00  0.00    +0.181 A 
BRANCH  24  25
ATOM     25  C   UNL     1       8.887   2.019  24.698  0.00  0.00    +0.025 A 
ATOM     26  C   UNL     1       8.919   0.646  24.894  0.00  0.00    +0.015 A 
ATOM     27  C   UNL     1       9.388  -0.164  23.854  0.00  0.00    +0.050 A 
ATOM     28  C   UNL     1       9.848   0.411  22.668  0.00  0.00    +0.158 A 
ATOM     29  C   UNL     1      10.035   1.782  22.576  0.00  0.00    +0.159 A 
ATOM     30  C   UNL     1       9.609   2.589  23.613  0.00  0.00    +0.060 A 
BRANCH  29  31
ATOM     31  O   UNL     1      10.495   2.374  21.435  0.00  0.00    -0.503 OA
ATOM     32  H   UNL     1       9.734   2.857  21.061  0.00  0.00    +0.292 HD
ENDBRANCH  29  31
BRANCH  28  33
ATOM     33  O   UNL     1      10.026  -0.354  21.549  0.00  0.00    -0.503 OA
ATOM     34  H   UNL     1      10.157   0.269  20.810  0.00  0.00    +0.292 HD
ENDBRANCH  28  33
ENDBRANCH  24  25
BRANCH  23  35
ATOM     35  O   UNL     1       4.933   6.908  25.814  0.00  0.00    -0.506 OA
ATOM     36  H   UNL     1       4.288   6.317  26.236  0.00  0.00    +0.292 HD
ENDBRANCH  23  35
BRANCH  20  37
ATOM     37  O   UNL     1       6.318   6.992  21.254  0.00  0.00    -0.507 OA
ATOM     38  H   UNL     1       6.518   7.930  21.445  0.00  0.00    +0.292 HD
ENDBRANCH  20  37
ENDBRANCH  13  14
ENDBRANCH   3  13
BRANCH   1  39
ATOM     39  C   UNL     1       4.911  -1.532  26.579  0.00  0.00    +0.197 C 
BRANCH  39  40
ATOM     40  O   UNL     1       3.899  -2.508  26.403  0.00  0.00    -0.346 OA
BRANCH  40  44
ATOM     41  C   UNL     1       1.700  -5.442  24.138  0.00  0.00    +0.041 C 
ATOM     42  C   UNL     1       3.145  -5.542  24.612  0.00  0.00    +0.149 C 
ATOM     43  O   UNL     1       3.440  -4.560  25.605  0.00  0.00    -0.343 OA
ATOM     44  C   UNL     1       3.754  -3.219  25.180  0.00  0.00    +0.282 C 
ATOM     45  C   UNL     1       4.992  -3.245  24.190  0.00  0.00    +0.208 C 
ATOM     46  C   UNL     1       4.487  -4.110  23.013  0.00  0.00    +0.179 C 
ATOM     47  C   UNL     1       4.157  -5.541  23.460  0.00  0.00    +0.174 C 
BRANCH  47  48
ATOM     48  O   UNL     1       5.358  -6.201  23.885  0.00  0.00    -0.387 OA
ATOM     49  H   UNL     1       5.119  -7.138  24.062  0.00  0.00    +0.210 HD
ENDBRANCH  47  48
BRANCH  46  50
ATOM     50  O   UNL     1       5.382  -4.100  21.905  0.00  0.00    -0.386 OA
ATOM     51  H   UNL     1       6.058  -3.419  22.078  0.00  0.00    +0.210 HD
ENDBRANCH  46  50
BRANCH  45  52
ATOM     52  O   UNL     1       6.173  -3.740  24.863  0.00  0.00    -0.338 OA
BRANCH  52  53
ATOM     53  C   UNL     1       7.456  -3.114  24.700  0.00  0.00    +0.282 C 
ATOM     54  O   UNL     1       8.171  -3.841  23.682  0.00  0.00    -0.346 OA
ATOM     55  C   UNL     1       8.451  -5.193  24.046  0.00  0.00    +0.197 C 
ATOM     56  C   UNL     1       8.926  -5.463  25.497  0.00  0.00    +0.171 C 
ATOM     57  C   UNL     1       8.646  -4.362  26.533  0.00  0.00    +0.178 C 
ATOM     58  C   UNL     1       8.456  -3.006  25.867  0.00  0.00    +0.201 C 
BRANCH  58  59
ATOM     59  O   UNL     1       8.176  -1.980  26.815  0.00  0.00    -0.384 OA
ATOM     60  H   UNL     1       8.733  -1.213  26.600  0.00  0.00    +0.210 HD
ENDBRANCH  58  59
BRANCH  57  61
ATOM     61  O   UNL     1       7.493  -4.682  27.328  0.00  0.00    -0.386 OA
ATOM     62  H   UNL     1       7.209  -3.854  27.755  0.00  0.00    +0.210 HD
ENDBRANCH  57  61
BRANCH  56  63
ATOM     63  O   UNL     1      10.348  -5.690  25.473  0.00  0.00    -0.387 OA
ATOM     64  H   UNL     1      10.738  -5.171  26.200  0.00  0.00    +0.210 HD
ENDBRANCH  56  63
ENDBRANCH  52  53
ENDBRANCH  45  52
ENDBRANCH  40  44
ENDBRANCH  39  40
ENDBRANCH   1  39
TORSDOF 20
ENDMDL
MODEL 8
REMARK VINA RESULT:      -6.5      1.659      4.292
REMARK  Name = 
REMARK  21 active torsions:
REMARK  status: ('A' for Active; 'I' for Inactive)
REMARK    1  A    between atoms: C_1  and  C_2
REMARK    2  A    between atoms: C_3  and  O_61
REMARK    3  A    between atoms: C_5  and  O_60
REMARK    4  A    between atoms: C_6  and  O_47
REMARK    5  A    between atoms: C_8  and  O_11
REMARK    6  A    between atoms: O_11  and  C_12
REMARK    7  A    between atoms: C_12  and  C_13
REMARK    8  A    between atoms: C_14  and  O_46
REMARK    9  A    between atoms: C_16  and  O_45
REMARK   10  A    between atoms: C_18  and  O_44
REMARK   11  A    between atoms: C_19  and  O_22
REMARK   12  A    between atoms: O_22  and  C_23
REMARK   13  A    between atoms: C_24  and  C_36
REMARK   14  A    between atoms: C_28  and  O_35
REMARK   15  A    between atoms: C_30  and  O_34
REMARK   16  A    between atoms: C_38  and  O_43
REMARK   17  A    between atoms: C_39  and  O_42
REMARK   18  A    between atoms: O_47  and  C_48
REMARK   19  A    between atoms: C_50  and  O_59
REMARK   20  A    between atoms: C_51  and  O_58
REMARK   21  A    between atoms: C_53  and  O_57
REMARK                            x       y       z     vdW  Elec       q    Type
REMARK                         _______ _______ _______ _____ _____    ______ ____
ROOT
ATOM      1  C   UNL     1       8.877  -3.185  25.000  0.00  0.00    +0.179 C 
ATOM      2  O   UNL     1       9.218  -1.828  24.684  0.00  0.00    -0.331 OA
ATOM      3  C   UNL     1       8.387  -1.092  23.748  0.00  0.00    +0.340 C 
ATOM      4  C   UNL     1       8.151  -1.930  22.440  0.00  0.00    +0.214 C 
ATOM      5  C   UNL     1       7.641  -3.335  22.831  0.00  0.00    +0.180 C 
ATOM      6  C   UNL     1       8.690  -4.022  23.714  0.00  0.00    +0.177 C 
ENDROOT
BRANCH   6   7
ATOM      7  O   UNL     1       8.279  -5.370  23.975  0.00  0.00    -0.386 OA
ATOM      8  H   UNL     1       7.930  -5.734  23.138  0.00  0.00    +0.210 HD
ENDBRANCH   6   7
BRANCH   5   9
ATOM      9  O   UNL     1       7.359  -4.176  21.703  0.00  0.00    -0.386 OA
ATOM     10  H   UNL     1       6.405  -4.388  21.770  0.00  0.00    +0.210 HD
ENDBRANCH   5   9
BRANCH   4  11
ATOM     11  O   UNL     1       9.354  -2.079  21.654  0.00  0.00    -0.383 OA
ATOM     12  H   UNL     1       9.276  -2.892  21.129  0.00  0.00    +0.210 HD
ENDBRANCH   4  11
BRANCH   3  13
ATOM     13  O   UNL     1       9.126   0.133  23.528  0.00  0.00    -0.453 OA
BRANCH  13  14
ATOM     14  C   UNL     1       8.842   1.349  24.134  0.00  0.00    +0.214 A 
ATOM     15  C   UNL     1       9.558   2.645  23.824  0.00  0.00    +0.238 A 
ATOM     16  O   UNL     1      10.472   2.667  23.011  0.00  0.00    -0.283 OA
ATOM     17  C   UNL     1       9.033   3.908  24.474  0.00  0.00    +0.109 A 
ATOM     18  C   UNL     1       8.227   3.718  25.574  0.00  0.00    +0.147 A 
ATOM     19  C   UNL     1       7.617   4.774  26.286  0.00  0.00    +0.092 A 
ATOM     20  C   UNL     1       7.828   6.047  25.847  0.00  0.00    +0.124 A 
ATOM     21  C   UNL     1       8.652   6.290  24.750  0.00  0.00    +0.091 A 
ATOM     22  O   UNL     1       7.952   2.485  26.026  0.00  0.00    -0.451 OA
ATOM     23  C   UNL     1       9.257   5.215  24.063  0.00  0.00    +0.135 A 
ATOM     24  C   UNL     1       7.877   1.475  25.076  0.00  0.00    +0.181 A 
BRANCH  24  25
ATOM     25  C   UNL     1       6.758   0.623  25.521  0.00  0.00    +0.025 A 
ATOM     26  C   UNL     1       6.855  -0.088  26.710  0.00  0.00    +0.015 A 
ATOM     27  C   UNL     1       5.773  -0.054  27.595  0.00  0.00    +0.050 A 
ATOM     28  C   UNL     1       4.613   0.648  27.262  0.00  0.00    +0.158 A 
ATOM     29  C   UNL     1       4.436   1.150  25.981  0.00  0.00    +0.159 A 
ATOM     30  C   UNL     1       5.487   1.089  25.085  0.00  0.00    +0.060 A 
BRANCH  29  31
ATOM     31  O   UNL     1       3.309   1.831  25.620  0.00  0.00    -0.503 OA
ATOM     32  H   UNL     1       3.620   2.639  25.171  0.00  0.00    +0.292 HD
ENDBRANCH  29  31
BRANCH  28  33
ATOM     33  O   UNL     1       3.679   0.939  28.217  0.00  0.00    -0.503 OA
ATOM     34  H   UNL     1       3.692   1.908  28.327  0.00  0.00    +0.292 HD
ENDBRANCH  28  33
ENDBRANCH  24  25
BRANCH  23  35
ATOM     35  O   UNL     1      10.038   5.476  22.980  0.00  0.00    -0.506 OA
ATOM     36  H   UNL     1      10.229   6.427  22.942  0.00  0.00    +0.292 HD
ENDBRANCH  23  35
BRANCH  20  37
ATOM     37  O   UNL     1       7.237   7.108  26.474  0.00  0.00    -0.507 OA
ATOM     38  H   UNL     1       7.289   6.977  27.441  0.00  0.00    +0.292 HD
ENDBRANCH  20  37
ENDBRANCH  13  14
ENDBRANCH   3  13
BRANCH   1  39
ATOM     39  C   UNL     1       7.672  -3.351  25.968  0.00  0.00    +0.197 C 
BRANCH  39  40
ATOM     40  O   UNL     1       7.515  -4.593  26.631  0.00  0.00    -0.346 OA
BRANCH  40  44
ATOM     41  C   UNL     1       6.059  -6.400  30.263  0.00  0.00    +0.041 C 
ATOM     42  C   UNL     1       5.692  -6.784  28.835  0.00  0.00    +0.149 C 
ATOM     43  O   UNL     1       6.598  -6.216  27.889  0.00  0.00    -0.343 OA
ATOM     44  C   UNL     1       6.407  -4.845  27.486  0.00  0.00    +0.282 C 
ATOM     45  C   UNL     1       4.952  -4.659  26.885  0.00  0.00    +0.208 C 
ATOM     46  C   UNL     1       4.029  -5.038  28.065  0.00  0.00    +0.179 C 
ATOM     47  C   UNL     1       4.225  -6.499  28.493  0.00  0.00    +0.174 C 
BRANCH  47  48
ATOM     48  O   UNL     1       3.808  -7.371  27.433  0.00  0.00    -0.387 OA
ATOM     49  H   UNL     1       4.423  -7.218  26.681  0.00  0.00    +0.210 HD
ENDBRANCH  47  48
BRANCH  46  50
ATOM     50  O   UNL     1       2.660  -4.748  27.801  0.00  0.00    -0.386 OA
ATOM     51  H   UNL     1       2.480  -4.988  26.873  0.00  0.00    +0.210 HD
ENDBRANCH  46  50
BRANCH  45  52
ATOM     52  O   UNL     1       4.790  -5.456  25.689  0.00  0.00    -0.338 OA
BRANCH  52  53
ATOM     53  C   UNL     1       4.776  -4.864  24.379  0.00  0.00    +0.282 C 
ATOM     54  O   UNL     1       3.692  -3.916  24.339  0.00  0.00    -0.346 OA
ATOM     55  C   UNL     1       2.408  -4.522  24.495  0.00  0.00    +0.197 C 
ATOM     56  C   UNL     1       2.143  -5.850  23.741  0.00  0.00    +0.171 C 
ATOM     57  C   UNL     1       3.378  -6.626  23.254  0.00  0.00    +0.178 C 
ATOM     58  C   UNL     1       4.588  -5.715  23.109  0.00  0.00    +0.201 C 
BRANCH  58  59
ATOM     59  O   UNL     1       5.744  -6.427  22.677  0.00  0.00    -0.384 OA
ATOM     60  H   UNL     1       6.384  -6.432  23.409  0.00  0.00    +0.210 HD
ENDBRANCH  58  59
BRANCH  57  61
ATOM     61  O   UNL     1       3.686  -7.714  24.141  0.00  0.00    -0.386 OA
ATOM     62  H   UNL     1       3.068  -7.647  24.890  0.00  0.00    +0.210 HD
ENDBRANCH  57  61
BRANCH  56  63
ATOM     63  O   UNL     1       1.325  -5.561  22.591  0.00  0.00    -0.387 OA
ATOM     64  H   UNL     1       1.556  -6.210  21.900  0.00  0.00    +0.210 HD
ENDBRANCH  56  63
ENDBRANCH  52  53
ENDBRANCH  45  52
ENDBRANCH  40  44
ENDBRANCH  39  40
ENDBRANCH   1  39
TORSDOF 20
ENDMDL
MODEL 9
REMARK VINA RESULT:      -6.4      1.998      4.558
REMARK  Name = 
REMARK  21 active torsions:
REMARK  status: ('A' for Active; 'I' for Inactive)
REMARK    1  A    between atoms: C_1  and  C_2
REMARK    2  A    between atoms: C_3  and  O_61
REMARK    3  A    between atoms: C_5  and  O_60
REMARK    4  A    between atoms: C_6  and  O_47
REMARK    5  A    between atoms: C_8  and  O_11
REMARK    6  A    between atoms: O_11  and  C_12
REMARK    7  A    between atoms: C_12  and  C_13
REMARK    8  A    between atoms: C_14  and  O_46
REMARK    9  A    between atoms: C_16  and  O_45
REMARK   10  A    between atoms: C_18  and  O_44
REMARK   11  A    between atoms: C_19  and  O_22
REMARK   12  A    between atoms: O_22  and  C_23
REMARK   13  A    between atoms: C_24  and  C_36
REMARK   14  A    between atoms: C_28  and  O_35
REMARK   15  A    between atoms: C_30  and  O_34
REMARK   16  A    between atoms: C_38  and  O_43
REMARK   17  A    between atoms: C_39  and  O_42
REMARK   18  A    between atoms: O_47  and  C_48
REMARK   19  A    between atoms: C_50  and  O_59
REMARK   20  A    between atoms: C_51  and  O_58
REMARK   21  A    between atoms: C_53  and  O_57
REMARK                            x       y       z     vdW  Elec       q    Type
REMARK                         _______ _______ _______ _____ _____    ______ ____
ROOT
ATOM      1  C   UNL     1       7.515  -5.267  23.982  0.00  0.00    +0.179 C 
ATOM      2  O   UNL     1       8.224  -4.108  24.443  0.00  0.00    -0.331 OA
ATOM      3  C   UNL     1       7.616  -2.800  24.280  0.00  0.00    +0.340 C 
ATOM      4  C   UNL     1       7.115  -2.602  22.803  0.00  0.00    +0.214 C 
ATOM      5  C   UNL     1       6.233  -3.807  22.409  0.00  0.00    +0.180 C 
ATOM      6  C   UNL     1       7.063  -5.092  22.515  0.00  0.00    +0.177 C 
ENDROOT
BRANCH   6   7
ATOM      7  O   UNL     1       6.288  -6.197  22.030  0.00  0.00    -0.386 OA
ATOM      8  H   UNL     1       6.650  -6.443  21.157  0.00  0.00    +0.210 HD
ENDBRANCH   6   7
BRANCH   5   9
ATOM      9  O   UNL     1       5.693  -3.710  21.083  0.00  0.00    -0.386 OA
ATOM     10  H   UNL     1       5.739  -4.618  20.718  0.00  0.00    +0.210 HD
ENDBRANCH   5   9
BRANCH   4  11
ATOM     11  O   UNL     1       8.204  -2.498  21.860  0.00  0.00    -0.383 OA
ATOM     12  H   UNL     1       7.832  -2.298  20.985  0.00  0.00    +0.210 HD
ENDBRANCH   4  11
BRANCH   3  13
ATOM     13  O   UNL     1       8.670  -1.885  24.664  0.00  0.00    -0.453 OA
BRANCH  13  14
ATOM     14  C   UNL     1       8.543  -0.503  24.706  0.00  0.00    +0.214 A 
ATOM     15  C   UNL     1       9.045   0.433  23.628  0.00  0.00    +0.238 A 
ATOM     16  O   UNL     1       9.632  -0.010  22.650  0.00  0.00    -0.283 OA
ATOM     17  C   UNL     1       8.704   1.902  23.763  0.00  0.00    +0.109 A 
ATOM     18  C   UNL     1       8.324   2.311  25.021  0.00  0.00    +0.147 A 
ATOM     19  C   UNL     1       7.935   3.632  25.328  0.00  0.00    +0.092 A 
ATOM     20  C   UNL     1       7.921   4.546  24.317  0.00  0.00    +0.124 A 
ATOM     21  C   UNL     1       8.315   4.184  23.031  0.00  0.00    +0.091 A 
ATOM     22  O   UNL     1       8.281   1.445  26.046  0.00  0.00    -0.451 OA
ATOM     23  C   UNL     1       8.710   2.857  22.754  0.00  0.00    +0.135 A 
ATOM     24  C   UNL     1       7.944   0.134  25.741  0.00  0.00    +0.181 A 
BRANCH  24  25
ATOM     25  C   UNL     1       7.085  -0.304  26.858  0.00  0.00    +0.025 A 
ATOM     26  C   UNL     1       7.009   0.457  28.016  0.00  0.00    +0.015 A 
ATOM     27  C   UNL     1       5.747   0.718  28.559  0.00  0.00    +0.050 A 
ATOM     28  C   UNL     1       4.602   0.187  27.962  0.00  0.00    +0.158 A 
ATOM     29  C   UNL     1       4.706  -0.760  26.955  0.00  0.00    +0.159 A 
ATOM     30  C   UNL     1       5.953  -1.054  26.436  0.00  0.00    +0.060 A 
BRANCH  29  31
ATOM     31  O   UNL     1       3.606  -1.307  26.360  0.00  0.00    -0.503 OA
ATOM     32  H   UNL     1       3.395  -2.107  26.876  0.00  0.00    +0.292 HD
ENDBRANCH  29  31
BRANCH  28  33
ATOM     33  O   UNL     1       3.363   0.664  28.291  0.00  0.00    -0.503 OA
ATOM     34  H   UNL     1       2.859  -0.097  28.635  0.00  0.00    +0.292 HD
ENDBRANCH  28  33
ENDBRANCH  24  25
BRANCH  23  35
ATOM     35  O   UNL     1       9.068   2.521  21.485  0.00  0.00    -0.506 OA
ATOM     36  H   UNL     1       9.181   3.329  20.958  0.00  0.00    +0.292 HD
ENDBRANCH  23  35
BRANCH  20  37
ATOM     37  O   UNL     1       7.520   5.832  24.544  0.00  0.00    -0.507 OA
ATOM     38  H   UNL     1       6.601   5.827  24.879  0.00  0.00    +0.292 HD
ENDBRANCH  20  37
ENDBRANCH  13  14
ENDBRANCH   3  13
BRANCH   1  39
ATOM     39  C   UNL     1       6.339  -5.721  24.891  0.00  0.00    +0.197 C 
BRANCH  39  40
ATOM     40  O   UNL     1       6.620  -6.017  26.248  0.00  0.00    -0.346 OA
BRANCH  40  44
ATOM     41  C   UNL     1       5.787  -5.938  30.476  0.00  0.00    +0.041 C 
ATOM     42  C   UNL     1       4.893  -6.494  29.374  0.00  0.00    +0.149 C 
ATOM     43  O   UNL     1       5.610  -6.663  28.152  0.00  0.00    -0.343 OA
ATOM     44  C   UNL     1       5.808  -5.514  27.303  0.00  0.00    +0.282 C 
ATOM     45  C   UNL     1       4.408  -4.880  26.920  0.00  0.00    +0.208 C 
ATOM     46  C   UNL     1       3.813  -4.479  28.289  0.00  0.00    +0.179 C 
ATOM     47  C   UNL     1       3.595  -5.699  29.194  0.00  0.00    +0.174 C 
BRANCH  47  48
ATOM     48  O   UNL     1       2.594  -6.552  28.618  0.00  0.00    -0.387 OA
ATOM     49  H   UNL     1       1.883  -5.965  28.277  0.00  0.00    +0.210 HD
ENDBRANCH  47  48
BRANCH  46  50
ATOM     50  O   UNL     1       2.627  -3.701  28.162  0.00  0.00    -0.386 OA
ATOM     51  H   UNL     1       2.212  -3.932  27.310  0.00  0.00    +0.210 HD
ENDBRANCH  46  50
BRANCH  45  52
ATOM     52  O   UNL     1       3.618  -5.817  26.151  0.00  0.00    -0.338 OA
BRANCH  52  53
ATOM     53  C   UNL     1       2.564  -5.381  25.276  0.00  0.00    +0.282 C 
ATOM     54  O   UNL     1       1.331  -5.946  25.760  0.00  0.00    -0.346 OA
ATOM     55  C   UNL     1       1.305  -7.373  25.705  0.00  0.00    +0.197 C 
ATOM     56  C   UNL     1       1.882  -8.054  24.437  0.00  0.00    +0.171 C 
ATOM     57  C   UNL     1       2.812  -7.201  23.557  0.00  0.00    +0.178 C 
ATOM     58  C   UNL     1       2.572  -5.714  23.772  0.00  0.00    +0.201 C 
BRANCH  58  59
ATOM     59  O   UNL     1       3.443  -4.913  22.976  0.00  0.00    -0.384 OA
ATOM     60  H   UNL     1       4.130  -5.493  22.607  0.00  0.00    +0.210 HD
ENDBRANCH  58  59
BRANCH  57  61
ATOM     61  O   UNL     1       4.191  -7.517  23.807  0.00  0.00    -0.386 OA
ATOM     62  H   UNL     1       4.216  -8.444  24.105  0.00  0.00    +0.210 HD
ENDBRANCH  57  61
BRANCH  56  63
ATOM     63  O   UNL     1       0.781  -8.489  23.617  0.00  0.00    -0.387 OA
ATOM     64  H   UNL     1       1.122  -8.610  22.712  0.00  0.00    +0.210 HD
ENDBRANCH  56  63
ENDBRANCH  52  53
ENDBRANCH  45  52
ENDBRANCH  40  44
ENDBRANCH  39  40
ENDBRANCH   1  39
TORSDOF 20
ENDMDL
