MODEL 1
REMARK VINA RESULT:      -8.0      0.000      0.000
REMARK  Name = 
REMARK  17 active torsions:
REMARK  status: ('A' for Active; 'I' for Inactive)
REMARK    1  A    between atoms: C_1  and  C_2
REMARK    2  A    between atoms: C_4  and  O_53
REMARK    3  A    between atoms: C_6  and  O_52
REMARK    4  A    between atoms: C_8  and  O_51
REMARK    5  A    between atoms: C_10  and  O_13
REMARK    6  A    between atoms: O_13  and  C_14
REMARK    7  A    between atoms: C_14  and  C_15
REMARK    8  A    between atoms: C_17  and  O_50
REMARK    9  A    between atoms: C_19  and  O_49
REMARK   10  A    between atoms: C_21  and  O_48
REMARK   11  A    between atoms: C_23  and  O_26
REMARK   12  A    between atoms: O_26  and  C_27
REMARK   13  A    between atoms: C_29  and  O_47
REMARK   14  A    between atoms: C_34  and  C_39
REMARK   15  A    between atoms: C_35  and  O_38
REMARK   16  A    between atoms: C_41  and  O_46
REMARK   17  A    between atoms: C_42  and  O_45
REMARK                            x       y       z     vdW  Elec       q    Type
REMARK                         _______ _______ _______ _____ _____    ______ ____
ROOT
ATOM      1  C   UNL     1       3.211  -5.242  26.243  0.00  0.00    +0.179 C 
ATOM      2  O   UNL     1       3.878  -4.834  25.038  0.00  0.00    -0.331 OA
ATOM      3  C   UNL     1       3.298  -5.382  23.846  0.00  0.00    +0.339 C 
ATOM      4  C   UNL     1       3.303  -6.926  23.880  0.00  0.00    +0.214 C 
ATOM      5  C   UNL     1       2.620  -7.406  25.167  0.00  0.00    +0.180 C 
ATOM      6  C   UNL     1       3.261  -6.769  26.400  0.00  0.00    +0.177 C 
ENDROOT
BRANCH   6   7
ATOM      7  O   UNL     1       2.528  -7.206  27.553  0.00  0.00    -0.386 OA
ATOM      8  H   UNL     1       1.874  -6.510  27.749  0.00  0.00    +0.210 HD
ENDBRANCH   6   7
BRANCH   5   9
ATOM      9  O   UNL     1       2.681  -8.837  25.262  0.00  0.00    -0.386 OA
ATOM     10  H   UNL     1       1.756  -9.145  25.168  0.00  0.00    +0.210 HD
ENDBRANCH   5   9
BRANCH   4  11
ATOM     11  O   UNL     1       2.604  -7.429  22.726  0.00  0.00    -0.383 OA
ATOM     12  H   UNL     1       3.085  -7.128  21.934  0.00  0.00    +0.210 HD
ENDBRANCH   4  11
BRANCH   3  13
ATOM     13  O   UNL     1       4.033  -4.957  22.676  0.00  0.00    -0.461 OA
BRANCH  13  14
ATOM     14  C   UNL     1       5.288  -4.452  22.892  0.00  0.00    +0.131 A 
ATOM     15  C   UNL     1       5.441  -3.069  22.752  0.00  0.00    +0.093 A 
ATOM     16  C   UNL     1       6.694  -2.465  22.957  0.00  0.00    +0.147 A 
ATOM     17  O   UNL     1       6.769  -1.099  22.795  0.00  0.00    -0.451 OA
ATOM     18  C   UNL     1       7.975  -0.446  23.059  0.00  0.00    +0.181 A 
ATOM     19  C   UNL     1       9.092  -1.086  23.466  0.00  0.00    +0.208 A 
ATOM     20  C   UNL     1       9.080  -2.576  23.543  0.00  0.00    +0.238 A 
ATOM     21  O   UNL     1      10.112  -3.180  23.813  0.00  0.00    -0.283 OA
ATOM     22  C   UNL     1       7.793  -3.249  23.302  0.00  0.00    +0.109 A 
ATOM     23  C   UNL     1       7.638  -4.638  23.412  0.00  0.00    +0.135 A 
ATOM     24  C   UNL     1       6.396  -5.237  23.199  0.00  0.00    +0.092 A 
BRANCH  18  25
ATOM     25  C   UNL     1       7.914   1.034  22.845  0.00  0.00    +0.025 A 
ATOM     26  C   UNL     1       6.763   1.657  22.318  0.00  0.00    +0.015 A 
ATOM     27  C   UNL     1       6.727   3.030  22.056  0.00  0.00    +0.050 A 
ATOM     28  C   UNL     1       7.822   3.811  22.381  0.00  0.00    +0.158 A 
ATOM     29  C   UNL     1       8.941   3.234  22.973  0.00  0.00    +0.159 A 
ATOM     30  C   UNL     1       9.008   1.855  23.194  0.00  0.00    +0.060 A 
BRANCH  29  31
ATOM     31  O   UNL     1       9.976   4.070  23.301  0.00  0.00    -0.503 OA
ATOM     32  H   UNL     1      10.438   3.697  24.070  0.00  0.00    +0.292 HD
ENDBRANCH  29  31
BRANCH  28  33
ATOM     33  O   UNL     1       7.775   5.153  22.143  0.00  0.00    -0.503 OA
ATOM     34  H   UNL     1       8.408   5.296  21.410  0.00  0.00    +0.292 HD
ENDBRANCH  28  33
ENDBRANCH  18  25
BRANCH  23  35
ATOM     35  O   UNL     1       8.692  -5.443  23.741  0.00  0.00    -0.506 OA
ATOM     36  H   UNL     1       9.072  -5.179  24.593  0.00  0.00    +0.292 HD
ENDBRANCH  23  35
BRANCH  19  37
ATOM     37  O   UNL     1      10.277  -0.468  23.831  0.00  0.00    -0.501 OA
ATOM     38  H   UNL     1      10.776  -1.067  24.408  0.00  0.00    +0.292 HD
ENDBRANCH  19  37
ENDBRANCH  13  14
ENDBRANCH   3  13
BRANCH   1  39
ATOM     39  C   UNL     1       3.864  -4.530  27.436  0.00  0.00    +0.197 C 
BRANCH  39  40
ATOM     40  O   UNL     1       5.177  -4.112  27.069  0.00  0.00    -0.346 OA
BRANCH  40  44
ATOM     41  C   UNL     1       4.614  -0.143  28.751  0.00  0.00    +0.041 C 
ATOM     42  C   UNL     1       4.399  -0.551  27.297  0.00  0.00    +0.149 C 
ATOM     43  O   UNL     1       4.251  -1.969  27.149  0.00  0.00    -0.343 OA
ATOM     44  C   UNL     1       5.436  -2.733  27.355  0.00  0.00    +0.282 C 
ATOM     45  C   UNL     1       6.594  -2.297  26.430  0.00  0.00    +0.201 C 
ATOM     46  C   UNL     1       6.787  -0.774  26.421  0.00  0.00    +0.179 C 
ATOM     47  C   UNL     1       5.452  -0.032  26.306  0.00  0.00    +0.174 C 
BRANCH  47  48
ATOM     48  O   UNL     1       4.946  -0.218  24.973  0.00  0.00    -0.387 OA
ATOM     49  H   UNL     1       4.540   0.624  24.685  0.00  0.00    +0.210 HD
ENDBRANCH  47  48
BRANCH  46  50
ATOM     50  O   UNL     1       7.539  -0.346  27.565  0.00  0.00    -0.386 OA
ATOM     51  H   UNL     1       8.226  -1.001  27.773  0.00  0.00    +0.210 HD
ENDBRANCH  46  50
BRANCH  45  52
ATOM     52  O   UNL     1       7.816  -2.937  26.848  0.00  0.00    -0.384 OA
ATOM     53  H   UNL     1       8.230  -3.329  26.056  0.00  0.00    +0.210 HD
ENDBRANCH  45  52
ENDBRANCH  40  44
ENDBRANCH  39  40
ENDBRANCH   1  39
TORSDOF 16
ENDMDL
MODEL 2
REMARK VINA RESULT:      -7.7      2.778      5.826
REMARK  Name = 
REMARK  17 active torsions:
REMARK  status: ('A' for Active; 'I' for Inactive)
REMARK    1  A    between atoms: C_1  and  C_2
REMARK    2  A    between atoms: C_4  and  O_53
REMARK    3  A    between atoms: C_6  and  O_52
REMARK    4  A    between atoms: C_8  and  O_51
REMARK    5  A    between atoms: C_10  and  O_13
REMARK    6  A    between atoms: O_13  and  C_14
REMARK    7  A    between atoms: C_14  and  C_15
REMARK    8  A    between atoms: C_17  and  O_50
REMARK    9  A    between atoms: C_19  and  O_49
REMARK   10  A    between atoms: C_21  and  O_48
REMARK   11  A    between atoms: C_23  and  O_26
REMARK   12  A    between atoms: O_26  and  C_27
REMARK   13  A    between atoms: C_29  and  O_47
REMARK   14  A    between atoms: C_34  and  C_39
REMARK   15  A    between atoms: C_35  and  O_38
REMARK   16  A    between atoms: C_41  and  O_46
REMARK   17  A    between atoms: C_42  and  O_45
REMARK                            x       y       z     vdW  Elec       q    Type
REMARK                         _______ _______ _______ _____ _____    ______ ____
ROOT
ATOM      1  C   UNL     1       8.037  -3.410  25.392  0.00  0.00    +0.179 C 
ATOM      2  O   UNL     1       6.655  -3.030  25.303  0.00  0.00    -0.331 OA
ATOM      3  C   UNL     1       5.971  -3.051  26.564  0.00  0.00    +0.339 C 
ATOM      4  C   UNL     1       6.027  -4.454  27.207  0.00  0.00    +0.214 C 
ATOM      5  C   UNL     1       7.489  -4.911  27.298  0.00  0.00    +0.180 C 
ATOM      6  C   UNL     1       8.173  -4.841  25.933  0.00  0.00    +0.177 C 
ENDROOT
BRANCH   6   7
ATOM      7  O   UNL     1       9.547  -5.212  26.108  0.00  0.00    -0.386 OA
ATOM      8  H   UNL     1      10.012  -4.962  25.288  0.00  0.00    +0.210 HD
ENDBRANCH   6   7
BRANCH   5   9
ATOM      9  O   UNL     1       7.564  -6.247  27.820  0.00  0.00    -0.386 OA
ATOM     10  H   UNL     1       7.500  -6.152  28.793  0.00  0.00    +0.210 HD
ENDBRANCH   5   9
BRANCH   4  11
ATOM     11  O   UNL     1       5.438  -4.400  28.520  0.00  0.00    -0.383 OA
ATOM     12  H   UNL     1       4.782  -5.117  28.581  0.00  0.00    +0.210 HD
ENDBRANCH   4  11
BRANCH   3  13
ATOM     13  O   UNL     1       4.581  -2.689  26.400  0.00  0.00    -0.461 OA
BRANCH  13  14
ATOM     14  C   UNL     1       4.267  -1.370  26.593  0.00  0.00    +0.131 A 
ATOM     15  C   UNL     1       5.125  -0.429  26.017  0.00  0.00    +0.093 A 
ATOM     16  C   UNL     1       4.878   0.947  26.163  0.00  0.00    +0.147 A 
ATOM     17  O   UNL     1       5.771   1.815  25.572  0.00  0.00    -0.451 OA
ATOM     18  C   UNL     1       5.526   3.188  25.629  0.00  0.00    +0.181 A 
ATOM     19  C   UNL     1       4.451   3.726  26.243  0.00  0.00    +0.208 A 
ATOM     20  C   UNL     1       3.525   2.827  26.991  0.00  0.00    +0.238 A 
ATOM     21  O   UNL     1       2.601   3.306  27.638  0.00  0.00    -0.283 OA
ATOM     22  C   UNL     1       3.770   1.378  26.889  0.00  0.00    +0.109 A 
ATOM     23  C   UNL     1       2.930   0.430  27.488  0.00  0.00    +0.135 A 
ATOM     24  C   UNL     1       3.182  -0.936  27.350  0.00  0.00    +0.092 A 
BRANCH  18  25
ATOM     25  C   UNL     1       6.573   4.012  24.946  0.00  0.00    +0.025 A 
ATOM     26  C   UNL     1       7.684   4.525  25.648  0.00  0.00    +0.015 A 
ATOM     27  C   UNL     1       8.628   5.349  25.027  0.00  0.00    +0.050 A 
ATOM     28  C   UNL     1       8.508   5.616  23.675  0.00  0.00    +0.158 A 
ATOM     29  C   UNL     1       7.466   5.059  22.942  0.00  0.00    +0.159 A 
ATOM     30  C   UNL     1       6.488   4.275  23.562  0.00  0.00    +0.060 A 
BRANCH  29  31
ATOM     31  O   UNL     1       7.427   5.337  21.601  0.00  0.00    -0.503 OA
ATOM     32  H   UNL     1       8.336   5.312  21.257  0.00  0.00    +0.292 HD
ENDBRANCH  29  31
BRANCH  28  33
ATOM     33  O   UNL     1       9.443   6.403  23.069  0.00  0.00    -0.503 OA
ATOM     34  H   UNL     1       9.081   6.573  22.176  0.00  0.00    +0.292 HD
ENDBRANCH  28  33
ENDBRANCH  18  25
BRANCH  23  35
ATOM     35  O   UNL     1       1.838   0.811  28.215  0.00  0.00    -0.506 OA
ATOM     36  H   UNL     1       1.111   0.180  28.097  0.00  0.00    +0.292 HD
ENDBRANCH  23  35
BRANCH  19  37
ATOM     37  O   UNL     1       4.121   5.072  26.240  0.00  0.00    -0.501 OA
ATOM     38  H   UNL     1       4.738   5.543  25.659  0.00  0.00    +0.292 HD
ENDBRANCH  19  37
ENDBRANCH  13  14
ENDBRANCH   3  13
BRANCH   1  39
ATOM     39  C   UNL     1       8.680  -3.268  24.004  0.00  0.00    +0.197 C 
BRANCH  39  40
ATOM     40  O   UNL     1       9.889  -2.521  24.124  0.00  0.00    -0.346 OA
BRANCH  40  44
ATOM     41  C   UNL     1       9.803   1.810  24.479  0.00  0.00    +0.041 C 
ATOM     42  C   UNL     1       8.598   0.890  24.318  0.00  0.00    +0.149 C 
ATOM     43  O   UNL     1       8.906  -0.469  24.654  0.00  0.00    -0.343 OA
ATOM     44  C   UNL     1       9.752  -1.151  23.732  0.00  0.00    +0.282 C 
ATOM     45  C   UNL     1       9.184  -1.154  22.294  0.00  0.00    +0.201 C 
ATOM     46  C   UNL     1       8.717   0.240  21.852  0.00  0.00    +0.179 C 
ATOM     47  C   UNL     1       7.908   0.943  22.947  0.00  0.00    +0.174 C 
BRANCH  47  48
ATOM     48  O   UNL     1       6.634   0.287  23.057  0.00  0.00    -0.387 OA
ATOM     49  H   UNL     1       6.793  -0.631  23.355  0.00  0.00    +0.210 HD
ENDBRANCH  47  48
BRANCH  46  50
ATOM     50  O   UNL     1       9.827   1.037  21.414  0.00  0.00    -0.386 OA
ATOM     51  H   UNL     1      10.231   1.487  22.174  0.00  0.00    +0.210 HD
ENDBRANCH  46  50
BRANCH  45  52
ATOM     52  O   UNL     1      10.184  -1.642  21.379  0.00  0.00    -0.384 OA
ATOM     53  H   UNL     1       9.861  -1.478  20.472  0.00  0.00    +0.210 HD
ENDBRANCH  45  52
ENDBRANCH  40  44
ENDBRANCH  39  40
ENDBRANCH   1  39
TORSDOF 16
ENDMDL
MODEL 3
REMARK VINA RESULT:      -7.6      1.484      2.276
REMARK  Name = 
REMARK  17 active torsions:
REMARK  status: ('A' for Active; 'I' for Inactive)
REMARK    1  A    between atoms: C_1  and  C_2
REMARK    2  A    between atoms: C_4  and  O_53
REMARK    3  A    between atoms: C_6  and  O_52
REMARK    4  A    between atoms: C_8  and  O_51
REMARK    5  A    between atoms: C_10  and  O_13
REMARK    6  A    between atoms: O_13  and  C_14
REMARK    7  A    between atoms: C_14  and  C_15
REMARK    8  A    between atoms: C_17  and  O_50
REMARK    9  A    between atoms: C_19  and  O_49
REMARK   10  A    between atoms: C_21  and  O_48
REMARK   11  A    between atoms: C_23  and  O_26
REMARK   12  A    between atoms: O_26  and  C_27
REMARK   13  A    between atoms: C_29  and  O_47
REMARK   14  A    between atoms: C_34  and  C_39
REMARK   15  A    between atoms: C_35  and  O_38
REMARK   16  A    between atoms: C_41  and  O_46
REMARK   17  A    between atoms: C_42  and  O_45
REMARK                            x       y       z     vdW  Elec       q    Type
REMARK                         _______ _______ _______ _____ _____    ______ ____
ROOT
ATOM      1  C   UNL     1       5.007  -4.545  25.768  0.00  0.00    +0.179 C 
ATOM      2  O   UNL     1       5.681  -3.984  24.630  0.00  0.00    -0.331 OA
ATOM      3  C   UNL     1       5.047  -4.286  23.379  0.00  0.00    +0.339 C 
ATOM      4  C   UNL     1       4.948  -5.811  23.156  0.00  0.00    +0.214 C 
ATOM      5  C   UNL     1       4.254  -6.455  24.364  0.00  0.00    +0.180 C 
ATOM      6  C   UNL     1       4.956  -6.077  25.668  0.00  0.00    +0.177 C 
ENDROOT
BRANCH   6   7
ATOM      7  O   UNL     1       4.215  -6.653  26.752  0.00  0.00    -0.386 OA
ATOM      8  H   UNL     1       3.279  -6.661  26.477  0.00  0.00    +0.210 HD
ENDBRANCH   6   7
BRANCH   5   9
ATOM      9  O   UNL     1       4.220  -7.883  24.218  0.00  0.00    -0.386 OA
ATOM     10  H   UNL     1       4.244  -8.240  25.129  0.00  0.00    +0.210 HD
ENDBRANCH   5   9
BRANCH   4  11
ATOM     11  O   UNL     1       4.198  -6.068  21.955  0.00  0.00    -0.383 OA
ATOM     12  H   UNL     1       3.394  -5.519  21.983  0.00  0.00    +0.210 HD
ENDBRANCH   4  11
BRANCH   3  13
ATOM     13  O   UNL     1       5.790  -3.720  22.276  0.00  0.00    -0.461 OA
BRANCH  13  14
ATOM     14  C   UNL     1       6.789  -2.841  22.601  0.00  0.00    +0.131 A 
ATOM     15  C   UNL     1       6.448  -1.485  22.630  0.00  0.00    +0.093 A 
ATOM     16  C   UNL     1       7.411  -0.513  22.955  0.00  0.00    +0.147 A 
ATOM     17  O   UNL     1       7.003   0.802  22.957  0.00  0.00    -0.451 OA
ATOM     18  C   UNL     1       7.905   1.795  23.344  0.00  0.00    +0.181 A 
ATOM     19  C   UNL     1       9.177   1.539  23.717  0.00  0.00    +0.208 A 
ATOM     20  C   UNL     1       9.688   0.141  23.616  0.00  0.00    +0.238 A 
ATOM     21  O   UNL     1      10.866  -0.096  23.854  0.00  0.00    -0.283 OA
ATOM     22  C   UNL     1       8.716  -0.903  23.247  0.00  0.00    +0.109 A 
ATOM     23  C   UNL     1       9.057  -2.260  23.187  0.00  0.00    +0.135 A 
ATOM     24  C   UNL     1       8.103  -3.223  22.856  0.00  0.00    +0.092 A 
BRANCH  18  25
ATOM     25  C   UNL     1       7.329   3.177  23.304  0.00  0.00    +0.025 A 
ATOM     26  C   UNL     1       6.440   3.635  24.300  0.00  0.00    +0.015 A 
ATOM     27  C   UNL     1       5.850   4.901  24.230  0.00  0.00    +0.050 A 
ATOM     28  C   UNL     1       6.193   5.752  23.194  0.00  0.00    +0.158 A 
ATOM     29  C   UNL     1       7.126   5.355  22.243  0.00  0.00    +0.159 A 
ATOM     30  C   UNL     1       7.685   4.073  22.273  0.00  0.00    +0.060 A 
BRANCH  29  31
ATOM     31  O   UNL     1       7.446   6.259  21.265  0.00  0.00    -0.503 OA
ATOM     32  H   UNL     1       7.084   7.125  21.519  0.00  0.00    +0.292 HD
ENDBRANCH  29  31
BRANCH  28  33
ATOM     33  O   UNL     1       5.631   6.994  23.141  0.00  0.00    -0.503 OA
ATOM     34  H   UNL     1       6.221   7.555  23.684  0.00  0.00    +0.292 HD
ENDBRANCH  28  33
ENDBRANCH  18  25
BRANCH  23  35
ATOM     35  O   UNL     1      10.328  -2.683  23.459  0.00  0.00    -0.506 OA
ATOM     36  H   UNL     1      10.519  -2.605  24.407  0.00  0.00    +0.292 HD
ENDBRANCH  23  35
BRANCH  19  37
ATOM     37  O   UNL     1      10.072   2.480  24.198  0.00  0.00    -0.501 OA
ATOM     38  H   UNL     1      10.600   2.076  24.905  0.00  0.00    +0.292 HD
ENDBRANCH  19  37
ENDBRANCH  13  14
ENDBRANCH   3  13
BRANCH   1  39
ATOM     39  C   UNL     1       5.726  -4.086  27.045  0.00  0.00    +0.197 C 
BRANCH  39  40
ATOM     40  O   UNL     1       6.717  -3.119  26.701  0.00  0.00    -0.346 OA
BRANCH  40  44
ATOM     41  C   UNL     1       4.713   0.012  28.954  0.00  0.00    +0.041 C 
ATOM     42  C   UNL     1       4.652  -0.200  27.444  0.00  0.00    +0.149 C 
ATOM     43  O   UNL     1       5.049  -1.525  27.068  0.00  0.00    -0.343 OA
ATOM     44  C   UNL     1       6.438  -1.812  27.213  0.00  0.00    +0.282 C 
ATOM     45  C   UNL     1       7.335  -0.827  26.430  0.00  0.00    +0.201 C 
ATOM     46  C   UNL     1       6.937   0.636  26.671  0.00  0.00    +0.179 C 
ATOM     47  C   UNL     1       5.419   0.832  26.604  0.00  0.00    +0.174 C 
BRANCH  47  48
ATOM     48  O   UNL     1       5.007   0.693  25.234  0.00  0.00    -0.387 OA
ATOM     49  H   UNL     1       4.075   0.985  25.169  0.00  0.00    +0.210 HD
ENDBRANCH  47  48
BRANCH  46  50
ATOM     50  O   UNL     1       7.483   1.119  27.907  0.00  0.00    -0.386 OA
ATOM     51  H   UNL     1       8.442   1.253  27.814  0.00  0.00    +0.210 HD
ENDBRANCH  46  50
BRANCH  45  52
ATOM     52  O   UNL     1       8.712  -1.021  26.806  0.00  0.00    -0.384 OA
ATOM     53  H   UNL     1       8.873  -0.505  27.619  0.00  0.00    +0.210 HD
ENDBRANCH  45  52
ENDBRANCH  40  44
ENDBRANCH  39  40
ENDBRANCH   1  39
TORSDOF 16
ENDMDL
MODEL 4
REMARK VINA RESULT:      -7.4      2.958      6.070
REMARK  Name = 
REMARK  17 active torsions:
REMARK  status: ('A' for Active; 'I' for Inactive)
REMARK    1  A    between atoms: C_1  and  C_2
REMARK    2  A    between atoms: C_4  and  O_53
REMARK    3  A    between atoms: C_6  and  O_52
REMARK    4  A    between atoms: C_8  and  O_51
REMARK    5  A    between atoms: C_10  and  O_13
REMARK    6  A    between atoms: O_13  and  C_14
REMARK    7  A    between atoms: C_14  and  C_15
REMARK    8  A    between atoms: C_17  and  O_50
REMARK    9  A    between atoms: C_19  and  O_49
REMARK   10  A    between atoms: C_21  and  O_48
REMARK   11  A    between atoms: C_23  and  O_26
REMARK   12  A    between atoms: O_26  and  C_27
REMARK   13  A    between atoms: C_29  and  O_47
REMARK   14  A    between atoms: C_34  and  C_39
REMARK   15  A    between atoms: C_35  and  O_38
REMARK   16  A    between atoms: C_41  and  O_46
REMARK   17  A    between atoms: C_42  and  O_45
REMARK                            x       y       z     vdW  Elec       q    Type
REMARK                         _______ _______ _______ _____ _____    ______ ____
ROOT
ATOM      1  C   UNL     1       8.443  -3.036  24.594  0.00  0.00    +0.179 C 
ATOM      2  O   UNL     1       7.119  -2.535  24.836  0.00  0.00    -0.331 OA
ATOM      3  C   UNL     1       6.707  -2.638  26.206  0.00  0.00    +0.339 C 
ATOM      4  C   UNL     1       6.745  -4.104  26.693  0.00  0.00    +0.214 C 
ATOM      5  C   UNL     1       8.139  -4.688  26.429  0.00  0.00    +0.180 C 
ATOM      6  C   UNL     1       8.536  -4.525  24.961  0.00  0.00    +0.177 C 
ENDROOT
BRANCH   6   7
ATOM      7  O   UNL     1       9.870  -5.026  24.806  0.00  0.00    -0.386 OA
ATOM      8  H   UNL     1      10.306  -4.459  24.142  0.00  0.00    +0.210 HD
ENDBRANCH   6   7
BRANCH   5   9
ATOM      9  O   UNL     1       8.179  -6.074  26.800  0.00  0.00    -0.386 OA
ATOM     10  H   UNL     1       7.245  -6.342  26.913  0.00  0.00    +0.210 HD
ENDBRANCH   5   9
BRANCH   4  11
ATOM     11  O   UNL     1       6.445  -4.145  28.100  0.00  0.00    -0.383 OA
ATOM     12  H   UNL     1       5.479  -4.233  28.194  0.00  0.00    +0.210 HD
ENDBRANCH   4  11
BRANCH   3  13
ATOM     13  O   UNL     1       5.358  -2.146  26.375  0.00  0.00    -0.461 OA
BRANCH  13  14
ATOM     14  C   UNL     1       5.230  -0.851  26.803  0.00  0.00    +0.131 A 
ATOM     15  C   UNL     1       5.501   0.150  25.865  0.00  0.00    +0.093 A 
ATOM     16  C   UNL     1       5.393   1.507  26.217  0.00  0.00    +0.147 A 
ATOM     17  O   UNL     1       5.682   2.436  25.242  0.00  0.00    -0.451 OA
ATOM     18  C   UNL     1       5.518   3.794  25.524  0.00  0.00    +0.181 A 
ATOM     19  C   UNL     1       5.091   4.258  26.717  0.00  0.00    +0.208 A 
ATOM     20  C   UNL     1       4.878   3.289  27.831  0.00  0.00    +0.238 A 
ATOM     21  O   UNL     1       4.587   3.700  28.949  0.00  0.00    -0.283 OA
ATOM     22  C   UNL     1       5.014   1.858  27.511  0.00  0.00    +0.109 A 
ATOM     23  C   UNL     1       4.772   0.850  28.453  0.00  0.00    +0.135 A 
ATOM     24  C   UNL     1       4.888  -0.496  28.104  0.00  0.00    +0.092 A 
BRANCH  18  25
ATOM     25  C   UNL     1       5.865   4.690  24.376  0.00  0.00    +0.025 A 
ATOM     26  C   UNL     1       4.866   5.322  23.605  0.00  0.00    +0.015 A 
ATOM     27  C   UNL     1       5.184   6.107  22.493  0.00  0.00    +0.050 A 
ATOM     28  C   UNL     1       6.514   6.325  22.176  0.00  0.00    +0.158 A 
ATOM     29  C   UNL     1       7.519   5.778  22.965  0.00  0.00    +0.159 A 
ATOM     30  C   UNL     1       7.213   4.950  24.050  0.00  0.00    +0.060 A 
BRANCH  29  31
ATOM     31  O   UNL     1       8.813   6.061  22.615  0.00  0.00    -0.503 OA
ATOM     32  H   UNL     1       9.306   6.284  23.422  0.00  0.00    +0.292 HD
ENDBRANCH  29  31
BRANCH  28  33
ATOM     33  O   UNL     1       6.820   7.108  21.102  0.00  0.00    -0.503 OA
ATOM     34  H   UNL     1       6.764   8.024  21.441  0.00  0.00    +0.292 HD
ENDBRANCH  28  33
ENDBRANCH  18  25
BRANCH  23  35
ATOM     35  O   UNL     1       4.406   1.152  29.734  0.00  0.00    -0.506 OA
ATOM     36  H   UNL     1       4.112   0.356  30.204  0.00  0.00    +0.292 HD
ENDBRANCH  23  35
BRANCH  19  37
ATOM     37  O   UNL     1       4.823   5.586  27.007  0.00  0.00    -0.501 OA
ATOM     38  H   UNL     1       4.066   5.876  26.475  0.00  0.00    +0.292 HD
ENDBRANCH  19  37
ENDBRANCH  13  14
ENDBRANCH   3  13
BRANCH   1  39
ATOM     39  C   UNL     1       8.801  -2.796  23.120  0.00  0.00    +0.197 C 
BRANCH  39  40
ATOM     40  O   UNL     1       9.733  -1.719  23.035  0.00  0.00    -0.346 OA
BRANCH  40  44
ATOM     41  C   UNL     1       6.930   1.544  22.410  0.00  0.00    +0.041 C 
ATOM     42  C   UNL     1       8.369   1.476  21.910  0.00  0.00    +0.149 C 
ATOM     43  O   UNL     1       8.877   0.136  21.903  0.00  0.00    -0.343 OA
ATOM     44  C   UNL     1       9.128  -0.431  23.186  0.00  0.00    +0.282 C 
ATOM     45  C   UNL     1      10.100   0.421  24.033  0.00  0.00    +0.201 C 
ATOM     46  C   UNL     1       9.719   1.908  24.034  0.00  0.00    +0.179 C 
ATOM     47  C   UNL     1       9.360   2.404  22.630  0.00  0.00    +0.174 C 
BRANCH  47  48
ATOM     48  O   UNL     1      10.567   2.466  21.851  0.00  0.00    -0.387 OA
ATOM     49  H   UNL     1      10.611   3.350  21.435  0.00  0.00    +0.210 HD
ENDBRANCH  47  48
BRANCH  46  50
ATOM     50  O   UNL     1       8.669   2.167  24.977  0.00  0.00    -0.386 OA
ATOM     51  H   UNL     1       8.348   1.330  25.353  0.00  0.00    +0.210 HD
ENDBRANCH  46  50
BRANCH  45  52
ATOM     52  O   UNL     1      10.124  -0.073  25.387  0.00  0.00    -0.384 OA
ATOM     53  H   UNL     1       9.848   0.657  25.973  0.00  0.00    +0.210 HD
ENDBRANCH  45  52
ENDBRANCH  40  44
ENDBRANCH  39  40
ENDBRANCH   1  39
TORSDOF 16
ENDMDL
MODEL 5
REMARK VINA RESULT:      -7.3      2.263      8.029
REMARK  Name = 
REMARK  17 active torsions:
REMARK  status: ('A' for Active; 'I' for Inactive)
REMARK    1  A    between atoms: C_1  and  C_2
REMARK    2  A    between atoms: C_4  and  O_53
REMARK    3  A    between atoms: C_6  and  O_52
REMARK    4  A    between atoms: C_8  and  O_51
REMARK    5  A    between atoms: C_10  and  O_13
REMARK    6  A    between atoms: O_13  and  C_14
REMARK    7  A    between atoms: C_14  and  C_15
REMARK    8  A    between atoms: C_17  and  O_50
REMARK    9  A    between atoms: C_19  and  O_49
REMARK   10  A    between atoms: C_21  and  O_48
REMARK   11  A    between atoms: C_23  and  O_26
REMARK   12  A    between atoms: O_26  and  C_27
REMARK   13  A    between atoms: C_29  and  O_47
REMARK   14  A    between atoms: C_34  and  C_39
REMARK   15  A    between atoms: C_35  and  O_38
REMARK   16  A    between atoms: C_41  and  O_46
REMARK   17  A    between atoms: C_42  and  O_45
REMARK                            x       y       z     vdW  Elec       q    Type
REMARK                         _______ _______ _______ _____ _____    ______ ____
ROOT
ATOM      1  C   UNL     1       5.782   3.419  24.511  0.00  0.00    +0.179 C 
ATOM      2  O   UNL     1       5.698   2.157  23.831  0.00  0.00    -0.331 OA
ATOM      3  C   UNL     1       6.898   1.800  23.132  0.00  0.00    +0.339 C 
ATOM      4  C   UNL     1       7.274   2.869  22.083  0.00  0.00    +0.214 C 
ATOM      5  C   UNL     1       7.350   4.242  22.764  0.00  0.00    +0.180 C 
ATOM      6  C   UNL     1       6.055   4.556  23.515  0.00  0.00    +0.177 C 
ENDROOT
BRANCH   6   7
ATOM      7  O   UNL     1       6.226   5.814  24.182  0.00  0.00    -0.386 OA
ATOM      8  H   UNL     1       6.417   6.474  23.489  0.00  0.00    +0.210 HD
ENDBRANCH   6   7
BRANCH   5   9
ATOM      9  O   UNL     1       7.620   5.267  21.796  0.00  0.00    -0.386 OA
ATOM     10  H   UNL     1       8.511   5.065  21.443  0.00  0.00    +0.210 HD
ENDBRANCH   5   9
BRANCH   4  11
ATOM     11  O   UNL     1       8.544   2.533  21.495  0.00  0.00    -0.383 OA
ATOM     12  H   UNL     1       9.169   2.357  22.220  0.00  0.00    +0.210 HD
ENDBRANCH   4  11
BRANCH   3  13
ATOM     13  O   UNL     1       6.736   0.537  22.446  0.00  0.00    -0.461 OA
BRANCH  13  14
ATOM     14  C   UNL     1       7.426  -0.530  22.959  0.00  0.00    +0.131 A 
ATOM     15  C   UNL     1       6.716  -1.390  23.802  0.00  0.00    +0.093 A 
ATOM     16  C   UNL     1       7.344  -2.511  24.372  0.00  0.00    +0.147 A 
ATOM     17  O   UNL     1       6.582  -3.309  25.197  0.00  0.00    -0.451 OA
ATOM     18  C   UNL     1       7.143  -4.473  25.727  0.00  0.00    +0.181 A 
ATOM     19  C   UNL     1       8.410  -4.866  25.479  0.00  0.00    +0.208 A 
ATOM     20  C   UNL     1       9.299  -3.970  24.685  0.00  0.00    +0.238 A 
ATOM     21  O   UNL     1      10.480  -4.261  24.534  0.00  0.00    -0.283 OA
ATOM     22  C   UNL     1       8.685  -2.767  24.097  0.00  0.00    +0.109 A 
ATOM     23  C   UNL     1       9.398  -1.884  23.275  0.00  0.00    +0.135 A 
ATOM     24  C   UNL     1       8.776  -0.767  22.717  0.00  0.00    +0.092 A 
BRANCH  18  25
ATOM     25  C   UNL     1       6.205  -5.245  26.602  0.00  0.00    +0.025 A 
ATOM     26  C   UNL     1       6.313  -5.214  28.009  0.00  0.00    +0.015 A 
ATOM     27  C   UNL     1       5.480  -5.985  28.825  0.00  0.00    +0.050 A 
ATOM     28  C   UNL     1       4.482  -6.749  28.246  0.00  0.00    +0.158 A 
ATOM     29  C   UNL     1       4.303  -6.736  26.867  0.00  0.00    +0.159 A 
ATOM     30  C   UNL     1       5.161  -6.009  26.036  0.00  0.00    +0.060 A 
BRANCH  29  31
ATOM     31  O   UNL     1       3.274  -7.488  26.363  0.00  0.00    -0.503 OA
ATOM     32  H   UNL     1       3.321  -8.374  26.759  0.00  0.00    +0.292 HD
ENDBRANCH  29  31
BRANCH  28  33
ATOM     33  O   UNL     1       3.659  -7.483  29.048  0.00  0.00    -0.503 OA
ATOM     34  H   UNL     1       3.038  -7.921  28.430  0.00  0.00    +0.292 HD
ENDBRANCH  28  33
ENDBRANCH  18  25
BRANCH  23  35
ATOM     35  O   UNL     1      10.717  -2.095  22.987  0.00  0.00    -0.506 OA
ATOM     36  H   UNL     1      10.980  -1.596  22.197  0.00  0.00    +0.292 HD
ENDBRANCH  23  35
BRANCH  19  37
ATOM     37  O   UNL     1       8.973  -6.058  25.905  0.00  0.00    -0.501 OA
ATOM     38  H   UNL     1       9.814  -5.865  26.348  0.00  0.00    +0.292 HD
ENDBRANCH  19  37
ENDBRANCH  13  14
ENDBRANCH   3  13
BRANCH   1  39
ATOM     39  C   UNL     1       4.477   3.652  25.287  0.00  0.00    +0.197 C 
BRANCH  39  40
ATOM     40  O   UNL     1       4.763   3.684  26.683  0.00  0.00    -0.346 OA
BRANCH  40  44
ATOM     41  C   UNL     1       5.286  -0.588  27.288  0.00  0.00    +0.041 C 
ATOM     42  C   UNL     1       4.724   0.408  28.297  0.00  0.00    +0.149 C 
ATOM     43  O   UNL     1       4.287   1.622  27.673  0.00  0.00    -0.343 OA
ATOM     44  C   UNL     1       5.326   2.464  27.178  0.00  0.00    +0.282 C 
ATOM     45  C   UNL     1       6.346   2.855  28.270  0.00  0.00    +0.201 C 
ATOM     46  C   UNL     1       6.816   1.642  29.086  0.00  0.00    +0.179 C 
ATOM     47  C   UNL     1       5.647   0.735  29.481  0.00  0.00    +0.174 C 
BRANCH  47  48
ATOM     48  O   UNL     1       4.869   1.412  30.484  0.00  0.00    -0.387 OA
ATOM     49  H   UNL     1       5.487   1.774  31.150  0.00  0.00    +0.210 HD
ENDBRANCH  47  48
BRANCH  46  50
ATOM     50  O   UNL     1       7.839   0.920  28.387  0.00  0.00    -0.386 OA
ATOM     51  H   UNL     1       7.796   1.122  27.437  0.00  0.00    +0.210 HD
ENDBRANCH  46  50
BRANCH  45  52
ATOM     52  O   UNL     1       7.484   3.499  27.663  0.00  0.00    -0.384 OA
ATOM     53  H   UNL     1       7.401   4.458  27.824  0.00  0.00    +0.210 HD
ENDBRANCH  45  52
ENDBRANCH  40  44
ENDBRANCH  39  40
ENDBRANCH   1  39
TORSDOF 16
ENDMDL
MODEL 6
REMARK VINA RESULT:      -7.2      2.062      8.424
REMARK  Name = 
REMARK  17 active torsions:
REMARK  status: ('A' for Active; 'I' for Inactive)
REMARK    1  A    between atoms: C_1  and  C_2
REMARK    2  A    between atoms: C_4  and  O_53
REMARK    3  A    between atoms: C_6  and  O_52
REMARK    4  A    between atoms: C_8  and  O_51
REMARK    5  A    between atoms: C_10  and  O_13
REMARK    6  A    between atoms: O_13  and  C_14
REMARK    7  A    between atoms: C_14  and  C_15
REMARK    8  A    between atoms: C_17  and  O_50
REMARK    9  A    between atoms: C_19  and  O_49
REMARK   10  A    between atoms: C_21  and  O_48
REMARK   11  A    between atoms: C_23  and  O_26
REMARK   12  A    between atoms: O_26  and  C_27
REMARK   13  A    between atoms: C_29  and  O_47
REMARK   14  A    between atoms: C_34  and  C_39
REMARK   15  A    between atoms: C_35  and  O_38
REMARK   16  A    between atoms: C_41  and  O_46
REMARK   17  A    between atoms: C_42  and  O_45
REMARK                            x       y       z     vdW  Elec       q    Type
REMARK                         _______ _______ _______ _____ _____    ______ ____
ROOT
ATOM      1  C   UNL     1       9.679   1.495  23.915  0.00  0.00    +0.179 C 
ATOM      2  O   UNL     1       9.197   0.594  24.924  0.00  0.00    -0.331 OA
ATOM      3  C   UNL     1       9.814  -0.700  24.881  0.00  0.00    +0.339 C 
ATOM      4  C   UNL     1       9.596  -1.378  23.510  0.00  0.00    +0.214 C 
ATOM      5  C   UNL     1      10.075  -0.436  22.398  0.00  0.00    +0.180 C 
ATOM      6  C   UNL     1       9.406   0.934  22.511  0.00  0.00    +0.177 C 
ENDROOT
BRANCH   6   7
ATOM      7  O   UNL     1       9.952   1.778  21.489  0.00  0.00    -0.386 OA
ATOM      8  H   UNL     1      10.920   1.653  21.511  0.00  0.00    +0.210 HD
ENDBRANCH   6   7
BRANCH   5   9
ATOM      9  O   UNL     1       9.810  -1.009  21.108  0.00  0.00    -0.386 OA
ATOM     10  H   UNL     1      10.390  -0.528  20.484  0.00  0.00    +0.210 HD
ENDBRANCH   5   9
BRANCH   4  11
ATOM     11  O   UNL     1      10.332  -2.614  23.468  0.00  0.00    -0.383 OA
ATOM     12  H   UNL     1      11.155  -2.487  23.974  0.00  0.00    +0.210 HD
ENDBRANCH   4  11
BRANCH   3  13
ATOM     13  O   UNL     1       9.265  -1.565  25.900  0.00  0.00    -0.461 OA
BRANCH  13  14
ATOM     14  C   UNL     1       7.903  -1.542  26.053  0.00  0.00    +0.131 A 
ATOM     15  C   UNL     1       7.194  -2.629  25.534  0.00  0.00    +0.093 A 
ATOM     16  C   UNL     1       5.794  -2.688  25.647  0.00  0.00    +0.147 A 
ATOM     17  O   UNL     1       5.163  -3.786  25.106  0.00  0.00    -0.451 OA
ATOM     18  C   UNL     1       3.782  -3.923  25.258  0.00  0.00    +0.181 A 
ATOM     19  C   UNL     1       3.014  -3.026  25.912  0.00  0.00    +0.208 A 
ATOM     20  C   UNL     1       3.644  -1.769  26.411  0.00  0.00    +0.238 A 
ATOM     21  O   UNL     1       2.947  -0.898  26.917  0.00  0.00    -0.283 OA
ATOM     22  C   UNL     1       5.107  -1.655  26.281  0.00  0.00    +0.109 A 
ATOM     23  C   UNL     1       5.822  -0.555  26.774  0.00  0.00    +0.135 A 
ATOM     24  C   UNL     1       7.211  -0.494  26.652  0.00  0.00    +0.092 A 
BRANCH  18  25
ATOM     25  C   UNL     1       3.230  -5.162  24.624  0.00  0.00    +0.025 A 
ATOM     26  C   UNL     1       2.571  -5.123  23.376  0.00  0.00    +0.015 A 
ATOM     27  C   UNL     1       1.998  -6.267  22.813  0.00  0.00    +0.050 A 
ATOM     28  C   UNL     1       2.132  -7.482  23.462  0.00  0.00    +0.158 A 
ATOM     29  C   UNL     1       2.843  -7.562  24.654  0.00  0.00    +0.159 A 
ATOM     30  C   UNL     1       3.378  -6.417  25.253  0.00  0.00    +0.060 A 
BRANCH  29  31
ATOM     31  O   UNL     1       2.967  -8.802  25.225  0.00  0.00    -0.503 OA
ATOM     32  H   UNL     1       2.090  -9.218  25.244  0.00  0.00    +0.292 HD
ENDBRANCH  29  31
BRANCH  28  33
ATOM     33  O   UNL     1       1.588  -8.598  22.899  0.00  0.00    -0.503 OA
ATOM     34  H   UNL     1       0.629  -8.521  23.074  0.00  0.00    +0.292 HD
ENDBRANCH  28  33
ENDBRANCH  18  25
BRANCH  23  35
ATOM     35  O   UNL     1       5.185   0.482  27.395  0.00  0.00    -0.506 OA
ATOM     36  H   UNL     1       5.127   0.326  28.350  0.00  0.00    +0.292 HD
ENDBRANCH  23  35
BRANCH  19  37
ATOM     37  O   UNL     1       1.661  -3.171  26.168  0.00  0.00    -0.501 OA
ATOM     38  H   UNL     1       1.179  -3.147  25.327  0.00  0.00    +0.292 HD
ENDBRANCH  19  37
ENDBRANCH  13  14
ENDBRANCH   3  13
BRANCH   1  39
ATOM     39  C   UNL     1       9.012   2.864  24.115  0.00  0.00    +0.197 C 
BRANCH  39  40
ATOM     40  O   UNL     1       8.165   3.138  23.001  0.00  0.00    -0.346 OA
BRANCH  40  44
ATOM     41  C   UNL     1       4.674   5.563  23.912  0.00  0.00    +0.041 C 
ATOM     42  C   UNL     1       5.542   4.810  24.915  0.00  0.00    +0.149 C 
ATOM     43  O   UNL     1       6.825   4.473  24.373  0.00  0.00    -0.343 OA
ATOM     44  C   UNL     1       6.820   3.456  23.374  0.00  0.00    +0.282 C 
ATOM     45  C   UNL     1       6.172   2.142  23.865  0.00  0.00    +0.201 C 
ATOM     46  C   UNL     1       4.827   2.385  24.565  0.00  0.00    +0.179 C 
ATOM     47  C   UNL     1       4.897   3.564  25.539  0.00  0.00    +0.174 C 
BRANCH  47  48
ATOM     48  O   UNL     1       5.688   3.167  26.672  0.00  0.00    -0.387 OA
ATOM     49  H   UNL     1       6.630   3.269  26.432  0.00  0.00    +0.210 HD
ENDBRANCH  47  48
BRANCH  46  50
ATOM     50  O   UNL     1       3.772   2.547  23.605  0.00  0.00    -0.386 OA
ATOM     51  H   UNL     1       2.978   2.897  24.043  0.00  0.00    +0.210 HD
ENDBRANCH  46  50
BRANCH  45  52
ATOM     52  O   UNL     1       5.983   1.248  22.751  0.00  0.00    -0.384 OA
ATOM     53  H   UNL     1       5.185   0.715  22.931  0.00  0.00    +0.210 HD
ENDBRANCH  45  52
ENDBRANCH  40  44
ENDBRANCH  39  40
ENDBRANCH   1  39
TORSDOF 16
ENDMDL
MODEL 7
REMARK VINA RESULT:      -7.2      1.830      8.666
REMARK  Name = 
REMARK  17 active torsions:
REMARK  status: ('A' for Active; 'I' for Inactive)
REMARK    1  A    between atoms: C_1  and  C_2
REMARK    2  A    between atoms: C_4  and  O_53
REMARK    3  A    between atoms: C_6  and  O_52
REMARK    4  A    between atoms: C_8  and  O_51
REMARK    5  A    between atoms: C_10  and  O_13
REMARK    6  A    between atoms: O_13  and  C_14
REMARK    7  A    between atoms: C_14  and  C_15
REMARK    8  A    between atoms: C_17  and  O_50
REMARK    9  A    between atoms: C_19  and  O_49
REMARK   10  A    between atoms: C_21  and  O_48
REMARK   11  A    between atoms: C_23  and  O_26
REMARK   12  A    between atoms: O_26  and  C_27
REMARK   13  A    between atoms: C_29  and  O_47
REMARK   14  A    between atoms: C_34  and  C_39
REMARK   15  A    between atoms: C_35  and  O_38
REMARK   16  A    between atoms: C_41  and  O_46
REMARK   17  A    between atoms: C_42  and  O_45
REMARK                            x       y       z     vdW  Elec       q    Type
REMARK                         _______ _______ _______ _____ _____    ______ ____
ROOT
ATOM      1  C   UNL     1       9.074  -1.008  23.349  0.00  0.00    +0.179 C 
ATOM      2  O   UNL     1       8.982  -0.403  24.648  0.00  0.00    -0.331 OA
ATOM      3  C   UNL     1       8.226   0.816  24.663  0.00  0.00    +0.339 C 
ATOM      4  C   UNL     1       8.835   1.863  23.705  0.00  0.00    +0.214 C 
ATOM      5  C   UNL     1       8.974   1.249  22.306  0.00  0.00    +0.180 C 
ATOM      6  C   UNL     1       9.764  -0.060  22.356  0.00  0.00    +0.177 C 
ENDROOT
BRANCH   6   7
ATOM      7  O   UNL     1       9.792  -0.610  21.032  0.00  0.00    -0.386 OA
ATOM      8  H   UNL     1       8.901  -0.968  20.859  0.00  0.00    +0.210 HD
ENDBRANCH   6   7
BRANCH   5   9
ATOM      9  O   UNL     1       9.611   2.175  21.413  0.00  0.00    -0.386 OA
ATOM     10  H   UNL     1      10.569   2.110  21.607  0.00  0.00    +0.210 HD
ENDBRANCH   5   9
BRANCH   4  11
ATOM     11  O   UNL     1       7.979   3.020  23.658  0.00  0.00    -0.383 OA
ATOM     12  H   UNL     1       7.416   2.941  22.867  0.00  0.00    +0.210 HD
ENDBRANCH   4  11
BRANCH   3  13
ATOM     13  O   UNL     1       8.199   1.387  25.991  0.00  0.00    -0.461 OA
BRANCH  13  14
ATOM     14  C   UNL     1       7.151   1.018  26.793  0.00  0.00    +0.131 A 
ATOM     15  C   UNL     1       6.659  -0.280  26.626  0.00  0.00    +0.093 A 
ATOM     16  C   UNL     1       5.586  -0.743  27.408  0.00  0.00    +0.147 A 
ATOM     17  O   UNL     1       5.152  -2.031  27.184  0.00  0.00    -0.451 OA
ATOM     18  C   UNL     1       4.138  -2.558  27.986  0.00  0.00    +0.181 A 
ATOM     19  C   UNL     1       3.544  -1.867  28.982  0.00  0.00    +0.208 A 
ATOM     20  C   UNL     1       3.908  -0.434  29.180  0.00  0.00    +0.238 A 
ATOM     21  O   UNL     1       3.309   0.238  30.011  0.00  0.00    -0.283 OA
ATOM     22  C   UNL     1       5.007   0.098  28.355  0.00  0.00    +0.109 A 
ATOM     23  C   UNL     1       5.486   1.408  28.496  0.00  0.00    +0.135 A 
ATOM     24  C   UNL     1       6.545   1.869  27.713  0.00  0.00    +0.092 A 
BRANCH  18  25
ATOM     25  C   UNL     1       3.767  -3.965  27.635  0.00  0.00    +0.025 A 
ATOM     26  C   UNL     1       2.777  -4.249  26.670  0.00  0.00    +0.015 A 
ATOM     27  C   UNL     1       2.383  -5.561  26.388  0.00  0.00    +0.050 A 
ATOM     28  C   UNL     1       3.023  -6.612  27.021  0.00  0.00    +0.158 A 
ATOM     29  C   UNL     1       4.056  -6.363  27.918  0.00  0.00    +0.159 A 
ATOM     30  C   UNL     1       4.425  -5.054  28.247  0.00  0.00    +0.060 A 
BRANCH  29  31
ATOM     31  O   UNL     1       4.669  -7.450  28.483  0.00  0.00    -0.503 OA
ATOM     32  H   UNL     1       5.619  -7.402  28.284  0.00  0.00    +0.292 HD
ENDBRANCH  29  31
BRANCH  28  33
ATOM     33  O   UNL     1       2.649  -7.890  26.727  0.00  0.00    -0.503 OA
ATOM     34  H   UNL     1       2.495  -8.308  27.598  0.00  0.00    +0.292 HD
ENDBRANCH  28  33
ENDBRANCH  18  25
BRANCH  23  35
ATOM     35  O   UNL     1       4.940   2.267  29.408  0.00  0.00    -0.506 OA
ATOM     36  H   UNL     1       5.606   2.548  30.055  0.00  0.00    +0.292 HD
ENDBRANCH  23  35
BRANCH  19  37
ATOM     37  O   UNL     1       2.605  -2.383  29.861  0.00  0.00    -0.501 OA
ATOM     38  H   UNL     1       3.063  -2.919  30.527  0.00  0.00    +0.292 HD
ENDBRANCH  19  37
ENDBRANCH  13  14
ENDBRANCH   3  13
BRANCH   1  39
ATOM     39  C   UNL     1       9.828  -2.340  23.475  0.00  0.00    +0.197 C 
BRANCH  39  40
ATOM     40  O   UNL     1       9.227  -3.122  24.504  0.00  0.00    -0.346 OA
BRANCH  40  44
ATOM     41  C   UNL     1       7.195  -6.031  21.993  0.00  0.00    +0.041 C 
ATOM     42  C   UNL     1       6.929  -4.529  22.039  0.00  0.00    +0.149 C 
ATOM     43  O   UNL     1       8.018  -3.805  22.625  0.00  0.00    -0.343 OA
ATOM     44  C   UNL     1       8.184  -3.980  24.030  0.00  0.00    +0.282 C 
ATOM     45  C   UNL     1       6.912  -3.618  24.830  0.00  0.00    +0.201 C 
ATOM     46  C   UNL     1       5.650  -4.256  24.232  0.00  0.00    +0.179 C 
ATOM     47  C   UNL     1       5.609  -4.116  22.707  0.00  0.00    +0.174 C 
BRANCH  47  48
ATOM     48  O   UNL     1       5.355  -2.737  22.388  0.00  0.00    -0.387 OA
ATOM     49  H   UNL     1       5.997  -2.464  21.702  0.00  0.00    +0.210 HD
ENDBRANCH  47  48
BRANCH  46  50
ATOM     50  O   UNL     1       5.522  -5.624  24.645  0.00  0.00    -0.386 OA
ATOM     51  H   UNL     1       5.100  -5.667  25.520  0.00  0.00    +0.210 HD
ENDBRANCH  46  50
BRANCH  45  52
ATOM     52  O   UNL     1       7.064  -4.039  26.200  0.00  0.00    -0.384 OA
ATOM     53  H   UNL     1       6.412  -3.548  26.734  0.00  0.00    +0.210 HD
ENDBRANCH  45  52
ENDBRANCH  40  44
ENDBRANCH  39  40
ENDBRANCH   1  39
TORSDOF 16
ENDMDL
MODEL 8
REMARK VINA RESULT:      -7.2      2.606      8.676
REMARK  Name = 
REMARK  17 active torsions:
REMARK  status: ('A' for Active; 'I' for Inactive)
REMARK    1  A    between atoms: C_1  and  C_2
REMARK    2  A    between atoms: C_4  and  O_53
REMARK    3  A    between atoms: C_6  and  O_52
REMARK    4  A    between atoms: C_8  and  O_51
REMARK    5  A    between atoms: C_10  and  O_13
REMARK    6  A    between atoms: O_13  and  C_14
REMARK    7  A    between atoms: C_14  and  C_15
REMARK    8  A    between atoms: C_17  and  O_50
REMARK    9  A    between atoms: C_19  and  O_49
REMARK   10  A    between atoms: C_21  and  O_48
REMARK   11  A    between atoms: C_23  and  O_26
REMARK   12  A    between atoms: O_26  and  C_27
REMARK   13  A    between atoms: C_29  and  O_47
REMARK   14  A    between atoms: C_34  and  C_39
REMARK   15  A    between atoms: C_35  and  O_38
REMARK   16  A    between atoms: C_41  and  O_46
REMARK   17  A    between atoms: C_42  and  O_45
REMARK                            x       y       z     vdW  Elec       q    Type
REMARK                         _______ _______ _______ _____ _____    ______ ____
ROOT
ATOM      1  C   UNL     1       7.431   4.098  23.667  0.00  0.00    +0.179 C 
ATOM      2  O   UNL     1       6.750   3.898  24.915  0.00  0.00    -0.331 OA
ATOM      3  C   UNL     1       5.340   3.679  24.772  0.00  0.00    +0.339 C 
ATOM      4  C   UNL     1       4.659   4.866  24.057  0.00  0.00    +0.214 C 
ATOM      5  C   UNL     1       5.373   5.131  22.725  0.00  0.00    +0.180 C 
ATOM      6  C   UNL     1       6.875   5.329  22.936  0.00  0.00    +0.177 C 
ENDROOT
BRANCH   6   7
ATOM      7  O   UNL     1       7.483   5.500  21.649  0.00  0.00    -0.386 OA
ATOM      8  H   UNL     1       8.181   4.822  21.577  0.00  0.00    +0.210 HD
ENDBRANCH   6   7
BRANCH   5   9
ATOM      9  O   UNL     1       4.811   6.282  22.076  0.00  0.00    -0.386 OA
ATOM     10  H   UNL     1       5.330   6.399  21.254  0.00  0.00    +0.210 HD
ENDBRANCH   5   9
BRANCH   4  11
ATOM     11  O   UNL     1       3.274   4.551  23.826  0.00  0.00    -0.383 OA
ATOM     12  H   UNL     1       2.918   4.160  24.644  0.00  0.00    +0.210 HD
ENDBRANCH   4  11
BRANCH   3  13
ATOM     13  O   UNL     1       4.712   3.515  26.064  0.00  0.00    -0.461 OA
BRANCH  13  14
ATOM     14  C   UNL     1       4.358   2.239  26.414  0.00  0.00    +0.131 A 
ATOM     15  C   UNL     1       5.235   1.218  26.037  0.00  0.00    +0.093 A 
ATOM     16  C   UNL     1       4.952  -0.122  26.356  0.00  0.00    +0.147 A 
ATOM     17  O   UNL     1       5.859  -1.073  25.945  0.00  0.00    -0.451 OA
ATOM     18  C   UNL     1       5.657  -2.408  26.302  0.00  0.00    +0.181 A 
ATOM     19  C   UNL     1       4.604  -2.829  27.035  0.00  0.00    +0.208 A 
ATOM     20  C   UNL     1       3.542  -1.846  27.399  0.00  0.00    +0.238 A 
ATOM     21  O   UNL     1       2.531  -2.228  27.976  0.00  0.00    -0.283 OA
ATOM     22  C   UNL     1       3.787  -0.436  27.053  0.00  0.00    +0.109 A 
ATOM     23  C   UNL     1       2.899   0.590  27.402  0.00  0.00    +0.135 A 
ATOM     24  C   UNL     1       3.177   1.918  27.077  0.00  0.00    +0.092 A 
BRANCH  18  25
ATOM     25  C   UNL     1       6.719  -3.332  25.793  0.00  0.00    +0.025 A 
ATOM     26  C   UNL     1       6.686  -3.841  24.477  0.00  0.00    +0.015 A 
ATOM     27  C   UNL     1       7.640  -4.755  24.020  0.00  0.00    +0.050 A 
ATOM     28  C   UNL     1       8.680  -5.123  24.856  0.00  0.00    +0.158 A 
ATOM     29  C   UNL     1       8.779  -4.577  26.131  0.00  0.00    +0.159 A 
ATOM     30  C   UNL     1       7.804  -3.700  26.617  0.00  0.00    +0.060 A 
BRANCH  29  31
ATOM     31  O   UNL     1       9.853  -4.958  26.892  0.00  0.00    -0.503 OA
ATOM     32  H   UNL     1      10.509  -4.241  26.876  0.00  0.00    +0.292 HD
ENDBRANCH  29  31
BRANCH  28  33
ATOM     33  O   UNL     1       9.620  -5.999  24.399  0.00  0.00    -0.503 OA
ATOM     34  H   UNL     1      10.203  -6.160  25.169  0.00  0.00    +0.292 HD
ENDBRANCH  28  33
ENDBRANCH  18  25
BRANCH  23  35
ATOM     35  O   UNL     1       1.742   0.324  28.079  0.00  0.00    -0.506 OA
ATOM     36  H   UNL     1       1.772   0.702  28.972  0.00  0.00    +0.292 HD
ENDBRANCH  23  35
BRANCH  19  37
ATOM     37  O   UNL     1       4.416  -4.123  27.491  0.00  0.00    -0.501 OA
ATOM     38  H   UNL     1       4.687  -4.742  26.795  0.00  0.00    +0.292 HD
ENDBRANCH  19  37
ENDBRANCH  13  14
ENDBRANCH   3  13
BRANCH   1  39
ATOM     39  C   UNL     1       8.936   4.236  23.940  0.00  0.00    +0.197 C 
BRANCH  39  40
ATOM     40  O   UNL     1       9.456   2.971  24.342  0.00  0.00    -0.346 OA
BRANCH  40  44
ATOM     41  C   UNL     1       6.825  -0.188  22.929  0.00  0.00    +0.041 C 
ATOM     42  C   UNL     1       8.126  -0.370  23.703  0.00  0.00    +0.149 C 
ATOM     43  O   UNL     1       8.525   0.828  24.380  0.00  0.00    -0.343 OA
ATOM     44  C   UNL     1       8.987   1.882  23.539  0.00  0.00    +0.282 C 
ATOM     45  C   UNL     1      10.167   1.452  22.639  0.00  0.00    +0.201 C 
ATOM     46  C   UNL     1       9.901   0.115  21.933  0.00  0.00    +0.179 C 
ATOM     47  C   UNL     1       9.304  -0.924  22.887  0.00  0.00    +0.174 C 
BRANCH  47  48
ATOM     48  O   UNL     1      10.332  -1.337  23.804  0.00  0.00    -0.387 OA
ATOM     49  H   UNL     1      11.197  -1.196  23.369  0.00  0.00    +0.210 HD
ENDBRANCH  47  48
BRANCH  46  50
ATOM     50  O   UNL     1       9.082   0.304  20.770  0.00  0.00    -0.386 OA
ATOM     51  H   UNL     1       8.142   0.265  21.018  0.00  0.00    +0.210 HD
ENDBRANCH  46  50
BRANCH  45  52
ATOM     52  O   UNL     1      10.426   2.474  21.657  0.00  0.00    -0.384 OA
ATOM     53  H   UNL     1      10.111   2.143  20.795  0.00  0.00    +0.210 HD
ENDBRANCH  45  52
ENDBRANCH  40  44
ENDBRANCH  39  40
ENDBRANCH   1  39
TORSDOF 16
ENDMDL
MODEL 9
REMARK VINA RESULT:      -7.1      1.814      8.818
REMARK  Name = 
REMARK  17 active torsions:
REMARK  status: ('A' for Active; 'I' for Inactive)
REMARK    1  A    between atoms: C_1  and  C_2
REMARK    2  A    between atoms: C_4  and  O_53
REMARK    3  A    between atoms: C_6  and  O_52
REMARK    4  A    between atoms: C_8  and  O_51
REMARK    5  A    between atoms: C_10  and  O_13
REMARK    6  A    between atoms: O_13  and  C_14
REMARK    7  A    between atoms: C_14  and  C_15
REMARK    8  A    between atoms: C_17  and  O_50
REMARK    9  A    between atoms: C_19  and  O_49
REMARK   10  A    between atoms: C_21  and  O_48
REMARK   11  A    between atoms: C_23  and  O_26
REMARK   12  A    between atoms: O_26  and  C_27
REMARK   13  A    between atoms: C_29  and  O_47
REMARK   14  A    between atoms: C_34  and  C_39
REMARK   15  A    between atoms: C_35  and  O_38
REMARK   16  A    between atoms: C_41  and  O_46
REMARK   17  A    between atoms: C_42  and  O_45
REMARK                            x       y       z     vdW  Elec       q    Type
REMARK                         _______ _______ _______ _____ _____    ______ ____
ROOT
ATOM      1  C   UNL     1       9.195   0.422  23.226  0.00  0.00    +0.179 C 
ATOM      2  O   UNL     1       8.785   0.337  24.600  0.00  0.00    -0.331 OA
ATOM      3  C   UNL     1       7.804   1.316  24.968  0.00  0.00    +0.339 C 
ATOM      4  C   UNL     1       8.327   2.749  24.728  0.00  0.00    +0.214 C 
ATOM      5  C   UNL     1       8.800   2.878  23.274  0.00  0.00    +0.180 C 
ATOM      6  C   UNL     1       9.822   1.793  22.930  0.00  0.00    +0.177 C 
ENDROOT
BRANCH   6   7
ATOM      7  O   UNL     1      10.163   1.931  21.544  0.00  0.00    -0.386 OA
ATOM      8  H   UNL     1      10.822   1.239  21.348  0.00  0.00    +0.210 HD
ENDBRANCH   6   7
BRANCH   5   9
ATOM      9  O   UNL     1       9.365   4.178  23.044  0.00  0.00    -0.386 OA
ATOM     10  H   UNL     1       9.518   4.230  22.079  0.00  0.00    +0.210 HD
ENDBRANCH   5   9
BRANCH   4  11
ATOM     11  O   UNL     1       7.271   3.691  24.993  0.00  0.00    -0.383 OA
ATOM     12  H   UNL     1       6.746   3.346  25.738  0.00  0.00    +0.210 HD
ENDBRANCH   4  11
BRANCH   3  13
ATOM     13  O   UNL     1       7.458   1.195  26.367  0.00  0.00    -0.461 OA
BRANCH  13  14
ATOM     14  C   UNL     1       6.203   0.722  26.647  0.00  0.00    +0.131 A 
ATOM     15  C   UNL     1       5.896  -0.559  26.180  0.00  0.00    +0.093 A 
ATOM     16  C   UNL     1       4.632  -1.124  26.423  0.00  0.00    +0.147 A 
ATOM     17  O   UNL     1       4.399  -2.387  25.926  0.00  0.00    -0.451 OA
ATOM     18  C   UNL     1       3.184  -3.017  26.206  0.00  0.00    +0.181 A 
ATOM     19  C   UNL     1       2.206  -2.449  26.942  0.00  0.00    +0.208 A 
ATOM     20  C   UNL     1       2.375  -1.040  27.399  0.00  0.00    +0.238 A 
ATOM     21  O   UNL     1       1.458  -0.473  27.982  0.00  0.00    -0.283 OA
ATOM     22  C   UNL     1       3.676  -0.401  27.134  0.00  0.00    +0.109 A 
ATOM     23  C   UNL     1       3.982   0.894  27.574  0.00  0.00    +0.135 A 
ATOM     24  C   UNL     1       5.234   1.456  27.324  0.00  0.00    +0.092 A 
BRANCH  18  25
ATOM     25  C   UNL     1       3.067  -4.384  25.608  0.00  0.00    +0.025 A 
ATOM     26  C   UNL     1       3.447  -5.539  26.325  0.00  0.00    +0.015 A 
ATOM     27  C   UNL     1       3.400  -6.811  25.746  0.00  0.00    +0.050 A 
ATOM     28  C   UNL     1       2.909  -6.952  24.461  0.00  0.00    +0.158 A 
ATOM     29  C   UNL     1       2.455  -5.840  23.760  0.00  0.00    +0.159 A 
ATOM     30  C   UNL     1       2.543  -4.557  24.309  0.00  0.00    +0.060 A 
BRANCH  29  31
ATOM     31  O   UNL     1       1.949  -6.056  22.505  0.00  0.00    -0.503 OA
ATOM     32  H   UNL     1       2.391  -5.449  21.888  0.00  0.00    +0.292 HD
ENDBRANCH  29  31
BRANCH  28  33
ATOM     33  O   UNL     1       2.846  -8.197  23.907  0.00  0.00    -0.503 OA
ATOM     34  H   UNL     1       2.436  -8.754  24.599  0.00  0.00    +0.292 HD
ENDBRANCH  28  33
ENDBRANCH  18  25
BRANCH  23  35
ATOM     35  O   UNL     1       3.070   1.639  28.268  0.00  0.00    -0.506 OA
ATOM     36  H   UNL     1       2.332   1.897  27.696  0.00  0.00    +0.292 HD
ENDBRANCH  23  35
BRANCH  19  37
ATOM     37  O   UNL     1       1.029  -3.074  27.322  0.00  0.00    -0.501 OA
ATOM     38  H   UNL     1       0.975  -3.076  28.291  0.00  0.00    +0.292 HD
ENDBRANCH  19  37
ENDBRANCH  13  14
ENDBRANCH   3  13
BRANCH   1  39
ATOM     39  C   UNL     1      10.176  -0.722  22.930  0.00  0.00    +0.197 C 
BRANCH  39  40
ATOM     40  O   UNL     1       9.447  -1.851  22.453  0.00  0.00    -0.346 OA
BRANCH  40  44
ATOM     41  C   UNL     1       8.256  -3.042  26.460  0.00  0.00    +0.041 C 
ATOM     42  C   UNL     1       9.113  -3.850  25.490  0.00  0.00    +0.149 C 
ATOM     43  O   UNL     1       9.674  -3.034  24.454  0.00  0.00    -0.343 OA
ATOM     44  C   UNL     1       8.746  -2.553  23.484  0.00  0.00    +0.282 C 
ATOM     45  C   UNL     1       7.963  -3.692  22.794  0.00  0.00    +0.201 C 
ATOM     46  C   UNL     1       7.396  -4.701  23.803  0.00  0.00    +0.179 C 
ATOM     47  C   UNL     1       8.427  -5.077  24.872  0.00  0.00    +0.174 C 
BRANCH  47  48
ATOM     48  O   UNL     1       9.436  -5.896  24.256  0.00  0.00    -0.387 OA
ATOM     49  H   UNL     1       8.986  -6.553  23.689  0.00  0.00    +0.210 HD
ENDBRANCH  47  48
BRANCH  46  50
ATOM     50  O   UNL     1       6.178  -4.214  24.385  0.00  0.00    -0.386 OA
ATOM     51  H   UNL     1       5.480  -4.885  24.300  0.00  0.00    +0.210 HD
ENDBRANCH  46  50
BRANCH  45  52
ATOM     52  O   UNL     1       6.889  -3.137  22.010  0.00  0.00    -0.384 OA
ATOM     53  H   UNL     1       7.154  -2.237  21.740  0.00  0.00    +0.210 HD
ENDBRANCH  45  52
ENDBRANCH  40  44
ENDBRANCH  39  40
ENDBRANCH   1  39
TORSDOF 16
ENDMDL
