MODEL 1
REMARK VINA RESULT:      -7.2      0.000      0.000
REMARK  Name = 
REMARK  14 active torsions:
REMARK  status: ('A' for Active; 'I' for Inactive)
REMARK    1  A    between atoms: C_1  and  O_2
REMARK    2  A    between atoms: O_2  and  C_3
REMARK    3  A    between atoms: C_7  and  O_9
REMARK    4  A    between atoms: O_9  and  C_10
REMARK    5  A    between atoms: C_12  and  O_23
REMARK    6  A    between atoms: C_13  and  O_22
REMARK    7  A    between atoms: C_15  and  O_21
REMARK    8  A    between atoms: C_17  and  C_19
REMARK    9  A    between atoms: C_19  and  O_20
REMARK   10  A    between atoms: C_26  and  O_37
REMARK   11  A    between atoms: C_27  and  C_29
REMARK   12  A    between atoms: C_31  and  O_36
REMARK   13  A    between atoms: C_32  and  O_35
REMARK   14  A    between atoms: O_37  and  C_38
REMARK                            x       y       z     vdW  Elec       q    Type
REMARK                         _______ _______ _______ _____ _____    ______ ____
ROOT
ATOM      1  C   UNL     1       7.110  -4.971  22.778  0.00  0.00    +0.127 A 
ATOM      2  C   UNL     1       6.429  -5.322  23.946  0.00  0.00    +0.092 A 
ATOM      3  C   UNL     1       6.190  -4.399  24.978  0.00  0.00    +0.142 A 
ATOM      4  C   UNL     1       6.782  -3.117  24.866  0.00  0.00    +0.110 A 
ATOM      5  C   UNL     1       6.715  -2.075  25.924  0.00  0.00    +0.238 A 
ATOM      6  C   UNL     1       7.487  -0.801  25.689  0.00  0.00    +0.211 A 
ATOM      7  C   UNL     1       8.107  -0.649  24.503  0.00  0.00    +0.181 A 
ATOM      8  O   UNL     1       8.082  -1.566  23.479  0.00  0.00    -0.451 OA
ATOM      9  O   UNL     1       6.069  -2.265  26.948  0.00  0.00    -0.283 OA
ATOM     10  C   UNL     1       7.488  -2.784  23.702  0.00  0.00    +0.147 A 
ATOM     11  C   UNL     1       7.625  -3.692  22.650  0.00  0.00    +0.092 A 
ENDROOT
BRANCH   7  12
ATOM     12  C   UNL     1       8.914   0.553  24.200  0.00  0.00    +0.025 A 
ATOM     13  C   UNL     1      10.289   0.586  24.478  0.00  0.00    +0.015 A 
ATOM     14  C   UNL     1      11.064   1.692  24.100  0.00  0.00    +0.050 A 
ATOM     15  C   UNL     1      10.458   2.749  23.444  0.00  0.00    +0.158 A 
ATOM     16  C   UNL     1       9.093   2.738  23.181  0.00  0.00    +0.159 A 
ATOM     17  C   UNL     1       8.312   1.654  23.566  0.00  0.00    +0.060 A 
BRANCH  15  18
ATOM     18  O   UNL     1      11.221   3.809  23.035  0.00  0.00    -0.503 OA
ATOM     19  H   UNL     1      11.682   3.485  22.238  0.00  0.00    +0.292 HD
ENDBRANCH  15  18
BRANCH  16  20
ATOM     20  O   UNL     1       8.566   3.820  22.529  0.00  0.00    -0.503 OA
ATOM     21  H   UNL     1       8.052   3.473  21.767  0.00  0.00    +0.292 HD
ENDBRANCH  16  20
ENDBRANCH   7  12
BRANCH   1  23
ATOM     22  C   UNL     1       6.166  -5.957  20.831  0.00  0.00    +0.277 C 
ATOM     23  O   UNL     1       7.170  -5.962  21.841  0.00  0.00    -0.495 OA
ENDBRANCH   1  23
BRANCH   6  24
ATOM     24  O   UNL     1       7.641   0.184  26.658  0.00  0.00    -0.488 OA
ATOM     25  C   UNL     1       6.549   1.069  26.851  0.00  0.00    +0.277 C 
ENDBRANCH   6  24
BRANCH   3  26
ATOM     26  O   UNL     1       5.367  -4.696  26.053  0.00  0.00    -0.460 OA
BRANCH  26  27
ATOM     27  C   UNL     1       5.306  -6.076  26.489  0.00  0.00    +0.339 C 
ATOM     28  O   UNL     1       3.985  -6.623  26.502  0.00  0.00    -0.331 OA
ATOM     29  C   UNL     1       3.124  -6.172  27.558  0.00  0.00    +0.179 C 
ATOM     30  C   UNL     1       3.742  -6.363  28.964  0.00  0.00    +0.177 C 
ATOM     31  C   UNL     1       5.159  -5.786  29.037  0.00  0.00    +0.180 C 
ATOM     32  C   UNL     1       5.991  -6.308  27.852  0.00  0.00    +0.214 C 
BRANCH  30  33
ATOM     33  O   UNL     1       3.783  -7.758  29.293  0.00  0.00    -0.386 OA
ATOM     34  H   UNL     1       4.717  -8.030  29.328  0.00  0.00    +0.210 HD
ENDBRANCH  30  33
BRANCH  31  35
ATOM     35  O   UNL     1       5.118  -4.364  29.157  0.00  0.00    -0.386 OA
ATOM     36  H   UNL     1       4.326  -4.005  28.726  0.00  0.00    +0.210 HD
ENDBRANCH  31  35
BRANCH  32  37
ATOM     37  O   UNL     1       7.346  -5.855  27.911  0.00  0.00    -0.383 OA
ATOM     38  H   UNL     1       7.357  -4.899  27.700  0.00  0.00    +0.210 HD
ENDBRANCH  32  37
BRANCH  29  39
ATOM     39  C   UNL     1       1.807  -6.978  27.459  0.00  0.00    +0.190 C 
BRANCH  39  40
ATOM     40  O   UNL     1       1.978  -8.260  26.843  0.00  0.00    -0.392 OA
ATOM     41  H   UNL     1       2.279  -8.123  25.934  0.00  0.00    +0.210 HD
ENDBRANCH  39  40
ENDBRANCH  29  39
ENDBRANCH  26  27
ENDBRANCH   3  26
TORSDOF 12
ENDMDL
MODEL 2
REMARK VINA RESULT:      -7.0      2.668      9.557
REMARK  Name = 
REMARK  14 active torsions:
REMARK  status: ('A' for Active; 'I' for Inactive)
REMARK    1  A    between atoms: C_1  and  O_2
REMARK    2  A    between atoms: O_2  and  C_3
REMARK    3  A    between atoms: C_7  and  O_9
REMARK    4  A    between atoms: O_9  and  C_10
REMARK    5  A    between atoms: C_12  and  O_23
REMARK    6  A    between atoms: C_13  and  O_22
REMARK    7  A    between atoms: C_15  and  O_21
REMARK    8  A    between atoms: C_17  and  C_19
REMARK    9  A    between atoms: C_19  and  O_20
REMARK   10  A    between atoms: C_26  and  O_37
REMARK   11  A    between atoms: C_27  and  C_29
REMARK   12  A    between atoms: C_31  and  O_36
REMARK   13  A    between atoms: C_32  and  O_35
REMARK   14  A    between atoms: O_37  and  C_38
REMARK                            x       y       z     vdW  Elec       q    Type
REMARK                         _______ _______ _______ _____ _____    ______ ____
ROOT
ATOM      1  C   UNL     1       5.244  -0.998  26.521  0.00  0.00    +0.127 A 
ATOM      2  C   UNL     1       6.297  -0.693  25.655  0.00  0.00    +0.092 A 
ATOM      3  C   UNL     1       6.471  -1.355  24.427  0.00  0.00    +0.142 A 
ATOM      4  C   UNL     1       5.619  -2.451  24.142  0.00  0.00    +0.110 A 
ATOM      5  C   UNL     1       5.752  -3.317  22.942  0.00  0.00    +0.238 A 
ATOM      6  C   UNL     1       4.829  -4.506  22.842  0.00  0.00    +0.211 A 
ATOM      7  C   UNL     1       3.884  -4.652  23.791  0.00  0.00    +0.181 A 
ATOM      8  O   UNL     1       3.688  -3.792  24.845  0.00  0.00    -0.451 OA
ATOM      9  O   UNL     1       6.595  -3.073  22.087  0.00  0.00    -0.283 OA
ATOM     10  C   UNL     1       4.583  -2.767  25.033  0.00  0.00    +0.147 A 
ATOM     11  C   UNL     1       4.376  -2.027  26.198  0.00  0.00    +0.092 A 
ENDROOT
BRANCH   7  12
ATOM     12  C   UNL     1       2.958  -5.805  23.789  0.00  0.00    +0.025 A 
ATOM     13  C   UNL     1       1.819  -5.813  22.970  0.00  0.00    +0.015 A 
ATOM     14  C   UNL     1       1.000  -6.949  22.903  0.00  0.00    +0.050 A 
ATOM     15  C   UNL     1       1.331  -8.065  23.650  0.00  0.00    +0.158 A 
ATOM     16  C   UNL     1       2.445  -8.064  24.481  0.00  0.00    +0.159 A 
ATOM     17  C   UNL     1       3.256  -6.937  24.568  0.00  0.00    +0.060 A 
BRANCH  15  18
ATOM     18  O   UNL     1       0.557  -9.191  23.552  0.00  0.00    -0.503 OA
ATOM     19  H   UNL     1       0.173  -9.144  22.656  0.00  0.00    +0.292 HD
ENDBRANCH  15  18
BRANCH  16  20
ATOM     20  O   UNL     1       2.708  -9.205  25.189  0.00  0.00    -0.503 OA
ATOM     21  H   UNL     1       2.516  -9.010  26.132  0.00  0.00    +0.292 HD
ENDBRANCH  16  20
ENDBRANCH   7  12
BRANCH   1  23
ATOM     22  C   UNL     1       6.276   0.667  27.868  0.00  0.00    +0.277 C 
ATOM     23  O   UNL     1       5.169  -0.195  27.622  0.00  0.00    -0.495 OA
ENDBRANCH   1  23
BRANCH   6  24
ATOM     24  O   UNL     1       4.950  -5.482  21.860  0.00  0.00    -0.488 OA
ATOM     25  C   UNL     1       6.119  -6.286  21.897  0.00  0.00    +0.277 C 
ENDBRANCH   6  24
BRANCH   3  26
ATOM     26  O   UNL     1       7.404  -0.935  23.493  0.00  0.00    -0.460 OA
BRANCH  26  27
ATOM     27  C   UNL     1       8.257   0.179  23.851  0.00  0.00    +0.339 C 
ATOM     28  O   UNL     1       7.783   1.446  23.388  0.00  0.00    -0.331 OA
ATOM     29  C   UNL     1       7.919   1.697  21.982  0.00  0.00    +0.179 C 
ATOM     30  C   UNL     1       9.368   1.505  21.472  0.00  0.00    +0.177 C 
ATOM     31  C   UNL     1       9.945   0.157  21.916  0.00  0.00    +0.180 C 
ATOM     32  C   UNL     1       9.727  -0.026  23.428  0.00  0.00    +0.214 C 
BRANCH  30  33
ATOM     33  O   UNL     1      10.202   2.561  21.966  0.00  0.00    -0.386 OA
ATOM     34  H   UNL     1      10.932   2.687  21.334  0.00  0.00    +0.210 HD
ENDBRANCH  30  33
BRANCH  31  35
ATOM     35  O   UNL     1       9.432  -0.901  21.105  0.00  0.00    -0.386 OA
ATOM     36  H   UNL     1       9.779  -1.759  21.398  0.00  0.00    +0.210 HD
ENDBRANCH  31  35
BRANCH  32  37
ATOM     37  O   UNL     1      10.310  -1.239  23.908  0.00  0.00    -0.383 OA
ATOM     38  H   UNL     1       9.694  -1.638  24.556  0.00  0.00    +0.210 HD
ENDBRANCH  32  37
BRANCH  29  39
ATOM     39  C   UNL     1       7.470   3.154  21.725  0.00  0.00    +0.190 C 
BRANCH  39  40
ATOM     40  O   UNL     1       8.077   4.095  22.618  0.00  0.00    -0.392 OA
ATOM     41  H   UNL     1       8.253   4.911  22.129  0.00  0.00    +0.210 HD
ENDBRANCH  39  40
ENDBRANCH  29  39
ENDBRANCH  26  27
ENDBRANCH   3  26
TORSDOF 12
ENDMDL
MODEL 3
REMARK VINA RESULT:      -6.9      1.410      1.632
REMARK  Name = 
REMARK  14 active torsions:
REMARK  status: ('A' for Active; 'I' for Inactive)
REMARK    1  A    between atoms: C_1  and  O_2
REMARK    2  A    between atoms: O_2  and  C_3
REMARK    3  A    between atoms: C_7  and  O_9
REMARK    4  A    between atoms: O_9  and  C_10
REMARK    5  A    between atoms: C_12  and  O_23
REMARK    6  A    between atoms: C_13  and  O_22
REMARK    7  A    between atoms: C_15  and  O_21
REMARK    8  A    between atoms: C_17  and  C_19
REMARK    9  A    between atoms: C_19  and  O_20
REMARK   10  A    between atoms: C_26  and  O_37
REMARK   11  A    between atoms: C_27  and  C_29
REMARK   12  A    between atoms: C_31  and  O_36
REMARK   13  A    between atoms: C_32  and  O_35
REMARK   14  A    between atoms: O_37  and  C_38
REMARK                            x       y       z     vdW  Elec       q    Type
REMARK                         _______ _______ _______ _____ _____    ______ ____
ROOT
ATOM      1  C   UNL     1       7.184  -5.224  22.525  0.00  0.00    +0.127 A 
ATOM      2  C   UNL     1       6.883  -5.777  23.773  0.00  0.00    +0.092 A 
ATOM      3  C   UNL     1       6.908  -5.016  24.954  0.00  0.00    +0.142 A 
ATOM      4  C   UNL     1       7.385  -3.684  24.870  0.00  0.00    +0.110 A 
ATOM      5  C   UNL     1       7.577  -2.795  26.045  0.00  0.00    +0.238 A 
ATOM      6  C   UNL     1       8.192  -1.441  25.794  0.00  0.00    +0.211 A 
ATOM      7  C   UNL     1       8.438  -1.088  24.518  0.00  0.00    +0.181 A 
ATOM      8  O   UNL     1       8.162  -1.866  23.419  0.00  0.00    -0.451 OA
ATOM      9  O   UNL     1       7.261  -3.168  27.169  0.00  0.00    -0.283 OA
ATOM     10  C   UNL     1       7.712  -3.148  23.617  0.00  0.00    +0.147 A 
ATOM     11  C   UNL     1       7.583  -3.901  22.448  0.00  0.00    +0.092 A 
ENDROOT
BRANCH   7  12
ATOM     12  C   UNL     1       9.069   0.207  24.182  0.00  0.00    +0.025 A 
ATOM     13  C   UNL     1      10.414   0.455  24.494  0.00  0.00    +0.015 A 
ATOM     14  C   UNL     1      11.030   1.647  24.087  0.00  0.00    +0.050 A 
ATOM     15  C   UNL     1      10.299   2.574  23.367  0.00  0.00    +0.158 A 
ATOM     16  C   UNL     1       8.959   2.350  23.068  0.00  0.00    +0.159 A 
ATOM     17  C   UNL     1       8.333   1.179  23.481  0.00  0.00    +0.060 A 
BRANCH  15  18
ATOM     18  O   UNL     1      10.911   3.718  22.930  0.00  0.00    -0.503 OA
ATOM     19  H   UNL     1      10.341   4.037  22.205  0.00  0.00    +0.292 HD
ENDBRANCH  15  18
BRANCH  16  20
ATOM     20  O   UNL     1       8.301   3.314  22.353  0.00  0.00    -0.503 OA
ATOM     21  H   UNL     1       7.887   3.922  23.003  0.00  0.00    +0.292 HD
ENDBRANCH  16  20
ENDBRANCH   7  12
BRANCH   1  23
ATOM     22  C   UNL     1       5.992  -5.761  20.539  0.00  0.00    +0.277 C 
ATOM     23  O   UNL     1       7.018  -6.079  21.474  0.00  0.00    -0.495 OA
ENDBRANCH   1  23
BRANCH   6  24
ATOM     24  O   UNL     1       8.572  -0.577  26.814  0.00  0.00    -0.488 OA
ATOM     25  C   UNL     1       7.540   0.169  27.440  0.00  0.00    +0.277 C 
ENDBRANCH   6  24
BRANCH   3  26
ATOM     26  O   UNL     1       6.441  -5.516  26.159  0.00  0.00    -0.460 OA
BRANCH  26  27
ATOM     27  C   UNL     1       5.059  -5.942  26.217  0.00  0.00    +0.339 C 
ATOM     28  O   UNL     1       4.126  -4.948  25.783  0.00  0.00    -0.331 OA
ATOM     29  C   UNL     1       3.906  -3.852  26.683  0.00  0.00    +0.179 C 
ATOM     30  C   UNL     1       3.499  -4.311  28.104  0.00  0.00    +0.177 C 
ATOM     31  C   UNL     1       4.463  -5.370  28.649  0.00  0.00    +0.180 C 
ATOM     32  C   UNL     1       4.652  -6.483  27.604  0.00  0.00    +0.214 C 
BRANCH  30  33
ATOM     33  O   UNL     1       2.171  -4.849  28.082  0.00  0.00    -0.386 OA
ATOM     34  H   UNL     1       1.561  -4.132  27.831  0.00  0.00    +0.210 HD
ENDBRANCH  30  33
BRANCH  31  35
ATOM     35  O   UNL     1       5.674  -4.763  29.101  0.00  0.00    -0.386 OA
ATOM     36  H   UNL     1       5.551  -3.810  29.238  0.00  0.00    +0.210 HD
ENDBRANCH  31  35
BRANCH  32  37
ATOM     37  O   UNL     1       5.489  -7.535  28.090  0.00  0.00    -0.383 OA
ATOM     38  H   UNL     1       5.896  -7.237  28.929  0.00  0.00    +0.210 HD
ENDBRANCH  32  37
BRANCH  29  39
ATOM     39  C   UNL     1       2.781  -2.977  26.082  0.00  0.00    +0.190 C 
BRANCH  39  40
ATOM     40  O   UNL     1       1.841  -3.728  25.303  0.00  0.00    -0.392 OA
ATOM     41  H   UNL     1       1.153  -4.061  25.894  0.00  0.00    +0.210 HD
ENDBRANCH  39  40
ENDBRANCH  29  39
ENDBRANCH  26  27
ENDBRANCH   3  26
TORSDOF 12
ENDMDL
MODEL 4
REMARK VINA RESULT:      -6.7      2.375      8.885
REMARK  Name = 
REMARK  14 active torsions:
REMARK  status: ('A' for Active; 'I' for Inactive)
REMARK    1  A    between atoms: C_1  and  O_2
REMARK    2  A    between atoms: O_2  and  C_3
REMARK    3  A    between atoms: C_7  and  O_9
REMARK    4  A    between atoms: O_9  and  C_10
REMARK    5  A    between atoms: C_12  and  O_23
REMARK    6  A    between atoms: C_13  and  O_22
REMARK    7  A    between atoms: C_15  and  O_21
REMARK    8  A    between atoms: C_17  and  C_19
REMARK    9  A    between atoms: C_19  and  O_20
REMARK   10  A    between atoms: C_26  and  O_37
REMARK   11  A    between atoms: C_27  and  C_29
REMARK   12  A    between atoms: C_31  and  O_36
REMARK   13  A    between atoms: C_32  and  O_35
REMARK   14  A    between atoms: O_37  and  C_38
REMARK                            x       y       z     vdW  Elec       q    Type
REMARK                         _______ _______ _______ _____ _____    ______ ____
ROOT
ATOM      1  C   UNL     1       6.118  -0.233  27.540  0.00  0.00    +0.127 A 
ATOM      2  C   UNL     1       7.400   0.006  27.038  0.00  0.00    +0.092 A 
ATOM      3  C   UNL     1       7.929  -0.725  25.961  0.00  0.00    +0.142 A 
ATOM      4  C   UNL     1       7.174  -1.820  25.472  0.00  0.00    +0.110 A 
ATOM      5  C   UNL     1       7.650  -2.753  24.418  0.00  0.00    +0.238 A 
ATOM      6  C   UNL     1       6.766  -3.929  24.086  0.00  0.00    +0.211 A 
ATOM      7  C   UNL     1       5.566  -4.007  24.693  0.00  0.00    +0.181 A 
ATOM      8  O   UNL     1       5.077  -3.087  25.590  0.00  0.00    -0.451 OA
ATOM      9  O   UNL     1       8.727  -2.571  23.863  0.00  0.00    -0.283 OA
ATOM     10  C   UNL     1       5.901  -2.069  26.003  0.00  0.00    +0.147 A 
ATOM     11  C   UNL     1       5.362  -1.264  27.008  0.00  0.00    +0.092 A 
ENDROOT
BRANCH   7  12
ATOM     12  C   UNL     1       4.650  -5.143  24.452  0.00  0.00    +0.025 A 
ATOM     13  C   UNL     1       4.747  -6.319  25.210  0.00  0.00    +0.015 A 
ATOM     14  C   UNL     1       3.814  -7.352  25.041  0.00  0.00    +0.050 A 
ATOM     15  C   UNL     1       2.792  -7.196  24.122  0.00  0.00    +0.158 A 
ATOM     16  C   UNL     1       2.696  -6.044  23.349  0.00  0.00    +0.159 A 
ATOM     17  C   UNL     1       3.625  -5.020  23.497  0.00  0.00    +0.060 A 
BRANCH  15  18
ATOM     18  O   UNL     1       1.855  -8.185  23.987  0.00  0.00    -0.503 OA
ATOM     19  H   UNL     1       2.359  -9.014  24.093  0.00  0.00    +0.292 HD
ENDBRANCH  15  18
BRANCH  16  20
ATOM     20  O   UNL     1       1.658  -5.963  22.461  0.00  0.00    -0.503 OA
ATOM     21  H   UNL     1       1.759  -5.113  21.978  0.00  0.00    +0.292 HD
ENDBRANCH  16  20
ENDBRANCH   7  12
BRANCH   1  23
ATOM     22  C   UNL     1       6.749   1.398  29.151  0.00  0.00    +0.277 C 
ATOM     23  O   UNL     1       5.727   0.630  28.523  0.00  0.00    -0.495 OA
ENDBRANCH   1  23
BRANCH   6  24
ATOM     24  O   UNL     1       7.158  -4.960  23.240  0.00  0.00    -0.488 OA
ATOM     25  C   UNL     1       6.978  -4.750  21.848  0.00  0.00    +0.277 C 
ENDBRANCH   6  24
BRANCH   3  26
ATOM     26  O   UNL     1       9.123  -0.373  25.351  0.00  0.00    -0.460 OA
BRANCH  26  27
ATOM     27  C   UNL     1       9.244   0.979  24.845  0.00  0.00    +0.339 C 
ATOM     28  O   UNL     1       8.069   1.459  24.186  0.00  0.00    -0.331 OA
ATOM     29  C   UNL     1       7.808   0.914  22.884  0.00  0.00    +0.179 C 
ATOM     30  C   UNL     1       9.005   1.065  21.914  0.00  0.00    +0.177 C 
ATOM     31  C   UNL     1      10.305   0.556  22.545  0.00  0.00    +0.180 C 
ATOM     32  C   UNL     1      10.479   1.176  23.942  0.00  0.00    +0.214 C 
BRANCH  30  33
ATOM     33  O   UNL     1       9.166   2.442  21.549  0.00  0.00    -0.386 OA
ATOM     34  H   UNL     1      10.057   2.723  21.824  0.00  0.00    +0.210 HD
ENDBRANCH  30  33
BRANCH  31  35
ATOM     35  O   UNL     1      10.354  -0.871  22.514  0.00  0.00    -0.386 OA
ATOM     36  H   UNL     1      10.080  -1.243  23.368  0.00  0.00    +0.210 HD
ENDBRANCH  31  35
BRANCH  32  37
ATOM     37  O   UNL     1      11.715   0.789  24.548  0.00  0.00    -0.383 OA
ATOM     38  H   UNL     1      12.408   1.414  24.253  0.00  0.00    +0.210 HD
ENDBRANCH  32  37
BRANCH  29  39
ATOM     39  C   UNL     1       6.580   1.657  22.307  0.00  0.00    +0.190 C 
BRANCH  39  40
ATOM     40  O   UNL     1       6.600   3.064  22.575  0.00  0.00    -0.392 OA
ATOM     41  H   UNL     1       7.328   3.459  22.077  0.00  0.00    +0.210 HD
ENDBRANCH  39  40
ENDBRANCH  29  39
ENDBRANCH  26  27
ENDBRANCH   3  26
TORSDOF 12
ENDMDL
MODEL 5
REMARK VINA RESULT:      -6.7      2.198      9.525
REMARK  Name = 
REMARK  14 active torsions:
REMARK  status: ('A' for Active; 'I' for Inactive)
REMARK    1  A    between atoms: C_1  and  O_2
REMARK    2  A    between atoms: O_2  and  C_3
REMARK    3  A    between atoms: C_7  and  O_9
REMARK    4  A    between atoms: O_9  and  C_10
REMARK    5  A    between atoms: C_12  and  O_23
REMARK    6  A    between atoms: C_13  and  O_22
REMARK    7  A    between atoms: C_15  and  O_21
REMARK    8  A    between atoms: C_17  and  C_19
REMARK    9  A    between atoms: C_19  and  O_20
REMARK   10  A    between atoms: C_26  and  O_37
REMARK   11  A    between atoms: C_27  and  C_29
REMARK   12  A    between atoms: C_31  and  O_36
REMARK   13  A    between atoms: C_32  and  O_35
REMARK   14  A    between atoms: O_37  and  C_38
REMARK                            x       y       z     vdW  Elec       q    Type
REMARK                         _______ _______ _______ _____ _____    ______ ____
ROOT
ATOM      1  C   UNL     1       5.143   0.740  26.574  0.00  0.00    +0.127 A 
ATOM      2  C   UNL     1       6.236   1.196  25.833  0.00  0.00    +0.092 A 
ATOM      3  C   UNL     1       6.835   0.417  24.828  0.00  0.00    +0.142 A 
ATOM      4  C   UNL     1       6.384  -0.917  24.672  0.00  0.00    +0.110 A 
ATOM      5  C   UNL     1       6.993  -1.896  23.733  0.00  0.00    +0.238 A 
ATOM      6  C   UNL     1       6.461  -3.306  23.764  0.00  0.00    +0.211 A 
ATOM      7  C   UNL     1       5.410  -3.566  24.565  0.00  0.00    +0.181 A 
ATOM      8  O   UNL     1       4.774  -2.638  25.355  0.00  0.00    -0.451 OA
ATOM      9  O   UNL     1       7.904  -1.559  22.984  0.00  0.00    -0.283 OA
ATOM     10  C   UNL     1       5.305  -1.374  25.441  0.00  0.00    +0.147 A 
ATOM     11  C   UNL     1       4.667  -0.543  26.363  0.00  0.00    +0.092 A 
ENDROOT
BRANCH   7  12
ATOM     12  C   UNL     1       4.845  -4.928  24.682  0.00  0.00    +0.025 A 
ATOM     13  C   UNL     1       5.126  -5.731  25.798  0.00  0.00    +0.015 A 
ATOM     14  C   UNL     1       4.510  -6.981  25.947  0.00  0.00    +0.050 A 
ATOM     15  C   UNL     1       3.616  -7.413  24.984  0.00  0.00    +0.158 A 
ATOM     16  C   UNL     1       3.343  -6.637  23.863  0.00  0.00    +0.159 A 
ATOM     17  C   UNL     1       3.961  -5.401  23.697  0.00  0.00    +0.060 A 
BRANCH  15  18
ATOM     18  O   UNL     1       2.980  -8.614  25.150  0.00  0.00    -0.503 OA
ATOM     19  H   UNL     1       3.238  -8.904  26.045  0.00  0.00    +0.292 HD
ENDBRANCH  15  18
BRANCH  16  20
ATOM     20  O   UNL     1       2.448  -7.130  22.954  0.00  0.00    -0.503 OA
ATOM     21  H   UNL     1       1.655  -7.417  23.457  0.00  0.00    +0.292 HD
ENDBRANCH  16  20
ENDBRANCH   7  12
BRANCH   1  23
ATOM     22  C   UNL     1       4.993   3.020  27.232  0.00  0.00    +0.277 C 
ATOM     23  O   UNL     1       4.627   1.660  27.441  0.00  0.00    -0.495 OA
ENDBRANCH   1  23
BRANCH   6  24
ATOM     24  O   UNL     1       7.042  -4.354  23.059  0.00  0.00    -0.488 OA
ATOM     25  C   UNL     1       6.736  -4.444  21.676  0.00  0.00    +0.277 C 
ENDBRANCH   6  24
BRANCH   3  26
ATOM     26  O   UNL     1       7.800   0.932  23.978  0.00  0.00    -0.460 OA
BRANCH  26  27
ATOM     27  C   UNL     1       9.016   1.443  24.575  0.00  0.00    +0.339 C 
ATOM     28  O   UNL     1       9.014   2.859  24.777  0.00  0.00    -0.331 OA
ATOM     29  C   UNL     1       9.164   3.666  23.599  0.00  0.00    +0.179 C 
ATOM     30  C   UNL     1      10.417   3.296  22.770  0.00  0.00    +0.177 C 
ATOM     31  C   UNL     1      10.485   1.790  22.497  0.00  0.00    +0.180 C 
ATOM     32  C   UNL     1      10.288   1.017  23.813  0.00  0.00    +0.214 C 
BRANCH  30  33
ATOM     33  O   UNL     1      11.601   3.702  23.468  0.00  0.00    -0.386 OA
ATOM     34  H   UNL     1      11.328   4.126  24.301  0.00  0.00    +0.210 HD
ENDBRANCH  30  33
BRANCH  31  35
ATOM     35  O   UNL     1       9.584   1.427  21.450  0.00  0.00    -0.386 OA
ATOM     36  H   UNL     1       9.221   0.539  21.600  0.00  0.00    +0.210 HD
ENDBRANCH  31  35
BRANCH  32  37
ATOM     37  O   UNL     1      10.413  -0.395  23.626  0.00  0.00    -0.383 OA
ATOM     38  H   UNL     1      10.800  -0.552  22.741  0.00  0.00    +0.210 HD
ENDBRANCH  32  37
BRANCH  29  39
ATOM     39  C   UNL     1       9.264   5.140  24.056  0.00  0.00    +0.190 C 
BRANCH  39  40
ATOM     40  O   UNL     1       9.941   5.976  23.110  0.00  0.00    -0.392 OA
ATOM     41  H   UNL     1      10.874   5.723  23.092  0.00  0.00    +0.210 HD
ENDBRANCH  39  40
ENDBRANCH  29  39
ENDBRANCH  26  27
ENDBRANCH   3  26
TORSDOF 12
ENDMDL
MODEL 6
REMARK VINA RESULT:      -6.4      2.951      5.337
REMARK  Name = 
REMARK  14 active torsions:
REMARK  status: ('A' for Active; 'I' for Inactive)
REMARK    1  A    between atoms: C_1  and  O_2
REMARK    2  A    between atoms: O_2  and  C_3
REMARK    3  A    between atoms: C_7  and  O_9
REMARK    4  A    between atoms: O_9  and  C_10
REMARK    5  A    between atoms: C_12  and  O_23
REMARK    6  A    between atoms: C_13  and  O_22
REMARK    7  A    between atoms: C_15  and  O_21
REMARK    8  A    between atoms: C_17  and  C_19
REMARK    9  A    between atoms: C_19  and  O_20
REMARK   10  A    between atoms: C_26  and  O_37
REMARK   11  A    between atoms: C_27  and  C_29
REMARK   12  A    between atoms: C_31  and  O_36
REMARK   13  A    between atoms: C_32  and  O_35
REMARK   14  A    between atoms: O_37  and  C_38
REMARK                            x       y       z     vdW  Elec       q    Type
REMARK                         _______ _______ _______ _____ _____    ______ ____
ROOT
ATOM      1  C   UNL     1       5.444  -0.476  27.481  0.00  0.00    +0.127 A 
ATOM      2  C   UNL     1       4.891  -1.324  26.517  0.00  0.00    +0.092 A 
ATOM      3  C   UNL     1       5.373  -1.371  25.198  0.00  0.00    +0.142 A 
ATOM      4  C   UNL     1       6.361  -0.427  24.822  0.00  0.00    +0.110 A 
ATOM      5  C   UNL     1       6.885  -0.278  23.440  0.00  0.00    +0.238 A 
ATOM      6  C   UNL     1       7.859   0.846  23.187  0.00  0.00    +0.211 A 
ATOM      7  C   UNL     1       8.263   1.579  24.243  0.00  0.00    +0.181 A 
ATOM      8  O   UNL     1       7.862   1.375  25.542  0.00  0.00    -0.451 OA
ATOM      9  O   UNL     1       6.518  -1.033  22.548  0.00  0.00    -0.283 OA
ATOM     10  C   UNL     1       6.889   0.439  25.791  0.00  0.00    +0.147 A 
ATOM     11  C   UNL     1       6.457   0.395  27.118  0.00  0.00    +0.092 A 
ENDROOT
BRANCH   7  12
ATOM     12  C   UNL     1       9.189   2.721  24.083  0.00  0.00    +0.025 A 
ATOM     13  C   UNL     1      10.547   2.512  23.796  0.00  0.00    +0.015 A 
ATOM     14  C   UNL     1      11.397   3.599  23.551  0.00  0.00    +0.050 A 
ATOM     15  C   UNL     1      10.881   4.882  23.589  0.00  0.00    +0.158 A 
ATOM     16  C   UNL     1       9.542   5.105  23.892  0.00  0.00    +0.159 A 
ATOM     17  C   UNL     1       8.693   4.034  24.153  0.00  0.00    +0.060 A 
BRANCH  15  18
ATOM     18  O   UNL     1      11.699   5.943  23.306  0.00  0.00    -0.503 OA
ATOM     19  H   UNL     1      11.310   6.344  22.506  0.00  0.00    +0.292 HD
ENDBRANCH  15  18
BRANCH  16  20
ATOM     20  O   UNL     1       9.105   6.401  23.911  0.00  0.00    -0.503 OA
ATOM     21  H   UNL     1       9.388   6.788  24.768  0.00  0.00    +0.292 HD
ENDBRANCH  16  20
ENDBRANCH   7  12
BRANCH   1  23
ATOM     22  C   UNL     1       4.559   0.561  29.429  0.00  0.00    +0.277 C 
ATOM     23  O   UNL     1       4.920  -0.628  28.732  0.00  0.00    -0.495 OA
ENDBRANCH   1  23
BRANCH   6  24
ATOM     24  O   UNL     1       8.302   1.197  21.918  0.00  0.00    -0.488 OA
ATOM     25  C   UNL     1       9.259   0.341  21.314  0.00  0.00    +0.277 C 
ENDBRANCH   6  24
BRANCH   3  26
ATOM     26  O   UNL     1       4.946  -2.331  24.294  0.00  0.00    -0.460 OA
BRANCH  26  27
ATOM     27  C   UNL     1       5.309  -3.708  24.557  0.00  0.00    +0.339 C 
ATOM     28  O   UNL     1       6.690  -3.891  24.884  0.00  0.00    -0.331 OA
ATOM     29  C   UNL     1       7.617  -3.775  23.795  0.00  0.00    +0.179 C 
ATOM     30  C   UNL     1       7.272  -4.704  22.606  0.00  0.00    +0.177 C 
ATOM     31  C   UNL     1       5.807  -4.554  22.184  0.00  0.00    +0.180 C 
ATOM     32  C   UNL     1       4.899  -4.668  23.422  0.00  0.00    +0.214 C 
BRANCH  30  33
ATOM     33  O   UNL     1       7.523  -6.069  22.965  0.00  0.00    -0.386 OA
ATOM     34  H   UNL     1       6.775  -6.605  22.645  0.00  0.00    +0.210 HD
ENDBRANCH  30  33
BRANCH  31  35
ATOM     35  O   UNL     1       5.624  -3.365  21.416  0.00  0.00    -0.386 OA
ATOM     36  H   UNL     1       5.448  -2.605  21.994  0.00  0.00    +0.210 HD
ENDBRANCH  31  35
BRANCH  32  37
ATOM     37  O   UNL     1       3.514  -4.606  23.074  0.00  0.00    -0.383 OA
ATOM     38  H   UNL     1       3.113  -5.479  23.260  0.00  0.00    +0.210 HD
ENDBRANCH  32  37
BRANCH  29  39
ATOM     39  C   UNL     1       9.020  -4.135  24.340  0.00  0.00    +0.190 C 
BRANCH  39  40
ATOM     40  O   UNL     1       9.002  -5.239  25.253  0.00  0.00    -0.392 OA
ATOM     41  H   UNL     1       9.913  -5.442  25.503  0.00  0.00    +0.210 HD
ENDBRANCH  39  40
ENDBRANCH  29  39
ENDBRANCH  26  27
ENDBRANCH   3  26
TORSDOF 12
ENDMDL
MODEL 7
REMARK VINA RESULT:      -6.3      2.191      2.742
REMARK  Name = 
REMARK  14 active torsions:
REMARK  status: ('A' for Active; 'I' for Inactive)
REMARK    1  A    between atoms: C_1  and  O_2
REMARK    2  A    between atoms: O_2  and  C_3
REMARK    3  A    between atoms: C_7  and  O_9
REMARK    4  A    between atoms: O_9  and  C_10
REMARK    5  A    between atoms: C_12  and  O_23
REMARK    6  A    between atoms: C_13  and  O_22
REMARK    7  A    between atoms: C_15  and  O_21
REMARK    8  A    between atoms: C_17  and  C_19
REMARK    9  A    between atoms: C_19  and  O_20
REMARK   10  A    between atoms: C_26  and  O_37
REMARK   11  A    between atoms: C_27  and  C_29
REMARK   12  A    between atoms: C_31  and  O_36
REMARK   13  A    between atoms: C_32  and  O_35
REMARK   14  A    between atoms: O_37  and  C_38
REMARK                            x       y       z     vdW  Elec       q    Type
REMARK                         _______ _______ _______ _____ _____    ______ ____
ROOT
ATOM      1  C   UNL     1       9.190  -3.683  24.676  0.00  0.00    +0.127 A 
ATOM      2  C   UNL     1       7.982  -4.241  25.101  0.00  0.00    +0.092 A 
ATOM      3  C   UNL     1       6.785  -3.505  25.124  0.00  0.00    +0.142 A 
ATOM      4  C   UNL     1       6.856  -2.121  24.828  0.00  0.00    +0.110 A 
ATOM      5  C   UNL     1       5.700  -1.191  24.920  0.00  0.00    +0.238 A 
ATOM      6  C   UNL     1       5.969   0.272  24.672  0.00  0.00    +0.211 A 
ATOM      7  C   UNL     1       7.211   0.628  24.290  0.00  0.00    +0.181 A 
ATOM      8  O   UNL     1       8.257  -0.243  24.100  0.00  0.00    -0.451 OA
ATOM      9  O   UNL     1       4.584  -1.609  25.206  0.00  0.00    -0.283 OA
ATOM     10  C   UNL     1       8.080  -1.565  24.429  0.00  0.00    +0.147 A 
ATOM     11  C   UNL     1       9.233  -2.345  24.323  0.00  0.00    +0.092 A 
ENDROOT
BRANCH   7  12
ATOM     12  C   UNL     1       7.572   2.044  24.058  0.00  0.00    +0.025 A 
ATOM     13  C   UNL     1       8.410   2.730  24.950  0.00  0.00    +0.015 A 
ATOM     14  C   UNL     1       8.824   4.040  24.672  0.00  0.00    +0.050 A 
ATOM     15  C   UNL     1       8.402   4.648  23.503  0.00  0.00    +0.158 A 
ATOM     16  C   UNL     1       7.556   3.988  22.620  0.00  0.00    +0.159 A 
ATOM     17  C   UNL     1       7.125   2.693  22.894  0.00  0.00    +0.060 A 
BRANCH  15  18
ATOM     18  O   UNL     1       8.841   5.911  23.209  0.00  0.00    -0.503 OA
ATOM     19  H   UNL     1       8.572   6.051  22.281  0.00  0.00    +0.292 HD
ENDBRANCH  15  18
BRANCH  16  20
ATOM     20  O   UNL     1       7.181   4.654  21.485  0.00  0.00    -0.503 OA
ATOM     21  H   UNL     1       6.819   3.984  20.864  0.00  0.00    +0.292 HD
ENDBRANCH  16  20
ENDBRANCH   7  12
BRANCH   1  23
ATOM     22  C   UNL     1      10.257  -5.589  25.615  0.00  0.00    +0.277 C 
ATOM     23  O   UNL     1      10.232  -4.564  24.627  0.00  0.00    -0.495 OA
ENDBRANCH   1  23
BRANCH   6  24
ATOM     24  O   UNL     1       5.020   1.265  24.880  0.00  0.00    -0.488 OA
ATOM     25  C   UNL     1       4.763   1.634  26.225  0.00  0.00    +0.277 C 
ENDBRANCH   6  24
BRANCH   3  26
ATOM     26  O   UNL     1       5.560  -4.103  25.376  0.00  0.00    -0.460 OA
BRANCH  26  27
ATOM     27  C   UNL     1       5.428  -5.513  25.072  0.00  0.00    +0.339 C 
ATOM     28  O   UNL     1       4.388  -5.809  24.135  0.00  0.00    -0.331 OA
ATOM     29  C   UNL     1       3.045  -5.712  24.631  0.00  0.00    +0.179 C 
ATOM     30  C   UNL     1       2.808  -6.561  25.904  0.00  0.00    +0.177 C 
ATOM     31  C   UNL     1       3.877  -6.287  26.967  0.00  0.00    +0.180 C 
ATOM     32  C   UNL     1       5.275  -6.390  26.332  0.00  0.00    +0.214 C 
BRANCH  30  33
ATOM     33  O   UNL     1       2.820  -7.955  25.570  0.00  0.00    -0.386 OA
ATOM     34  H   UNL     1       1.910  -8.291  25.656  0.00  0.00    +0.210 HD
ENDBRANCH  30  33
BRANCH  31  35
ATOM     35  O   UNL     1       3.615  -5.055  27.639  0.00  0.00    -0.386 OA
ATOM     36  H   UNL     1       4.051  -4.316  27.185  0.00  0.00    +0.210 HD
ENDBRANCH  31  35
BRANCH  32  37
ATOM     37  O   UNL     1       6.314  -6.213  27.298  0.00  0.00    -0.383 OA
ATOM     38  H   UNL     1       6.592  -7.098  27.611  0.00  0.00    +0.210 HD
ENDBRANCH  32  37
BRANCH  29  39
ATOM     39  C   UNL     1       2.099  -6.195  23.506  0.00  0.00    +0.190 C 
BRANCH  39  40
ATOM     40  O   UNL     1       2.619  -7.313  22.776  0.00  0.00    -0.392 OA
ATOM     41  H   UNL     1       3.583  -7.305  22.853  0.00  0.00    +0.210 HD
ENDBRANCH  39  40
ENDBRANCH  29  39
ENDBRANCH  26  27
ENDBRANCH   3  26
TORSDOF 12
ENDMDL
MODEL 8
REMARK VINA RESULT:      -6.3      1.688      2.251
REMARK  Name = 
REMARK  14 active torsions:
REMARK  status: ('A' for Active; 'I' for Inactive)
REMARK    1  A    between atoms: C_1  and  O_2
REMARK    2  A    between atoms: O_2  and  C_3
REMARK    3  A    between atoms: C_7  and  O_9
REMARK    4  A    between atoms: O_9  and  C_10
REMARK    5  A    between atoms: C_12  and  O_23
REMARK    6  A    between atoms: C_13  and  O_22
REMARK    7  A    between atoms: C_15  and  O_21
REMARK    8  A    between atoms: C_17  and  C_19
REMARK    9  A    between atoms: C_19  and  O_20
REMARK   10  A    between atoms: C_26  and  O_37
REMARK   11  A    between atoms: C_27  and  C_29
REMARK   12  A    between atoms: C_31  and  O_36
REMARK   13  A    between atoms: C_32  and  O_35
REMARK   14  A    between atoms: O_37  and  C_38
REMARK                            x       y       z     vdW  Elec       q    Type
REMARK                         _______ _______ _______ _____ _____    ______ ____
ROOT
ATOM      1  C   UNL     1       7.306  -4.421  22.399  0.00  0.00    +0.127 A 
ATOM      2  C   UNL     1       7.355  -4.900  23.710  0.00  0.00    +0.092 A 
ATOM      3  C   UNL     1       7.203  -4.054  24.822  0.00  0.00    +0.142 A 
ATOM      4  C   UNL     1       7.133  -2.659  24.584  0.00  0.00    +0.110 A 
ATOM      5  C   UNL     1       7.085  -1.633  25.658  0.00  0.00    +0.238 A 
ATOM      6  C   UNL     1       7.118  -0.186  25.235  0.00  0.00    +0.211 A 
ATOM      7  C   UNL     1       7.091   0.085  23.916  0.00  0.00    +0.181 A 
ATOM      8  O   UNL     1       7.026  -0.860  22.919  0.00  0.00    -0.451 OA
ATOM      9  O   UNL     1       7.041  -1.966  26.837  0.00  0.00    -0.283 OA
ATOM     10  C   UNL     1       7.113  -2.186  23.264  0.00  0.00    +0.147 A 
ATOM     11  C   UNL     1       7.168  -3.062  22.178  0.00  0.00    +0.092 A 
ENDROOT
BRANCH   7  12
ATOM     12  C   UNL     1       7.153   1.474  23.410  0.00  0.00    +0.025 A 
ATOM     13  C   UNL     1       8.384   2.126  23.248  0.00  0.00    +0.015 A 
ATOM     14  C   UNL     1       8.441   3.406  22.678  0.00  0.00    +0.050 A 
ATOM     15  C   UNL     1       7.268   4.017  22.272  0.00  0.00    +0.158 A 
ATOM     16  C   UNL     1       6.039   3.390  22.446  0.00  0.00    +0.159 A 
ATOM     17  C   UNL     1       5.970   2.127  23.025  0.00  0.00    +0.060 A 
BRANCH  15  18
ATOM     18  O   UNL     1       7.325   5.248  21.675  0.00  0.00    -0.503 OA
ATOM     19  H   UNL     1       6.615   5.226  21.005  0.00  0.00    +0.292 HD
ENDBRANCH  15  18
BRANCH  16  20
ATOM     20  O   UNL     1       4.923   4.057  22.019  0.00  0.00    -0.503 OA
ATOM     21  H   UNL     1       4.170   3.734  22.562  0.00  0.00    +0.292 HD
ENDBRANCH  16  20
ENDBRANCH   7  12
BRANCH   1  23
ATOM     22  C   UNL     1       6.143  -5.842  20.888  0.00  0.00    +0.277 C 
ATOM     23  O   UNL     1       7.375  -5.392  21.441  0.00  0.00    -0.495 OA
ENDBRANCH   1  23
BRANCH   6  24
ATOM     24  O   UNL     1       7.240   0.867  26.134  0.00  0.00    -0.488 OA
ATOM     25  C   UNL     1       6.056   1.284  26.796  0.00  0.00    +0.277 C 
ENDBRANCH   6  24
BRANCH   3  26
ATOM     26  O   UNL     1       7.075  -4.550  26.110  0.00  0.00    -0.460 OA
BRANCH  26  27
ATOM     27  C   UNL     1       6.212  -5.695  26.305  0.00  0.00    +0.339 C 
ATOM     28  O   UNL     1       5.175  -5.813  25.326  0.00  0.00    -0.331 OA
ATOM     29  C   UNL     1       4.090  -4.881  25.440  0.00  0.00    +0.179 C 
ATOM     30  C   UNL     1       3.436  -4.883  26.842  0.00  0.00    +0.177 C 
ATOM     31  C   UNL     1       4.485  -4.744  27.950  0.00  0.00    +0.180 C 
ATOM     32  C   UNL     1       5.613  -5.766  27.725  0.00  0.00    +0.214 C 
BRANCH  30  33
ATOM     33  O   UNL     1       2.703  -6.100  27.037  0.00  0.00    -0.386 OA
ATOM     34  H   UNL     1       3.227  -6.676  27.622  0.00  0.00    +0.210 HD
ENDBRANCH  30  33
BRANCH  31  35
ATOM     35  O   UNL     1       4.920  -3.389  28.064  0.00  0.00    -0.386 OA
ATOM     36  H   UNL     1       4.845  -3.079  28.981  0.00  0.00    +0.210 HD
ENDBRANCH  31  35
BRANCH  32  37
ATOM     37  O   UNL     1       6.585  -5.727  28.772  0.00  0.00    -0.383 OA
ATOM     38  H   UNL     1       7.346  -5.194  28.462  0.00  0.00    +0.210 HD
ENDBRANCH  32  37
BRANCH  29  39
ATOM     39  C   UNL     1       3.033  -5.267  24.377  0.00  0.00    +0.190 C 
BRANCH  39  40
ATOM     40  O   UNL     1       3.385  -4.842  23.056  0.00  0.00    -0.392 OA
ATOM     41  H   UNL     1       3.154  -5.548  22.436  0.00  0.00    +0.210 HD
ENDBRANCH  39  40
ENDBRANCH  29  39
ENDBRANCH  26  27
ENDBRANCH   3  26
TORSDOF 12
ENDMDL
MODEL 9
REMARK VINA RESULT:      -6.2      2.158      4.463
REMARK  Name = 
REMARK  14 active torsions:
REMARK  status: ('A' for Active; 'I' for Inactive)
REMARK    1  A    between atoms: C_1  and  O_2
REMARK    2  A    between atoms: O_2  and  C_3
REMARK    3  A    between atoms: C_7  and  O_9
REMARK    4  A    between atoms: O_9  and  C_10
REMARK    5  A    between atoms: C_12  and  O_23
REMARK    6  A    between atoms: C_13  and  O_22
REMARK    7  A    between atoms: C_15  and  O_21
REMARK    8  A    between atoms: C_17  and  C_19
REMARK    9  A    between atoms: C_19  and  O_20
REMARK   10  A    between atoms: C_26  and  O_37
REMARK   11  A    between atoms: C_27  and  C_29
REMARK   12  A    between atoms: C_31  and  O_36
REMARK   13  A    between atoms: C_32  and  O_35
REMARK   14  A    between atoms: O_37  and  C_38
REMARK                            x       y       z     vdW  Elec       q    Type
REMARK                         _______ _______ _______ _____ _____    ______ ____
ROOT
ATOM      1  C   UNL     1       5.352  -0.692  27.492  0.00  0.00    +0.127 A 
ATOM      2  C   UNL     1       5.165  -1.837  26.713  0.00  0.00    +0.092 A 
ATOM      3  C   UNL     1       5.942  -2.099  25.572  0.00  0.00    +0.142 A 
ATOM      4  C   UNL     1       6.844  -1.094  25.143  0.00  0.00    +0.110 A 
ATOM      5  C   UNL     1       7.649  -1.176  23.896  0.00  0.00    +0.238 A 
ATOM      6  C   UNL     1       8.483   0.026  23.531  0.00  0.00    +0.211 A 
ATOM      7  C   UNL     1       8.521   1.054  24.401  0.00  0.00    +0.181 A 
ATOM      8  O   UNL     1       7.863   1.090  25.607  0.00  0.00    -0.451 OA
ATOM      9  O   UNL     1       7.611  -2.180  23.194  0.00  0.00    -0.283 OA
ATOM     10  C   UNL     1       7.003   0.065  25.917  0.00  0.00    +0.147 A 
ATOM     11  C   UNL     1       6.286   0.252  27.100  0.00  0.00    +0.092 A 
ENDROOT
BRANCH   7  12
ATOM     12  C   UNL     1       9.286   2.286  24.109  0.00  0.00    +0.025 A 
ATOM     13  C   UNL     1      10.635   2.223  23.729  0.00  0.00    +0.015 A 
ATOM     14  C   UNL     1      11.325   3.387  23.362  0.00  0.00    +0.050 A 
ATOM     15  C   UNL     1      10.659   4.599  23.372  0.00  0.00    +0.158 A 
ATOM     16  C   UNL     1       9.327   4.679  23.766  0.00  0.00    +0.159 A 
ATOM     17  C   UNL     1       8.638   3.533  24.148  0.00  0.00    +0.060 A 
BRANCH  15  18
ATOM     18  O   UNL     1      11.318   5.730  22.971  0.00  0.00    -0.503 OA
ATOM     19  H   UNL     1      12.211   5.418  22.731  0.00  0.00    +0.292 HD
ENDBRANCH  15  18
BRANCH  16  20
ATOM     20  O   UNL     1       8.736   5.913  23.750  0.00  0.00    -0.503 OA
ATOM     21  H   UNL     1       8.811   6.279  24.658  0.00  0.00    +0.292 HD
ENDBRANCH  16  20
ENDBRANCH   7  12
BRANCH   1  23
ATOM     22  C   UNL     1       3.837  -1.815  28.941  0.00  0.00    +0.277 C 
ATOM     23  O   UNL     1       4.578  -0.643  28.616  0.00  0.00    -0.495 OA
ENDBRANCH   1  23
BRANCH   6  24
ATOM     24  O   UNL     1       9.154   0.147  22.320  0.00  0.00    -0.488 OA
ATOM     25  C   UNL     1      10.152  -0.823  22.041  0.00  0.00    +0.277 C 
ENDBRANCH   6  24
BRANCH   3  26
ATOM     26  O   UNL     1       5.879  -3.311  24.904  0.00  0.00    -0.460 OA
BRANCH  26  27
ATOM     27  C   UNL     1       4.603  -3.700  24.341  0.00  0.00    +0.339 C 
ATOM     28  O   UNL     1       3.904  -4.683  25.110  0.00  0.00    -0.331 OA
ATOM     29  C   UNL     1       4.424  -6.020  25.050  0.00  0.00    +0.179 C 
ATOM     30  C   UNL     1       4.565  -6.548  23.602  0.00  0.00    +0.177 C 
ATOM     31  C   UNL     1       5.320  -5.553  22.714  0.00  0.00    +0.180 C 
ATOM     32  C   UNL     1       4.705  -4.152  22.869  0.00  0.00    +0.214 C 
BRANCH  30  33
ATOM     33  O   UNL     1       3.268  -6.790  23.042  0.00  0.00    -0.386 OA
ATOM     34  H   UNL     1       2.612  -6.329  23.596  0.00  0.00    +0.210 HD
ENDBRANCH  30  33
BRANCH  31  35
ATOM     35  O   UNL     1       6.724  -5.621  22.964  0.00  0.00    -0.386 OA
ATOM     36  H   UNL     1       7.089  -6.465  22.652  0.00  0.00    +0.210 HD
ENDBRANCH  31  35
BRANCH  32  37
ATOM     37  O   UNL     1       5.328  -3.197  22.006  0.00  0.00    -0.383 OA
ATOM     38  H   UNL     1       5.696  -3.677  21.236  0.00  0.00    +0.210 HD
ENDBRANCH  32  37
BRANCH  29  39
ATOM     39  C   UNL     1       3.454  -6.931  25.839  0.00  0.00    +0.190 C 
BRANCH  39  40
ATOM     40  O   UNL     1       3.413  -8.273  25.340  0.00  0.00    -0.392 OA
ATOM     41  H   UNL     1       2.625  -8.368  24.787  0.00  0.00    +0.210 HD
ENDBRANCH  39  40
ENDBRANCH  29  39
ENDBRANCH  26  27
ENDBRANCH   3  26
TORSDOF 12
ENDMDL
