MODEL 1
REMARK VINA RESULT:      -8.6      0.000      0.000
REMARK  Name = 
REMARK  22 active torsions:
REMARK  status: ('A' for Active; 'I' for Inactive)
REMARK    1  A    between atoms: C_1  and  C_2
REMARK    2  A    between atoms: C_3  and  O_61
REMARK    3  A    between atoms: C_5  and  O_60
REMARK    4  A    between atoms: C_7  and  O_59
REMARK    5  A    between atoms: C_8  and  O_11
REMARK    6  A    between atoms: O_11  and  C_12
REMARK    7  A    between atoms: C_14  and  O_58
REMARK    8  A    between atoms: C_16  and  O_57
REMARK    9  A    between atoms: C_17  and  O_22
REMARK   10  A    between atoms: C_20  and  C_21
REMARK   11  A    between atoms: O_22  and  C_23
REMARK   12  A    between atoms: C_23  and  C_24
REMARK   13  A    between atoms: C_25  and  O_56
REMARK   14  A    between atoms: C_27  and  O_55
REMARK   15  A    between atoms: C_28  and  O_54
REMARK   16  A    between atoms: C_29  and  O_32
REMARK   17  A    between atoms: O_32  and  C_33
REMARK   18  A    between atoms: C_34  and  C_46
REMARK   19  A    between atoms: C_38  and  O_45
REMARK   20  A    between atoms: C_40  and  O_44
REMARK   21  A    between atoms: C_48  and  O_53
REMARK   22  A    between atoms: C_49  and  O_52
REMARK                            x       y       z     vdW  Elec       q    Type
REMARK                         _______ _______ _______ _____ _____    ______ ____
ROOT
ATOM      1  C   UNL     1       8.654  -4.354  24.145  0.00  0.00    +0.179 C 
ATOM      2  O   UNL     1       7.252  -4.327  23.809  0.00  0.00    -0.331 OA
ATOM      3  C   UNL     1       6.461  -3.792  24.884  0.00  0.00    +0.340 C 
ATOM      4  C   UNL     1       6.573  -4.727  26.104  0.00  0.00    +0.214 C 
ATOM      5  C   UNL     1       8.037  -4.994  26.496  0.00  0.00    +0.180 C 
ATOM      6  C   UNL     1       8.865  -5.394  25.259  0.00  0.00    +0.177 C 
ENDROOT
BRANCH   4   7
ATOM      7  O   UNL     1       5.980  -6.017  25.805  0.00  0.00    -0.383 OA
ATOM      8  H   UNL     1       5.123  -6.048  26.276  0.00  0.00    +0.210 HD
ENDBRANCH   4   7
BRANCH   5   9
ATOM      9  O   UNL     1       8.067  -6.043  27.476  0.00  0.00    -0.386 OA
ATOM     10  H   UNL     1       7.129  -6.254  27.661  0.00  0.00    +0.210 HD
ENDBRANCH   5   9
BRANCH   6  11
ATOM     11  O   UNL     1      10.244  -5.536  25.586  0.00  0.00    -0.386 OA
ATOM     12  H   UNL     1      10.628  -4.647  25.660  0.00  0.00    +0.210 HD
ENDBRANCH   6  11
BRANCH   1  13
ATOM     13  C   UNL     1       9.193  -2.941  24.510  0.00  0.00    +0.197 C 
BRANCH  13  14
ATOM     14  O   UNL     1       8.980  -1.891  23.582  0.00  0.00    -0.346 OA
BRANCH  14  19
ATOM     15  C   UNL     1       9.265   1.634  23.647  0.00  0.00    +0.181 C 
ATOM     16  C   UNL     1       9.622   0.684  24.811  0.00  0.00    +0.150 C 
ATOM     17  C   UNL     1       8.469   0.144  25.662  0.00  0.00    +0.041 C 
ATOM     18  O   UNL     1      10.521  -0.349  24.377  0.00  0.00    -0.343 OA
ATOM     19  C   UNL     1      10.105  -1.103  23.224  0.00  0.00    +0.282 C 
ATOM     20  C   UNL     1       9.862  -0.162  22.021  0.00  0.00    +0.201 C 
ATOM     21  C   UNL     1       8.805   0.875  22.392  0.00  0.00    +0.179 C 
BRANCH  20  22
ATOM     22  O   UNL     1       9.481  -0.844  20.822  0.00  0.00    -0.384 OA
ATOM     23  H   UNL     1       8.989  -0.194  20.276  0.00  0.00    +0.210 HD
ENDBRANCH  20  22
BRANCH  21  24
ATOM     24  O   UNL     1       7.515   0.256  22.512  0.00  0.00    -0.386 OA
ATOM     25  H   UNL     1       7.544  -0.394  23.243  0.00  0.00    +0.210 HD
ENDBRANCH  21  24
BRANCH  15  26
ATOM     26  O   UNL     1       8.307   2.648  23.914  0.00  0.00    -0.340 OA
BRANCH  26  30
ATOM     27  C   UNL     1      10.480   6.240  24.097  0.00  0.00    +0.041 C 
ATOM     28  C   UNL     1       9.006   6.128  24.473  0.00  0.00    +0.149 C 
ATOM     29  O   UNL     1       8.650   4.754  24.658  0.00  0.00    -0.343 OA
ATOM     30  C   UNL     1       8.579   3.967  23.464  0.00  0.00    +0.282 C 
ATOM     31  C   UNL     1       7.484   4.551  22.547  0.00  0.00    +0.201 C 
ATOM     32  C   UNL     1       7.890   5.994  22.198  0.00  0.00    +0.179 C 
ATOM     33  C   UNL     1       8.069   6.835  23.475  0.00  0.00    +0.174 C 
BRANCH  31  34
ATOM     34  O   UNL     1       6.216   4.528  23.238  0.00  0.00    -0.384 OA
ATOM     35  H   UNL     1       6.379   4.084  24.096  0.00  0.00    +0.210 HD
ENDBRANCH  31  34
BRANCH  32  36
ATOM     36  O   UNL     1       6.955   6.580  21.288  0.00  0.00    -0.386 OA
ATOM     37  H   UNL     1       6.369   7.169  21.798  0.00  0.00    +0.210 HD
ENDBRANCH  32  36
BRANCH  33  38
ATOM     38  O   UNL     1       6.797   7.072  24.096  0.00  0.00    -0.387 OA
ATOM     39  H   UNL     1       6.920   7.819  24.720  0.00  0.00    +0.210 HD
ENDBRANCH  33  38
ENDBRANCH  26  30
ENDBRANCH  15  26
ENDBRANCH  14  19
ENDBRANCH  13  14
ENDBRANCH   1  13
BRANCH   3  40
ATOM     40  O   UNL     1       5.110  -3.697  24.434  0.00  0.00    -0.453 OA
BRANCH  40  41
ATOM     41  C   UNL     1       4.157  -3.202  25.316  0.00  0.00    +0.214 A 
ATOM     42  C   UNL     1       4.363  -1.905  26.045  0.00  0.00    +0.238 A 
ATOM     43  O   UNL     1       5.275  -1.144  25.763  0.00  0.00    -0.283 OA
ATOM     44  C   UNL     1       3.398  -1.560  27.094  0.00  0.00    +0.109 A 
ATOM     45  C   UNL     1       2.228  -2.307  27.162  0.00  0.00    +0.147 A 
ATOM     46  C   UNL     1       1.222  -1.945  28.061  0.00  0.00    +0.092 A 
ATOM     47  C   UNL     1       1.408  -0.840  28.889  0.00  0.00    +0.124 A 
ATOM     48  C   UNL     1       2.590  -0.114  28.866  0.00  0.00    +0.091 A 
ATOM     49  O   UNL     1       1.992  -3.401  26.369  0.00  0.00    -0.451 OA
ATOM     50  C   UNL     1       3.589  -0.479  27.967  0.00  0.00    +0.135 A 
ATOM     51  C   UNL     1       2.982  -3.844  25.498  0.00  0.00    +0.181 A 
BRANCH  51  52
ATOM     52  C   UNL     1       2.607  -5.110  24.791  0.00  0.00    +0.025 A 
ATOM     53  C   UNL     1       2.011  -5.054  23.514  0.00  0.00    +0.015 A 
ATOM     54  C   UNL     1       1.680  -6.217  22.804  0.00  0.00    +0.050 A 
ATOM     55  C   UNL     1       1.938  -7.455  23.369  0.00  0.00    +0.158 A 
ATOM     56  C   UNL     1       2.513  -7.544  24.629  0.00  0.00    +0.159 A 
ATOM     57  C   UNL     1       2.862  -6.389  25.330  0.00  0.00    +0.060 A 
BRANCH  55  58
ATOM     58  O   UNL     1       1.628  -8.587  22.675  0.00  0.00    -0.503 OA
ATOM     59  H   UNL     1       0.650  -8.610  22.666  0.00  0.00    +0.292 HD
ENDBRANCH  55  58
BRANCH  56  60
ATOM     60  O   UNL     1       2.724  -8.795  25.144  0.00  0.00    -0.503 OA
ATOM     61  H   UNL     1       1.892  -9.294  25.085  0.00  0.00    +0.292 HD
ENDBRANCH  56  60
ENDBRANCH  51  52
BRANCH  47  62
ATOM     62  O   UNL     1       0.443  -0.424  29.757  0.00  0.00    -0.507 OA
ATOM     63  H   UNL     1       0.843  -0.262  30.628  0.00  0.00    +0.292 HD
ENDBRANCH  47  62
BRANCH  50  64
ATOM     64  O   UNL     1       4.765   0.217  27.977  0.00  0.00    -0.506 OA
ATOM     65  H   UNL     1       4.816   0.793  28.757  0.00  0.00    +0.292 HD
ENDBRANCH  50  64
ENDBRANCH  40  41
ENDBRANCH   3  40
TORSDOF 20
ENDMDL
MODEL 2
REMARK VINA RESULT:      -8.5      1.665      2.273
REMARK  Name = 
REMARK  22 active torsions:
REMARK  status: ('A' for Active; 'I' for Inactive)
REMARK    1  A    between atoms: C_1  and  C_2
REMARK    2  A    between atoms: C_3  and  O_61
REMARK    3  A    between atoms: C_5  and  O_60
REMARK    4  A    between atoms: C_7  and  O_59
REMARK    5  A    between atoms: C_8  and  O_11
REMARK    6  A    between atoms: O_11  and  C_12
REMARK    7  A    between atoms: C_14  and  O_58
REMARK    8  A    between atoms: C_16  and  O_57
REMARK    9  A    between atoms: C_17  and  O_22
REMARK   10  A    between atoms: C_20  and  C_21
REMARK   11  A    between atoms: O_22  and  C_23
REMARK   12  A    between atoms: C_23  and  C_24
REMARK   13  A    between atoms: C_25  and  O_56
REMARK   14  A    between atoms: C_27  and  O_55
REMARK   15  A    between atoms: C_28  and  O_54
REMARK   16  A    between atoms: C_29  and  O_32
REMARK   17  A    between atoms: O_32  and  C_33
REMARK   18  A    between atoms: C_34  and  C_46
REMARK   19  A    between atoms: C_38  and  O_45
REMARK   20  A    between atoms: C_40  and  O_44
REMARK   21  A    between atoms: C_48  and  O_53
REMARK   22  A    between atoms: C_49  and  O_52
REMARK                            x       y       z     vdW  Elec       q    Type
REMARK                         _______ _______ _______ _____ _____    ______ ____
ROOT
ATOM      1  C   UNL     1       8.511  -4.250  24.116  0.00  0.00    +0.179 C 
ATOM      2  O   UNL     1       7.098  -3.971  24.040  0.00  0.00    -0.331 OA
ATOM      3  C   UNL     1       6.613  -3.360  25.247  0.00  0.00    +0.340 C 
ATOM      4  C   UNL     1       6.774  -4.356  26.414  0.00  0.00    +0.214 C 
ATOM      5  C   UNL     1       8.214  -4.883  26.530  0.00  0.00    +0.180 C 
ATOM      6  C   UNL     1       8.730  -5.360  25.158  0.00  0.00    +0.177 C 
ENDROOT
BRANCH   4   7
ATOM      7  O   UNL     1       5.922  -5.512  26.207  0.00  0.00    -0.383 OA
ATOM      8  H   UNL     1       6.515  -6.274  26.056  0.00  0.00    +0.210 HD
ENDBRANCH   4   7
BRANCH   5   9
ATOM      9  O   UNL     1       8.233  -5.966  27.473  0.00  0.00    -0.386 OA
ATOM     10  H   UNL     1       7.977  -6.761  26.962  0.00  0.00    +0.210 HD
ENDBRANCH   5   9
BRANCH   6  11
ATOM     11  O   UNL     1      10.098  -5.748  25.228  0.00  0.00    -0.386 OA
ATOM     12  H   UNL     1      10.642  -4.968  25.025  0.00  0.00    +0.210 HD
ENDBRANCH   6  11
BRANCH   1  13
ATOM     13  C   UNL     1       9.343  -2.966  24.398  0.00  0.00    +0.197 C 
BRANCH  13  14
ATOM     14  O   UNL     1       9.072  -1.815  23.616  0.00  0.00    -0.346 OA
BRANCH  14  19
ATOM     15  C   UNL     1       9.362   1.707  23.751  0.00  0.00    +0.181 C 
ATOM     16  C   UNL     1       9.770   0.731  24.875  0.00  0.00    +0.150 C 
ATOM     17  C   UNL     1       8.656   0.170  25.764  0.00  0.00    +0.041 C 
ATOM     18  O   UNL     1      10.648  -0.292  24.377  0.00  0.00    -0.343 OA
ATOM     19  C   UNL     1      10.181  -1.019  23.227  0.00  0.00    +0.282 C 
ATOM     20  C   UNL     1       9.884  -0.050  22.058  0.00  0.00    +0.201 C 
ATOM     21  C   UNL     1       8.846   0.978  22.500  0.00  0.00    +0.179 C 
BRANCH  20  22
ATOM     22  O   UNL     1       9.450  -0.705  20.862  0.00  0.00    -0.384 OA
ATOM     23  H   UNL     1       8.858  -1.435  21.142  0.00  0.00    +0.210 HD
ENDBRANCH  20  22
BRANCH  21  24
ATOM     24  O   UNL     1       7.562   0.355  22.663  0.00  0.00    -0.386 OA
ATOM     25  H   UNL     1       6.921   1.031  22.964  0.00  0.00    +0.210 HD
ENDBRANCH  21  24
BRANCH  15  26
ATOM     26  O   UNL     1       8.418   2.714  24.083  0.00  0.00    -0.340 OA
BRANCH  26  30
ATOM     27  C   UNL     1      10.452   6.386  24.271  0.00  0.00    +0.041 C 
ATOM     28  C   UNL     1       8.974   6.224  24.612  0.00  0.00    +0.149 C 
ATOM     29  O   UNL     1       8.664   4.841  24.807  0.00  0.00    -0.343 OA
ATOM     30  C   UNL     1       8.652   4.037  23.623  0.00  0.00    +0.282 C 
ATOM     31  C   UNL     1       7.560   4.568  22.671  0.00  0.00    +0.201 C 
ATOM     32  C   UNL     1       7.921   6.020  22.313  0.00  0.00    +0.179 C 
ATOM     33  C   UNL     1       8.037   6.883  23.583  0.00  0.00    +0.174 C 
BRANCH  31  34
ATOM     34  O   UNL     1       6.277   4.507  23.331  0.00  0.00    -0.384 OA
ATOM     35  H   UNL     1       6.218   5.307  23.893  0.00  0.00    +0.210 HD
ENDBRANCH  31  34
BRANCH  32  36
ATOM     36  O   UNL     1       6.988   6.560  21.373  0.00  0.00    -0.386 OA
ATOM     37  H   UNL     1       7.465   6.725  20.538  0.00  0.00    +0.210 HD
ENDBRANCH  32  36
BRANCH  33  38
ATOM     38  O   UNL     1       6.743   7.082  24.168  0.00  0.00    -0.387 OA
ATOM     39  H   UNL     1       6.321   7.824  23.683  0.00  0.00    +0.210 HD
ENDBRANCH  33  38
ENDBRANCH  26  30
ENDBRANCH  15  26
ENDBRANCH  14  19
ENDBRANCH  13  14
ENDBRANCH   1  13
BRANCH   3  40
ATOM     40  O   UNL     1       5.242  -3.018  25.050  0.00  0.00    -0.453 OA
BRANCH  40  41
ATOM     41  C   UNL     1       4.711  -1.977  25.801  0.00  0.00    +0.214 A 
ATOM     42  C   UNL     1       5.032  -0.543  25.490  0.00  0.00    +0.238 A 
ATOM     43  O   UNL     1       5.614  -0.219  24.467  0.00  0.00    -0.283 OA
ATOM     44  C   UNL     1       4.582   0.473  26.447  0.00  0.00    +0.109 A 
ATOM     45  C   UNL     1       3.676   0.079  27.423  0.00  0.00    +0.147 A 
ATOM     46  C   UNL     1       3.122   1.030  28.285  0.00  0.00    +0.092 A 
ATOM     47  C   UNL     1       3.496   2.366  28.160  0.00  0.00    +0.124 A 
ATOM     48  C   UNL     1       4.436   2.766  27.221  0.00  0.00    +0.091 A 
ATOM     49  O   UNL     1       3.272  -1.222  27.589  0.00  0.00    -0.451 OA
ATOM     50  C   UNL     1       4.984   1.814  26.365  0.00  0.00    +0.135 A 
ATOM     51  C   UNL     1       3.834  -2.220  26.800  0.00  0.00    +0.181 A 
BRANCH  51  52
ATOM     52  C   UNL     1       3.368  -3.591  27.182  0.00  0.00    +0.025 A 
ATOM     53  C   UNL     1       2.602  -4.353  26.277  0.00  0.00    +0.015 A 
ATOM     54  C   UNL     1       2.179  -5.655  26.583  0.00  0.00    +0.050 A 
ATOM     55  C   UNL     1       2.514  -6.208  27.808  0.00  0.00    +0.158 A 
ATOM     56  C   UNL     1       3.257  -5.480  28.726  0.00  0.00    +0.159 A 
ATOM     57  C   UNL     1       3.697  -4.192  28.417  0.00  0.00    +0.060 A 
BRANCH  55  58
ATOM     58  O   UNL     1       2.114  -7.478  28.103  0.00  0.00    -0.503 OA
ATOM     59  H   UNL     1       2.731  -8.052  27.607  0.00  0.00    +0.292 HD
ENDBRANCH  55  58
BRANCH  56  60
ATOM     60  O   UNL     1       3.539  -6.071  29.928  0.00  0.00    -0.503 OA
ATOM     61  H   UNL     1       4.503  -6.054  30.059  0.00  0.00    +0.292 HD
ENDBRANCH  56  60
ENDBRANCH  51  52
BRANCH  47  62
ATOM     62  O   UNL     1       2.958   3.338  28.950  0.00  0.00    -0.507 OA
ATOM     63  H   UNL     1       2.009   3.420  28.756  0.00  0.00    +0.292 HD
ENDBRANCH  47  62
BRANCH  50  64
ATOM     64  O   UNL     1       5.937   2.210  25.470  0.00  0.00    -0.506 OA
ATOM     65  H   UNL     1       6.235   1.459  24.932  0.00  0.00    +0.292 HD
ENDBRANCH  50  64
ENDBRANCH  40  41
ENDBRANCH   3  40
TORSDOF 20
ENDMDL
MODEL 3
REMARK VINA RESULT:      -8.4      2.437     10.535
REMARK  Name = 
REMARK  22 active torsions:
REMARK  status: ('A' for Active; 'I' for Inactive)
REMARK    1  A    between atoms: C_1  and  C_2
REMARK    2  A    between atoms: C_3  and  O_61
REMARK    3  A    between atoms: C_5  and  O_60
REMARK    4  A    between atoms: C_7  and  O_59
REMARK    5  A    between atoms: C_8  and  O_11
REMARK    6  A    between atoms: O_11  and  C_12
REMARK    7  A    between atoms: C_14  and  O_58
REMARK    8  A    between atoms: C_16  and  O_57
REMARK    9  A    between atoms: C_17  and  O_22
REMARK   10  A    between atoms: C_20  and  C_21
REMARK   11  A    between atoms: O_22  and  C_23
REMARK   12  A    between atoms: C_23  and  C_24
REMARK   13  A    between atoms: C_25  and  O_56
REMARK   14  A    between atoms: C_27  and  O_55
REMARK   15  A    between atoms: C_28  and  O_54
REMARK   16  A    between atoms: C_29  and  O_32
REMARK   17  A    between atoms: O_32  and  C_33
REMARK   18  A    between atoms: C_34  and  C_46
REMARK   19  A    between atoms: C_38  and  O_45
REMARK   20  A    between atoms: C_40  and  O_44
REMARK   21  A    between atoms: C_48  and  O_53
REMARK   22  A    between atoms: C_49  and  O_52
REMARK                            x       y       z     vdW  Elec       q    Type
REMARK                         _______ _______ _______ _____ _____    ______ ____
ROOT
ATOM      1  C   UNL     1       9.877  -0.562  24.446  0.00  0.00    +0.179 C 
ATOM      2  O   UNL     1       9.802   0.806  24.900  0.00  0.00    -0.331 OA
ATOM      3  C   UNL     1       8.665   1.486  24.341  0.00  0.00    +0.340 C 
ATOM      4  C   UNL     1       8.830   1.568  22.810  0.00  0.00    +0.214 C 
ATOM      5  C   UNL     1       9.087   0.188  22.181  0.00  0.00    +0.180 C 
ATOM      6  C   UNL     1      10.203  -0.556  22.943  0.00  0.00    +0.177 C 
ENDROOT
BRANCH   4   7
ATOM      7  O   UNL     1       9.970   2.400  22.473  0.00  0.00    -0.383 OA
ATOM      8  H   UNL     1      10.759   1.960  22.849  0.00  0.00    +0.210 HD
ENDBRANCH   4   7
BRANCH   5   9
ATOM      9  O   UNL     1       9.461   0.371  20.806  0.00  0.00    -0.386 OA
ATOM     10  H   UNL     1       8.794   0.985  20.435  0.00  0.00    +0.210 HD
ENDBRANCH   5   9
BRANCH   6  11
ATOM     11  O   UNL     1      10.376  -1.877  22.442  0.00  0.00    -0.386 OA
ATOM     12  H   UNL     1      10.504  -1.819  21.480  0.00  0.00    +0.210 HD
ENDBRANCH   6  11
BRANCH   1  13
ATOM     13  C   UNL     1       8.591  -1.363  24.797  0.00  0.00    +0.197 C 
BRANCH  13  14
ATOM     14  O   UNL     1       8.745  -2.697  25.252  0.00  0.00    -0.346 OA
BRANCH  14  19
ATOM     15  C   UNL     1       6.435  -5.374  25.177  0.00  0.00    +0.181 C 
ATOM     16  C   UNL     1       6.229  -3.993  24.516  0.00  0.00    +0.150 C 
ATOM     17  C   UNL     1       5.798  -2.834  25.419  0.00  0.00    +0.041 C 
ATOM     18  O   UNL     1       7.341  -3.655  23.672  0.00  0.00    -0.343 OA
ATOM     19  C   UNL     1       8.642  -3.729  24.283  0.00  0.00    +0.282 C 
ATOM     20  C   UNL     1       8.897  -5.148  24.841  0.00  0.00    +0.201 C 
ATOM     21  C   UNL     1       7.810  -5.501  25.853  0.00  0.00    +0.179 C 
BRANCH  20  22
ATOM     22  O   UNL     1      10.190  -5.313  25.432  0.00  0.00    -0.384 OA
ATOM     23  H   UNL     1      10.818  -5.454  24.692  0.00  0.00    +0.210 HD
ENDBRANCH  20  22
BRANCH  21  24
ATOM     24  O   UNL     1       7.959  -4.714  27.045  0.00  0.00    -0.386 OA
ATOM     25  H   UNL     1       8.351  -3.850  26.805  0.00  0.00    +0.210 HD
ENDBRANCH  21  24
BRANCH  15  26
ATOM     26  O   UNL     1       5.453  -5.793  26.113  0.00  0.00    -0.340 OA
BRANCH  26  30
ATOM     27  C   UNL     1       1.317  -5.897  26.847  0.00  0.00    +0.041 C 
ATOM     28  C   UNL     1       2.119  -7.105  26.373  0.00  0.00    +0.149 C 
ATOM     29  O   UNL     1       3.517  -6.870  26.561  0.00  0.00    -0.343 OA
ATOM     30  C   UNL     1       4.109  -5.917  25.672  0.00  0.00    +0.282 C 
ATOM     31  C   UNL     1       3.975  -6.436  24.225  0.00  0.00    +0.201 C 
ATOM     32  C   UNL     1       2.473  -6.575  23.918  0.00  0.00    +0.179 C 
ATOM     33  C   UNL     1       1.795  -7.520  24.926  0.00  0.00    +0.174 C 
BRANCH  31  34
ATOM     34  O   UNL     1       4.642  -7.711  24.108  0.00  0.00    -0.384 OA
ATOM     35  H   UNL     1       4.345  -8.248  24.872  0.00  0.00    +0.210 HD
ENDBRANCH  31  34
BRANCH  32  36
ATOM     36  O   UNL     1       2.266  -6.985  22.564  0.00  0.00    -0.386 OA
ATOM     37  H   UNL     1       3.101  -6.855  22.079  0.00  0.00    +0.210 HD
ENDBRANCH  32  36
BRANCH  33  38
ATOM     38  O   UNL     1       2.224  -8.872  24.706  0.00  0.00    -0.387 OA
ATOM     39  H   UNL     1       2.758  -9.132  25.486  0.00  0.00    +0.210 HD
ENDBRANCH  33  38
ENDBRANCH  26  30
ENDBRANCH  15  26
ENDBRANCH  14  19
ENDBRANCH  13  14
ENDBRANCH   1  13
BRANCH   3  40
ATOM     40  O   UNL     1       8.600   2.788  24.920  0.00  0.00    -0.453 OA
BRANCH  40  41
ATOM     41  C   UNL     1       7.673   3.689  24.409  0.00  0.00    +0.214 A 
ATOM     42  C   UNL     1       6.258   3.278  24.121  0.00  0.00    +0.238 A 
ATOM     43  O   UNL     1       5.810   2.204  24.490  0.00  0.00    -0.283 OA
ATOM     44  C   UNL     1       5.408   4.237  23.409  0.00  0.00    +0.109 A 
ATOM     45  C   UNL     1       5.874   5.540  23.284  0.00  0.00    +0.147 A 
ATOM     46  C   UNL     1       5.055   6.522  22.722  0.00  0.00    +0.092 A 
ATOM     47  C   UNL     1       3.778   6.180  22.282  0.00  0.00    +0.124 A 
ATOM     48  C   UNL     1       3.318   4.874  22.356  0.00  0.00    +0.091 A 
ATOM     49  O   UNL     1       7.121   5.932  23.702  0.00  0.00    -0.451 OA
ATOM     50  C   UNL     1       4.138   3.899  22.918  0.00  0.00    +0.135 A 
ATOM     51  C   UNL     1       8.002   4.984  24.214  0.00  0.00    +0.181 A 
BRANCH  51  52
ATOM     52  C   UNL     1       9.353   5.555  24.518  0.00  0.00    +0.025 A 
ATOM     53  C   UNL     1       9.530   6.386  25.643  0.00  0.00    +0.015 A 
ATOM     54  C   UNL     1      10.786   6.909  25.983  0.00  0.00    +0.050 A 
ATOM     55  C   UNL     1      11.883   6.610  25.192  0.00  0.00    +0.158 A 
ATOM     56  C   UNL     1      11.740   5.805  24.070  0.00  0.00    +0.159 A 
ATOM     57  C   UNL     1      10.495   5.266  23.741  0.00  0.00    +0.060 A 
BRANCH  55  58
ATOM     58  O   UNL     1      13.108   7.108  25.526  0.00  0.00    -0.503 OA
ATOM     59  H   UNL     1      13.604   6.335  25.862  0.00  0.00    +0.292 HD
ENDBRANCH  55  58
BRANCH  56  60
ATOM     60  O   UNL     1      12.856   5.562  23.316  0.00  0.00    -0.503 OA
ATOM     61  H   UNL     1      13.365   4.852  23.742  0.00  0.00    +0.292 HD
ENDBRANCH  56  60
ENDBRANCH  51  52
BRANCH  47  62
ATOM     62  O   UNL     1       2.927   7.108  21.761  0.00  0.00    -0.507 OA
ATOM     63  H   UNL     1       2.123   6.663  21.443  0.00  0.00    +0.292 HD
ENDBRANCH  47  62
BRANCH  50  64
ATOM     64  O   UNL     1       3.692   2.608  22.952  0.00  0.00    -0.506 OA
ATOM     65  H   UNL     1       4.059   2.098  22.211  0.00  0.00    +0.292 HD
ENDBRANCH  50  64
ENDBRANCH  40  41
ENDBRANCH   3  40
TORSDOF 20
ENDMDL
MODEL 4
REMARK VINA RESULT:      -8.0      2.434     10.119
REMARK  Name = 
REMARK  22 active torsions:
REMARK  status: ('A' for Active; 'I' for Inactive)
REMARK    1  A    between atoms: C_1  and  C_2
REMARK    2  A    between atoms: C_3  and  O_61
REMARK    3  A    between atoms: C_5  and  O_60
REMARK    4  A    between atoms: C_7  and  O_59
REMARK    5  A    between atoms: C_8  and  O_11
REMARK    6  A    between atoms: O_11  and  C_12
REMARK    7  A    between atoms: C_14  and  O_58
REMARK    8  A    between atoms: C_16  and  O_57
REMARK    9  A    between atoms: C_17  and  O_22
REMARK   10  A    between atoms: C_20  and  C_21
REMARK   11  A    between atoms: O_22  and  C_23
REMARK   12  A    between atoms: C_23  and  C_24
REMARK   13  A    between atoms: C_25  and  O_56
REMARK   14  A    between atoms: C_27  and  O_55
REMARK   15  A    between atoms: C_28  and  O_54
REMARK   16  A    between atoms: C_29  and  O_32
REMARK   17  A    between atoms: O_32  and  C_33
REMARK   18  A    between atoms: C_34  and  C_46
REMARK   19  A    between atoms: C_38  and  O_45
REMARK   20  A    between atoms: C_40  and  O_44
REMARK   21  A    between atoms: C_48  and  O_53
REMARK   22  A    between atoms: C_49  and  O_52
REMARK                            x       y       z     vdW  Elec       q    Type
REMARK                         _______ _______ _______ _____ _____    ______ ____
ROOT
ATOM      1  C   UNL     1       9.429  -0.044  24.702  0.00  0.00    +0.179 C 
ATOM      2  O   UNL     1       9.317   1.355  24.368  0.00  0.00    -0.331 OA
ATOM      3  C   UNL     1       8.351   1.574  23.327  0.00  0.00    +0.340 C 
ATOM      4  C   UNL     1       8.836   0.881  22.037  0.00  0.00    +0.214 C 
ATOM      5  C   UNL     1       9.161  -0.605  22.267  0.00  0.00    +0.180 C 
ATOM      6  C   UNL     1      10.061  -0.778  23.507  0.00  0.00    +0.177 C 
ENDROOT
BRANCH   4   7
ATOM      7  O   UNL     1      10.054   1.506  21.559  0.00  0.00    -0.383 OA
ATOM      8  H   UNL     1      10.271   2.219  22.194  0.00  0.00    +0.210 HD
ENDBRANCH   4   7
BRANCH   5   9
ATOM      9  O   UNL     1       9.821  -1.117  21.098  0.00  0.00    -0.386 OA
ATOM     10  H   UNL     1       9.572  -2.063  21.052  0.00  0.00    +0.210 HD
ENDBRANCH   5   9
BRANCH   6  11
ATOM     11  O   UNL     1      10.281  -2.155  23.796  0.00  0.00    -0.386 OA
ATOM     12  H   UNL     1       9.416  -2.599  23.816  0.00  0.00    +0.210 HD
ENDBRANCH   6  11
BRANCH   1  13
ATOM     13  C   UNL     1       8.066  -0.648  25.146  0.00  0.00    +0.197 C 
BRANCH  13  14
ATOM     14  O   UNL     1       7.949  -2.060  25.191  0.00  0.00    -0.346 OA
BRANCH  14  19
ATOM     15  C   UNL     1       6.067  -5.029  25.577  0.00  0.00    +0.181 C 
ATOM     16  C   UNL     1       7.609  -4.935  25.606  0.00  0.00    +0.150 C 
ATOM     17  C   UNL     1       8.336  -4.838  24.261  0.00  0.00    +0.041 C 
ATOM     18  O   UNL     1       8.047  -3.941  26.546  0.00  0.00    -0.343 OA
ATOM     19  C   UNL     1       7.467  -2.633  26.397  0.00  0.00    +0.282 C 
ATOM     20  C   UNL     1       5.925  -2.711  26.487  0.00  0.00    +0.201 C 
ATOM     21  C   UNL     1       5.399  -3.655  25.410  0.00  0.00    +0.179 C 
BRANCH  20  22
ATOM     22  O   UNL     1       5.276  -1.440  26.387  0.00  0.00    -0.384 OA
ATOM     23  H   UNL     1       4.947  -1.367  25.465  0.00  0.00    +0.210 HD
ENDBRANCH  20  22
BRANCH  21  24
ATOM     24  O   UNL     1       5.561  -3.071  24.108  0.00  0.00    -0.386 OA
ATOM     25  H   UNL     1       5.691  -2.107  24.209  0.00  0.00    +0.210 HD
ENDBRANCH  21  24
BRANCH  15  26
ATOM     26  O   UNL     1       5.493  -5.908  24.620  0.00  0.00    -0.340 OA
BRANCH  26  30
ATOM     27  C   UNL     1       1.984  -7.515  26.281  0.00  0.00    +0.041 C 
ATOM     28  C   UNL     1       2.538  -7.928  24.921  0.00  0.00    +0.149 C 
ATOM     29  O   UNL     1       3.896  -7.497  24.792  0.00  0.00    -0.343 OA
ATOM     30  C   UNL     1       4.085  -6.088  24.629  0.00  0.00    +0.282 C 
ATOM     31  C   UNL     1       3.392  -5.640  23.325  0.00  0.00    +0.201 C 
ATOM     32  C   UNL     1       1.891  -5.954  23.465  0.00  0.00    +0.179 C 
ATOM     33  C   UNL     1       1.670  -7.452  23.741  0.00  0.00    +0.174 C 
BRANCH  31  34
ATOM     34  O   UNL     1       3.963  -6.355  22.208  0.00  0.00    -0.384 OA
ATOM     35  H   UNL     1       4.206  -7.243  22.544  0.00  0.00    +0.210 HD
ENDBRANCH  31  34
BRANCH  32  36
ATOM     36  O   UNL     1       1.167  -5.500  22.318  0.00  0.00    -0.386 OA
ATOM     37  H   UNL     1       0.218  -5.643  22.487  0.00  0.00    +0.210 HD
ENDBRANCH  32  36
BRANCH  33  38
ATOM     38  O   UNL     1       1.982  -8.224  22.572  0.00  0.00    -0.387 OA
ATOM     39  H   UNL     1       2.265  -9.110  22.883  0.00  0.00    +0.210 HD
ENDBRANCH  33  38
ENDBRANCH  26  30
ENDBRANCH  15  26
ENDBRANCH  14  19
ENDBRANCH  13  14
ENDBRANCH   1  13
BRANCH   3  40
ATOM     40  O   UNL     1       8.221   2.981  23.134  0.00  0.00    -0.453 OA
BRANCH  40  41
ATOM     41  C   UNL     1       7.241   3.655  23.853  0.00  0.00    +0.214 A 
ATOM     42  C   UNL     1       5.835   3.136  23.938  0.00  0.00    +0.238 A 
ATOM     43  O   UNL     1       5.533   2.022  23.542  0.00  0.00    -0.283 OA
ATOM     44  C   UNL     1       4.829   4.008  24.555  0.00  0.00    +0.109 A 
ATOM     45  C   UNL     1       5.285   5.123  25.248  0.00  0.00    +0.147 A 
ATOM     46  C   UNL     1       4.381   5.920  25.956  0.00  0.00    +0.092 A 
ATOM     47  C   UNL     1       3.027   5.591  25.950  0.00  0.00    +0.124 A 
ATOM     48  C   UNL     1       2.553   4.509  25.223  0.00  0.00    +0.091 A 
ATOM     49  O   UNL     1       6.605   5.491  25.289  0.00  0.00    -0.451 OA
ATOM     50  C   UNL     1       3.458   3.718  24.520  0.00  0.00    +0.135 A 
ATOM     51  C   UNL     1       7.541   4.770  24.554  0.00  0.00    +0.181 A 
BRANCH  51  52
ATOM     52  C   UNL     1       8.913   5.368  24.620  0.00  0.00    +0.025 A 
ATOM     53  C   UNL     1       9.271   6.193  25.706  0.00  0.00    +0.015 A 
ATOM     54  C   UNL     1      10.557   6.740  25.823  0.00  0.00    +0.050 A 
ATOM     55  C   UNL     1      11.501   6.472  24.845  0.00  0.00    +0.158 A 
ATOM     56  C   UNL     1      11.177   5.674  23.757  0.00  0.00    +0.159 A 
ATOM     57  C   UNL     1       9.905   5.111  23.649  0.00  0.00    +0.060 A 
BRANCH  55  58
ATOM     58  O   UNL     1      12.756   6.994  24.963  0.00  0.00    -0.503 OA
ATOM     59  H   UNL     1      13.161   6.861  24.082  0.00  0.00    +0.292 HD
ENDBRANCH  55  58
BRANCH  56  60
ATOM     60  O   UNL     1      12.145   5.462  22.813  0.00  0.00    -0.503 OA
ATOM     61  H   UNL     1      12.939   5.960  23.072  0.00  0.00    +0.292 HD
ENDBRANCH  56  60
ENDBRANCH  51  52
BRANCH  47  62
ATOM     62  O   UNL     1       2.111   6.313  26.655  0.00  0.00    -0.507 OA
ATOM     63  H   UNL     1       1.586   6.852  26.040  0.00  0.00    +0.292 HD
ENDBRANCH  47  62
BRANCH  50  64
ATOM     64  O   UNL     1       2.977   2.677  23.775  0.00  0.00    -0.506 OA
ATOM     65  H   UNL     1       2.971   1.858  24.296  0.00  0.00    +0.292 HD
ENDBRANCH  50  64
ENDBRANCH  40  41
ENDBRANCH   3  40
TORSDOF 20
ENDMDL
MODEL 5
REMARK VINA RESULT:      -7.6      2.322      6.051
REMARK  Name = 
REMARK  22 active torsions:
REMARK  status: ('A' for Active; 'I' for Inactive)
REMARK    1  A    between atoms: C_1  and  C_2
REMARK    2  A    between atoms: C_3  and  O_61
REMARK    3  A    between atoms: C_5  and  O_60
REMARK    4  A    between atoms: C_7  and  O_59
REMARK    5  A    between atoms: C_8  and  O_11
REMARK    6  A    between atoms: O_11  and  C_12
REMARK    7  A    between atoms: C_14  and  O_58
REMARK    8  A    between atoms: C_16  and  O_57
REMARK    9  A    between atoms: C_17  and  O_22
REMARK   10  A    between atoms: C_20  and  C_21
REMARK   11  A    between atoms: O_22  and  C_23
REMARK   12  A    between atoms: C_23  and  C_24
REMARK   13  A    between atoms: C_25  and  O_56
REMARK   14  A    between atoms: C_27  and  O_55
REMARK   15  A    between atoms: C_28  and  O_54
REMARK   16  A    between atoms: C_29  and  O_32
REMARK   17  A    between atoms: O_32  and  C_33
REMARK   18  A    between atoms: C_34  and  C_46
REMARK   19  A    between atoms: C_38  and  O_45
REMARK   20  A    between atoms: C_40  and  O_44
REMARK   21  A    between atoms: C_48  and  O_53
REMARK   22  A    between atoms: C_49  and  O_52
REMARK                            x       y       z     vdW  Elec       q    Type
REMARK                         _______ _______ _______ _____ _____    ______ ____
ROOT
ATOM      1  C   UNL     1       3.674  -0.753  29.610  0.00  0.00    +0.179 C 
ATOM      2  O   UNL     1       4.168  -1.944  28.963  0.00  0.00    -0.331 OA
ATOM      3  C   UNL     1       4.946  -1.628  27.796  0.00  0.00    +0.340 C 
ATOM      4  C   UNL     1       4.036  -0.942  26.757  0.00  0.00    +0.214 C 
ATOM      5  C   UNL     1       3.296   0.271  27.346  0.00  0.00    +0.180 C 
ATOM      6  C   UNL     1       2.631  -0.099  28.688  0.00  0.00    +0.177 C 
ENDROOT
BRANCH   4   7
ATOM      7  O   UNL     1       3.019  -1.867  26.293  0.00  0.00    -0.383 OA
ATOM      8  H   UNL     1       2.154  -1.455  26.490  0.00  0.00    +0.210 HD
ENDBRANCH   4   7
BRANCH   5   9
ATOM      9  O   UNL     1       2.304   0.707  26.403  0.00  0.00    -0.386 OA
ATOM     10  H   UNL     1       2.491   1.656  26.249  0.00  0.00    +0.210 HD
ENDBRANCH   5   9
BRANCH   6  11
ATOM     11  O   UNL     1       2.035   1.041  29.299  0.00  0.00    -0.386 OA
ATOM     12  H   UNL     1       1.230   0.749  29.759  0.00  0.00    +0.210 HD
ENDBRANCH   6  11
BRANCH   1  13
ATOM     13  C   UNL     1       4.826   0.208  30.020  0.00  0.00    +0.197 C 
BRANCH  13  14
ATOM     14  O   UNL     1       4.882   1.479  29.395  0.00  0.00    -0.346 OA
BRANCH  14  19
ATOM     15  C   UNL     1       6.458   4.187  27.754  0.00  0.00    +0.181 C 
ATOM     16  C   UNL     1       5.088   4.244  28.464  0.00  0.00    +0.150 C 
ATOM     17  C   UNL     1       3.877   3.688  27.710  0.00  0.00    +0.041 C 
ATOM     18  O   UNL     1       5.182   3.743  29.807  0.00  0.00    -0.343 OA
ATOM     19  C   UNL     1       5.768   2.437  29.954  0.00  0.00    +0.282 C 
ATOM     20  C   UNL     1       7.190   2.412  29.347  0.00  0.00    +0.201 C 
ATOM     21  C   UNL     1       7.123   2.806  27.874  0.00  0.00    +0.179 C 
BRANCH  20  22
ATOM     22  O   UNL     1       7.857   1.153  29.489  0.00  0.00    -0.384 OA
ATOM     23  H   UNL     1       7.967   0.793  28.583  0.00  0.00    +0.210 HD
ENDBRANCH  20  22
BRANCH  21  24
ATOM     24  O   UNL     1       6.487   1.773  27.106  0.00  0.00    -0.386 OA
ATOM     25  H   UNL     1       6.631   0.914  27.553  0.00  0.00    +0.210 HD
ENDBRANCH  21  24
BRANCH  15  26
ATOM     26  O   UNL     1       6.491   4.564  26.385  0.00  0.00    -0.340 OA
BRANCH  26  30
ATOM     27  C   UNL     1       9.986   6.843  25.888  0.00  0.00    +0.041 C 
ATOM     28  C   UNL     1       8.928   6.677  24.802  0.00  0.00    +0.149 C 
ATOM     29  O   UNL     1       7.717   6.169  25.370  0.00  0.00    -0.343 OA
ATOM     30  C   UNL     1       7.754   4.797  25.780  0.00  0.00    +0.282 C 
ATOM     31  C   UNL     1       8.024   3.915  24.543  0.00  0.00    +0.201 C 
ATOM     32  C   UNL     1       9.391   4.326  23.968  0.00  0.00    +0.179 C 
ATOM     33  C   UNL     1       9.406   5.824  23.612  0.00  0.00    +0.174 C 
BRANCH  31  34
ATOM     34  O   UNL     1       6.977   4.120  23.570  0.00  0.00    -0.384 OA
ATOM     35  H   UNL     1       6.185   3.658  23.916  0.00  0.00    +0.210 HD
ENDBRANCH  31  34
BRANCH  32  36
ATOM     36  O   UNL     1       9.745   3.500  22.856  0.00  0.00    -0.386 OA
ATOM     37  H   UNL     1      10.715   3.527  22.759  0.00  0.00    +0.210 HD
ENDBRANCH  32  36
BRANCH  33  38
ATOM     38  O   UNL     1       8.569   6.072  22.474  0.00  0.00    -0.387 OA
ATOM     39  H   UNL     1       7.817   5.444  22.531  0.00  0.00    +0.210 HD
ENDBRANCH  33  38
ENDBRANCH  26  30
ENDBRANCH  15  26
ENDBRANCH  14  19
ENDBRANCH  13  14
ENDBRANCH   1  13
BRANCH   3  40
ATOM     40  O   UNL     1       5.486  -2.843  27.281  0.00  0.00    -0.453 OA
BRANCH  40  41
ATOM     41  C   UNL     1       6.453  -2.763  26.286  0.00  0.00    +0.214 A 
ATOM     42  C   UNL     1       7.449  -1.640  26.251  0.00  0.00    +0.238 A 
ATOM     43  O   UNL     1       7.576  -0.859  27.181  0.00  0.00    -0.283 OA
ATOM     44  C   UNL     1       8.304  -1.533  25.064  0.00  0.00    +0.109 A 
ATOM     45  C   UNL     1       8.323  -2.610  24.187  0.00  0.00    +0.147 A 
ATOM     46  C   UNL     1       9.208  -2.613  23.105  0.00  0.00    +0.092 A 
ATOM     47  C   UNL     1      10.058  -1.526  22.914  0.00  0.00    +0.124 A 
ATOM     48  C   UNL     1      10.017  -0.423  23.754  0.00  0.00    +0.091 A 
ATOM     49  O   UNL     1       7.510  -3.706  24.329  0.00  0.00    -0.451 OA
ATOM     50  C   UNL     1       9.132  -0.426  24.829  0.00  0.00    +0.135 A 
ATOM     51  C   UNL     1       6.567  -3.732  25.352  0.00  0.00    +0.181 A 
BRANCH  51  52
ATOM     52  C   UNL     1       5.690  -4.945  25.299  0.00  0.00    +0.025 A 
ATOM     53  C   UNL     1       5.562  -5.772  26.435  0.00  0.00    +0.015 A 
ATOM     54  C   UNL     1       4.721  -6.894  26.437  0.00  0.00    +0.050 A 
ATOM     55  C   UNL     1       4.001  -7.207  25.296  0.00  0.00    +0.158 A 
ATOM     56  C   UNL     1       4.114  -6.420  24.158  0.00  0.00    +0.159 A 
ATOM     57  C   UNL     1       4.934  -5.291  24.159  0.00  0.00    +0.060 A 
BRANCH  55  58
ATOM     58  O   UNL     1       3.175  -8.292  25.300  0.00  0.00    -0.503 OA
ATOM     59  H   UNL     1       2.651  -8.204  24.479  0.00  0.00    +0.292 HD
ENDBRANCH  55  58
BRANCH  56  60
ATOM     60  O   UNL     1       3.395  -6.792  23.054  0.00  0.00    -0.503 OA
ATOM     61  H   UNL     1       3.496  -7.751  22.932  0.00  0.00    +0.292 HD
ENDBRANCH  56  60
ENDBRANCH  51  52
BRANCH  47  62
ATOM     62  O   UNL     1      10.966  -1.497  21.897  0.00  0.00    -0.507 OA
ATOM     63  H   UNL     1      10.844  -2.281  21.336  0.00  0.00    +0.292 HD
ENDBRANCH  47  62
BRANCH  50  64
ATOM     64  O   UNL     1       9.070   0.681  25.629  0.00  0.00    -0.506 OA
ATOM     65  H   UNL     1       9.280   1.482  25.122  0.00  0.00    +0.292 HD
ENDBRANCH  50  64
ENDBRANCH  40  41
ENDBRANCH   3  40
TORSDOF 20
ENDMDL
MODEL 6
REMARK VINA RESULT:      -7.5      1.671      2.365
REMARK  Name = 
REMARK  22 active torsions:
REMARK  status: ('A' for Active; 'I' for Inactive)
REMARK    1  A    between atoms: C_1  and  C_2
REMARK    2  A    between atoms: C_3  and  O_61
REMARK    3  A    between atoms: C_5  and  O_60
REMARK    4  A    between atoms: C_7  and  O_59
REMARK    5  A    between atoms: C_8  and  O_11
REMARK    6  A    between atoms: O_11  and  C_12
REMARK    7  A    between atoms: C_14  and  O_58
REMARK    8  A    between atoms: C_16  and  O_57
REMARK    9  A    between atoms: C_17  and  O_22
REMARK   10  A    between atoms: C_20  and  C_21
REMARK   11  A    between atoms: O_22  and  C_23
REMARK   12  A    between atoms: C_23  and  C_24
REMARK   13  A    between atoms: C_25  and  O_56
REMARK   14  A    between atoms: C_27  and  O_55
REMARK   15  A    between atoms: C_28  and  O_54
REMARK   16  A    between atoms: C_29  and  O_32
REMARK   17  A    between atoms: O_32  and  C_33
REMARK   18  A    between atoms: C_34  and  C_46
REMARK   19  A    between atoms: C_38  and  O_45
REMARK   20  A    between atoms: C_40  and  O_44
REMARK   21  A    between atoms: C_48  and  O_53
REMARK   22  A    between atoms: C_49  and  O_52
REMARK                            x       y       z     vdW  Elec       q    Type
REMARK                         _______ _______ _______ _____ _____    ______ ____
ROOT
ATOM      1  C   UNL     1       8.145  -2.803  24.745  0.00  0.00    +0.179 C 
ATOM      2  O   UNL     1       6.967  -3.291  25.420  0.00  0.00    -0.331 OA
ATOM      3  C   UNL     1       7.240  -3.615  26.793  0.00  0.00    +0.340 C 
ATOM      4  C   UNL     1       8.253  -4.777  26.844  0.00  0.00    +0.214 C 
ATOM      5  C   UNL     1       9.519  -4.476  26.022  0.00  0.00    +0.180 C 
ATOM      6  C   UNL     1       9.145  -3.965  24.616  0.00  0.00    +0.177 C 
ENDROOT
BRANCH   4   7
ATOM      7  O   UNL     1       7.667  -5.979  26.282  0.00  0.00    -0.383 OA
ATOM      8  H   UNL     1       8.224  -6.727  26.576  0.00  0.00    +0.210 HD
ENDBRANCH   4   7
BRANCH   5   9
ATOM      9  O   UNL     1      10.300  -5.678  25.924  0.00  0.00    -0.386 OA
ATOM     10  H   UNL     1       9.707  -6.398  26.222  0.00  0.00    +0.210 HD
ENDBRANCH   5   9
BRANCH   6  11
ATOM     11  O   UNL     1      10.303  -3.579  23.883  0.00  0.00    -0.386 OA
ATOM     12  H   UNL     1      10.317  -4.087  23.055  0.00  0.00    +0.210 HD
ENDBRANCH   6  11
BRANCH   1  13
ATOM     13  C   UNL     1       8.741  -1.551  25.448  0.00  0.00    +0.197 C 
BRANCH  13  14
ATOM     14  O   UNL     1       8.800  -0.342  24.709  0.00  0.00    -0.346 OA
BRANCH  14  19
ATOM     15  C   UNL     1       9.409   2.292  22.429  0.00  0.00    +0.181 C 
ATOM     16  C   UNL     1       9.716   2.328  23.942  0.00  0.00    +0.150 C 
ATOM     17  C   UNL     1       8.546   2.596  24.894  0.00  0.00    +0.041 C 
ATOM     18  O   UNL     1      10.501   1.192  24.336  0.00  0.00    -0.343 OA
ATOM     19  C   UNL     1       9.981  -0.096  23.961  0.00  0.00    +0.282 C 
ATOM     20  C   UNL     1       9.786  -0.174  22.429  0.00  0.00    +0.201 C 
ATOM     21  C   UNL     1       8.841   0.937  21.978  0.00  0.00    +0.179 C 
BRANCH  20  22
ATOM     22  O   UNL     1       9.305  -1.443  21.972  0.00  0.00    -0.384 OA
ATOM     23  H   UNL     1       9.576  -2.102  22.646  0.00  0.00    +0.210 HD
ENDBRANCH  20  22
BRANCH  21  24
ATOM     24  O   UNL     1       7.504   0.674  22.431  0.00  0.00    -0.386 OA
ATOM     25  H   UNL     1       7.099   0.002  21.846  0.00  0.00    +0.210 HD
ENDBRANCH  21  24
BRANCH  15  26
ATOM     26  O   UNL     1       8.558   3.308  21.919  0.00  0.00    -0.340 OA
BRANCH  26  30
ATOM     27  C   UNL     1       4.964   2.768  24.029  0.00  0.00    +0.041 C 
ATOM     28  C   UNL     1       5.095   3.669  22.804  0.00  0.00    +0.149 C 
ATOM     29  O   UNL     1       6.306   3.372  22.104  0.00  0.00    -0.343 OA
ATOM     30  C   UNL     1       7.513   3.792  22.750  0.00  0.00    +0.282 C 
ATOM     31  C   UNL     1       7.492   5.328  22.895  0.00  0.00    +0.201 C 
ATOM     32  C   UNL     1       6.278   5.697  23.764  0.00  0.00    +0.179 C 
ATOM     33  C   UNL     1       4.975   5.168  23.137  0.00  0.00    +0.174 C 
BRANCH  31  34
ATOM     34  O   UNL     1       7.388   5.931  21.587  0.00  0.00    -0.384 OA
ATOM     35  H   UNL     1       8.008   6.690  21.583  0.00  0.00    +0.210 HD
ENDBRANCH  31  34
BRANCH  32  36
ATOM     36  O   UNL     1       6.232   7.107  24.003  0.00  0.00    -0.386 OA
ATOM     37  H   UNL     1       5.643   7.263  24.764  0.00  0.00    +0.210 HD
ENDBRANCH  32  36
BRANCH  33  38
ATOM     38  O   UNL     1       4.665   5.902  21.944  0.00  0.00    -0.387 OA
ATOM     39  H   UNL     1       4.455   5.242  21.249  0.00  0.00    +0.210 HD
ENDBRANCH  33  38
ENDBRANCH  26  30
ENDBRANCH  15  26
ENDBRANCH  14  19
ENDBRANCH  13  14
ENDBRANCH   1  13
BRANCH   3  40
ATOM     40  O   UNL     1       6.010  -3.982  27.415  0.00  0.00    -0.453 OA
BRANCH  40  41
ATOM     41  C   UNL     1       4.936  -3.105  27.316  0.00  0.00    +0.214 A 
ATOM     42  C   UNL     1       5.079  -1.651  27.662  0.00  0.00    +0.238 A 
ATOM     43  O   UNL     1       6.168  -1.139  27.865  0.00  0.00    -0.283 OA
ATOM     44  C   UNL     1       3.854  -0.845  27.712  0.00  0.00    +0.109 A 
ATOM     45  C   UNL     1       2.696  -1.404  27.185  0.00  0.00    +0.147 A 
ATOM     46  C   UNL     1       1.531  -0.638  27.096  0.00  0.00    +0.092 A 
ATOM     47  C   UNL     1       1.542   0.680  27.548  0.00  0.00    +0.124 A 
ATOM     48  C   UNL     1       2.677   1.235  28.121  0.00  0.00    +0.091 A 
ATOM     49  O   UNL     1       2.630  -2.694  26.723  0.00  0.00    -0.451 OA
ATOM     50  C   UNL     1       3.835   0.467  28.206  0.00  0.00    +0.135 A 
ATOM     51  C   UNL     1       3.742  -3.522  26.842  0.00  0.00    +0.181 A 
BRANCH  51  52
ATOM     52  C   UNL     1       3.469  -4.925  26.394  0.00  0.00    +0.025 A 
ATOM     53  C   UNL     1       2.468  -5.687  27.032  0.00  0.00    +0.015 A 
ATOM     54  C   UNL     1       2.157  -6.989  26.616  0.00  0.00    +0.050 A 
ATOM     55  C   UNL     1       2.852  -7.550  25.557  0.00  0.00    +0.158 A 
ATOM     56  C   UNL     1       3.850  -6.831  24.915  0.00  0.00    +0.159 A 
ATOM     57  C   UNL     1       4.149  -5.527  25.313  0.00  0.00    +0.060 A 
BRANCH  55  58
ATOM     58  O   UNL     1       2.543  -8.812  25.144  0.00  0.00    -0.503 OA
ATOM     59  H   UNL     1       2.729  -8.809  24.184  0.00  0.00    +0.292 HD
ENDBRANCH  55  58
BRANCH  56  60
ATOM     60  O   UNL     1       4.516  -7.445  23.889  0.00  0.00    -0.503 OA
ATOM     61  H   UNL     1       5.291  -7.902  24.258  0.00  0.00    +0.292 HD
ENDBRANCH  56  60
ENDBRANCH  51  52
BRANCH  47  62
ATOM     62  O   UNL     1       0.443   1.480  27.450  0.00  0.00    -0.507 OA
ATOM     63  H   UNL     1       0.306   1.723  26.519  0.00  0.00    +0.292 HD
ENDBRANCH  47  62
BRANCH  50  64
ATOM     64  O   UNL     1       4.937   1.009  28.806  0.00  0.00    -0.506 OA
ATOM     65  H   UNL     1       4.677   1.672  29.465  0.00  0.00    +0.292 HD
ENDBRANCH  50  64
ENDBRANCH  40  41
ENDBRANCH   3  40
TORSDOF 20
ENDMDL
MODEL 7
REMARK VINA RESULT:      -7.4      2.684      8.719
REMARK  Name = 
REMARK  22 active torsions:
REMARK  status: ('A' for Active; 'I' for Inactive)
REMARK    1  A    between atoms: C_1  and  C_2
REMARK    2  A    between atoms: C_3  and  O_61
REMARK    3  A    between atoms: C_5  and  O_60
REMARK    4  A    between atoms: C_7  and  O_59
REMARK    5  A    between atoms: C_8  and  O_11
REMARK    6  A    between atoms: O_11  and  C_12
REMARK    7  A    between atoms: C_14  and  O_58
REMARK    8  A    between atoms: C_16  and  O_57
REMARK    9  A    between atoms: C_17  and  O_22
REMARK   10  A    between atoms: C_20  and  C_21
REMARK   11  A    between atoms: O_22  and  C_23
REMARK   12  A    between atoms: C_23  and  C_24
REMARK   13  A    between atoms: C_25  and  O_56
REMARK   14  A    between atoms: C_27  and  O_55
REMARK   15  A    between atoms: C_28  and  O_54
REMARK   16  A    between atoms: C_29  and  O_32
REMARK   17  A    between atoms: O_32  and  C_33
REMARK   18  A    between atoms: C_34  and  C_46
REMARK   19  A    between atoms: C_38  and  O_45
REMARK   20  A    between atoms: C_40  and  O_44
REMARK   21  A    between atoms: C_48  and  O_53
REMARK   22  A    between atoms: C_49  and  O_52
REMARK                            x       y       z     vdW  Elec       q    Type
REMARK                         _______ _______ _______ _____ _____    ______ ____
ROOT
ATOM      1  C   UNL     1       9.172   2.925  24.484  0.00  0.00    +0.179 C 
ATOM      2  O   UNL     1       8.313   3.414  25.535  0.00  0.00    -0.331 OA
ATOM      3  C   UNL     1       7.286   4.278  25.020  0.00  0.00    +0.340 C 
ATOM      4  C   UNL     1       7.944   5.532  24.408  0.00  0.00    +0.214 C 
ATOM      5  C   UNL     1       9.020   5.172  23.369  0.00  0.00    +0.180 C 
ATOM      6  C   UNL     1       9.984   4.108  23.932  0.00  0.00    +0.177 C 
ENDROOT
BRANCH   4   7
ATOM      7  O   UNL     1       8.605   6.306  25.442  0.00  0.00    -0.383 OA
ATOM      8  H   UNL     1       9.391   6.715  25.027  0.00  0.00    +0.210 HD
ENDBRANCH   4   7
BRANCH   5   9
ATOM      9  O   UNL     1       9.741   6.364  23.022  0.00  0.00    -0.386 OA
ATOM     10  H   UNL     1      10.640   6.242  23.392  0.00  0.00    +0.210 HD
ENDBRANCH   5   9
BRANCH   6  11
ATOM     11  O   UNL     1      10.918   3.685  22.944  0.00  0.00    -0.386 OA
ATOM     12  H   UNL     1      11.223   2.793  23.182  0.00  0.00    +0.210 HD
ENDBRANCH   6  11
BRANCH   1  13
ATOM     13  C   UNL     1       8.374   2.159  23.390  0.00  0.00    +0.197 C 
BRANCH  13  14
ATOM     14  O   UNL     1       8.603   0.766  23.255  0.00  0.00    -0.346 OA
BRANCH  14  19
ATOM     15  C   UNL     1       7.890  -2.617  23.996  0.00  0.00    +0.181 C 
ATOM     16  C   UNL     1       9.172  -2.102  23.305  0.00  0.00    +0.150 C 
ATOM     17  C   UNL     1       9.084  -1.767  21.813  0.00  0.00    +0.041 C 
ATOM     18  O   UNL     1       9.786  -1.055  24.073  0.00  0.00    -0.343 OA
ATOM     19  C   UNL     1       8.934   0.046  24.433  0.00  0.00    +0.282 C 
ATOM     20  C   UNL     1       7.708  -0.457  25.231  0.00  0.00    +0.201 C 
ATOM     21  C   UNL     1       6.940  -1.477  24.394  0.00  0.00    +0.179 C 
BRANCH  20  22
ATOM     22  O   UNL     1       6.829   0.588  25.660  0.00  0.00    -0.384 OA
ATOM     23  H   UNL     1       7.296   1.067  26.378  0.00  0.00    +0.210 HD
ENDBRANCH  20  22
BRANCH  21  24
ATOM     24  O   UNL     1       6.291  -0.831  23.287  0.00  0.00    -0.386 OA
ATOM     25  H   UNL     1       6.807  -1.007  22.474  0.00  0.00    +0.210 HD
ENDBRANCH  21  24
BRANCH  15  26
ATOM     26  O   UNL     1       7.128  -3.591  23.298  0.00  0.00    -0.340 OA
BRANCH  26  30
ATOM     27  C   UNL     1       5.124  -5.195  26.624  0.00  0.00    +0.041 C 
ATOM     28  C   UNL     1       5.412  -5.987  25.353  0.00  0.00    +0.149 C 
ATOM     29  O   UNL     1       6.401  -5.312  24.568  0.00  0.00    -0.343 OA
ATOM     30  C   UNL     1       5.964  -4.112  23.922  0.00  0.00    +0.282 C 
ATOM     31  C   UNL     1       4.830  -4.460  22.936  0.00  0.00    +0.201 C 
ATOM     32  C   UNL     1       3.674  -5.066  23.751  0.00  0.00    +0.179 C 
ATOM     33  C   UNL     1       4.147  -6.304  24.534  0.00  0.00    +0.174 C 
BRANCH  31  34
ATOM     34  O   UNL     1       5.319  -5.406  21.959  0.00  0.00    -0.384 OA
ATOM     35  H   UNL     1       6.274  -5.523  22.142  0.00  0.00    +0.210 HD
ENDBRANCH  31  34
BRANCH  32  36
ATOM     36  O   UNL     1       2.552  -5.351  22.910  0.00  0.00    -0.386 OA
ATOM     37  H   UNL     1       1.813  -5.630  23.481  0.00  0.00    +0.210 HD
ENDBRANCH  32  36
BRANCH  33  38
ATOM     38  O   UNL     1       4.416  -7.388  23.633  0.00  0.00    -0.387 OA
ATOM     39  H   UNL     1       4.540  -8.192  24.183  0.00  0.00    +0.210 HD
ENDBRANCH  33  38
ENDBRANCH  26  30
ENDBRANCH  15  26
ENDBRANCH  14  19
ENDBRANCH  13  14
ENDBRANCH   1  13
BRANCH   3  40
ATOM     40  O   UNL     1       6.421   4.628  26.098  0.00  0.00    -0.453 OA
BRANCH  40  41
ATOM     41  C   UNL     1       5.604   3.639  26.633  0.00  0.00    +0.214 A 
ATOM     42  C   UNL     1       5.890   3.030  27.976  0.00  0.00    +0.238 A 
ATOM     43  O   UNL     1       6.728   3.496  28.731  0.00  0.00    -0.283 OA
ATOM     44  C   UNL     1       5.091   1.866  28.373  0.00  0.00    +0.109 A 
ATOM     45  C   UNL     1       3.965   1.571  27.614  0.00  0.00    +0.147 A 
ATOM     46  C   UNL     1       3.101   0.549  28.017  0.00  0.00    +0.092 A 
ATOM     47  C   UNL     1       3.388  -0.173  29.174  0.00  0.00    +0.124 A 
ATOM     48  C   UNL     1       4.534   0.079  29.914  0.00  0.00    +0.091 A 
ATOM     49  O   UNL     1       3.634   2.251  26.469  0.00  0.00    -0.451 OA
ATOM     50  C   UNL     1       5.390   1.099  29.508  0.00  0.00    +0.135 A 
ATOM     51  C   UNL     1       4.488   3.238  25.987  0.00  0.00    +0.181 A 
BRANCH  51  52
ATOM     52  C   UNL     1       4.038   3.801  24.674  0.00  0.00    +0.025 A 
ATOM     53  C   UNL     1       4.197   3.048  23.493  0.00  0.00    +0.015 A 
ATOM     54  C   UNL     1       3.754   3.525  22.250  0.00  0.00    +0.050 A 
ATOM     55  C   UNL     1       3.150   4.770  22.176  0.00  0.00    +0.158 A 
ATOM     56  C   UNL     1       2.990   5.541  23.319  0.00  0.00    +0.159 A 
ATOM     57  C   UNL     1       3.411   5.061  24.559  0.00  0.00    +0.060 A 
BRANCH  55  58
ATOM     58  O   UNL     1       2.709   5.230  20.970  0.00  0.00    -0.503 OA
ATOM     59  H   UNL     1       2.825   4.474  20.361  0.00  0.00    +0.292 HD
ENDBRANCH  55  58
BRANCH  56  60
ATOM     60  O   UNL     1       2.406   6.771  23.179  0.00  0.00    -0.503 OA
ATOM     61  H   UNL     1       1.449   6.673  23.319  0.00  0.00    +0.292 HD
ENDBRANCH  56  60
ENDBRANCH  51  52
BRANCH  47  62
ATOM     62  O   UNL     1       2.559  -1.154  29.630  0.00  0.00    -0.507 OA
ATOM     63  H   UNL     1       2.100  -1.562  28.877  0.00  0.00    +0.292 HD
ENDBRANCH  47  62
BRANCH  50  64
ATOM     64  O   UNL     1       6.536   1.314  30.220  0.00  0.00    -0.506 OA
ATOM     65  H   UNL     1       6.356   1.290  31.174  0.00  0.00    +0.292 HD
ENDBRANCH  50  64
ENDBRANCH  40  41
ENDBRANCH   3  40
TORSDOF 20
ENDMDL
MODEL 8
REMARK VINA RESULT:      -7.2      2.776      9.989
REMARK  Name = 
REMARK  22 active torsions:
REMARK  status: ('A' for Active; 'I' for Inactive)
REMARK    1  A    between atoms: C_1  and  C_2
REMARK    2  A    between atoms: C_3  and  O_61
REMARK    3  A    between atoms: C_5  and  O_60
REMARK    4  A    between atoms: C_7  and  O_59
REMARK    5  A    between atoms: C_8  and  O_11
REMARK    6  A    between atoms: O_11  and  C_12
REMARK    7  A    between atoms: C_14  and  O_58
REMARK    8  A    between atoms: C_16  and  O_57
REMARK    9  A    between atoms: C_17  and  O_22
REMARK   10  A    between atoms: C_20  and  C_21
REMARK   11  A    between atoms: O_22  and  C_23
REMARK   12  A    between atoms: C_23  and  C_24
REMARK   13  A    between atoms: C_25  and  O_56
REMARK   14  A    between atoms: C_27  and  O_55
REMARK   15  A    between atoms: C_28  and  O_54
REMARK   16  A    between atoms: C_29  and  O_32
REMARK   17  A    between atoms: O_32  and  C_33
REMARK   18  A    between atoms: C_34  and  C_46
REMARK   19  A    between atoms: C_38  and  O_45
REMARK   20  A    between atoms: C_40  and  O_44
REMARK   21  A    between atoms: C_48  and  O_53
REMARK   22  A    between atoms: C_49  and  O_52
REMARK                            x       y       z     vdW  Elec       q    Type
REMARK                         _______ _______ _______ _____ _____    ______ ____
ROOT
ATOM      1  C   UNL     1       6.559   1.508  25.913  0.00  0.00    +0.179 C 
ATOM      2  O   UNL     1       6.363   2.937  25.899  0.00  0.00    -0.331 OA
ATOM      3  C   UNL     1       7.226   3.598  26.839  0.00  0.00    +0.340 C 
ATOM      4  C   UNL     1       6.855   3.146  28.266  0.00  0.00    +0.214 C 
ATOM      5  C   UNL     1       6.857   1.613  28.406  0.00  0.00    +0.180 C 
ATOM      6  C   UNL     1       6.056   0.963  27.260  0.00  0.00    +0.177 C 
ENDROOT
BRANCH   4   7
ATOM      7  O   UNL     1       5.517   3.593  28.602  0.00  0.00    -0.383 OA
ATOM      8  H   UNL     1       5.183   4.087  27.827  0.00  0.00    +0.210 HD
ENDBRANCH   4   7
BRANCH   5   9
ATOM      9  O   UNL     1       6.282   1.266  29.675  0.00  0.00    -0.386 OA
ATOM     10  H   UNL     1       7.018   1.323  30.319  0.00  0.00    +0.210 HD
ENDBRANCH   5   9
BRANCH   6  11
ATOM     11  O   UNL     1       6.141  -0.457  27.314  0.00  0.00    -0.386 OA
ATOM     12  H   UNL     1       5.522  -0.770  27.994  0.00  0.00    +0.210 HD
ENDBRANCH   6  11
BRANCH   1  13
ATOM     13  C   UNL     1       8.032   1.120  25.601  0.00  0.00    +0.197 C 
BRANCH  13  14
ATOM     14  O   UNL     1       8.264  -0.074  24.871  0.00  0.00    -0.346 OA
BRANCH  14  19
ATOM     15  C   UNL     1       7.609  -2.557  22.440  0.00  0.00    +0.181 C 
ATOM     16  C   UNL     1       6.582  -1.538  22.979  0.00  0.00    +0.150 C 
ATOM     17  C   UNL     1       5.947  -1.829  24.342  0.00  0.00    +0.041 C 
ATOM     18  O   UNL     1       7.084  -0.196  22.877  0.00  0.00    -0.343 OA
ATOM     19  C   UNL     1       8.377   0.039  23.461  0.00  0.00    +0.282 C 
ATOM     20  C   UNL     1       9.433  -0.901  22.835  0.00  0.00    +0.201 C 
ATOM     21  C   UNL     1       9.009  -2.353  23.041  0.00  0.00    +0.179 C 
BRANCH  20  22
ATOM     22  O   UNL     1      10.758  -0.700  23.339  0.00  0.00    -0.384 OA
ATOM     23  H   UNL     1      11.345  -1.291  22.821  0.00  0.00    +0.210 HD
ENDBRANCH  20  22
BRANCH  21  24
ATOM     24  O   UNL     1       9.117  -2.715  24.427  0.00  0.00    -0.386 OA
ATOM     25  H   UNL     1       9.712  -2.079  24.873  0.00  0.00    +0.210 HD
ENDBRANCH  21  24
BRANCH  15  26
ATOM     26  O   UNL     1       7.281  -3.933  22.568  0.00  0.00    -0.340 OA
BRANCH  26  30
ATOM     27  C   UNL     1       5.536  -4.819  26.286  0.00  0.00    +0.041 C 
ATOM     28  C   UNL     1       5.701  -5.844  25.167  0.00  0.00    +0.149 C 
ATOM     29  O   UNL     1       6.632  -5.361  24.194  0.00  0.00    -0.343 OA
ATOM     30  C   UNL     1       6.165  -4.288  23.370  0.00  0.00    +0.282 C 
ATOM     31  C   UNL     1       4.945  -4.775  22.560  0.00  0.00    +0.201 C 
ATOM     32  C   UNL     1       3.851  -5.178  23.564  0.00  0.00    +0.179 C 
ATOM     33  C   UNL     1       4.365  -6.264  24.526  0.00  0.00    +0.174 C 
BRANCH  31  34
ATOM     34  O   UNL     1       5.331  -5.902  21.743  0.00  0.00    -0.384 OA
ATOM     35  H   UNL     1       4.783  -6.658  22.039  0.00  0.00    +0.210 HD
ENDBRANCH  31  34
BRANCH  32  36
ATOM     36  O   UNL     1       2.657  -5.576  22.884  0.00  0.00    -0.386 OA
ATOM     37  H   UNL     1       2.158  -6.169  23.476  0.00  0.00    +0.210 HD
ENDBRANCH  32  36
BRANCH  33  38
ATOM     38  O   UNL     1       4.536  -7.506  23.828  0.00  0.00    -0.387 OA
ATOM     39  H   UNL     1       4.107  -7.402  22.952  0.00  0.00    +0.210 HD
ENDBRANCH  33  38
ENDBRANCH  26  30
ENDBRANCH  15  26
ENDBRANCH  14  19
ENDBRANCH  13  14
ENDBRANCH   1  13
BRANCH   3  40
ATOM     40  O   UNL     1       7.050   5.005  26.687  0.00  0.00    -0.453 OA
BRANCH  40  41
ATOM     41  C   UNL     1       6.407   5.468  25.545  0.00  0.00    +0.214 A 
ATOM     42  C   UNL     1       4.909   5.481  25.441  0.00  0.00    +0.238 A 
ATOM     43  O   UNL     1       4.193   5.267  26.406  0.00  0.00    -0.283 OA
ATOM     44  C   UNL     1       4.326   5.804  24.135  0.00  0.00    +0.109 A 
ATOM     45  C   UNL     1       5.172   6.327  23.165  0.00  0.00    +0.147 A 
ATOM     46  C   UNL     1       4.648   6.765  21.946  0.00  0.00    +0.092 A 
ATOM     47  C   UNL     1       3.279   6.661  21.713  0.00  0.00    +0.124 A 
ATOM     48  C   UNL     1       2.429   6.097  22.653  0.00  0.00    +0.091 A 
ATOM     49  O   UNL     1       6.527   6.454  23.343  0.00  0.00    -0.451 OA
ATOM     50  C   UNL     1       2.957   5.663  23.866  0.00  0.00    +0.135 A 
ATOM     51  C   UNL     1       7.112   5.980  24.513  0.00  0.00    +0.181 A 
BRANCH  51  52
ATOM     52  C   UNL     1       8.605   6.095  24.500  0.00  0.00    +0.025 A 
ATOM     53  C   UNL     1       9.251   6.993  25.374  0.00  0.00    +0.015 A 
ATOM     54  C   UNL     1      10.648   7.101  25.419  0.00  0.00    +0.050 A 
ATOM     55  C   UNL     1      11.419   6.313  24.580  0.00  0.00    +0.158 A 
ATOM     56  C   UNL     1      10.813   5.427  23.699  0.00  0.00    +0.159 A 
ATOM     57  C   UNL     1       9.424   5.302  23.667  0.00  0.00    +0.060 A 
BRANCH  55  58
ATOM     58  O   UNL     1      12.778   6.408  24.629  0.00  0.00    -0.503 OA
ATOM     59  H   UNL     1      13.097   5.553  24.278  0.00  0.00    +0.292 HD
ENDBRANCH  55  58
BRANCH  56  60
ATOM     60  O   UNL     1      11.625   4.690  22.880  0.00  0.00    -0.503 OA
ATOM     61  H   UNL     1      12.381   4.373  23.404  0.00  0.00    +0.292 HD
ENDBRANCH  56  60
ENDBRANCH  51  52
BRANCH  47  62
ATOM     62  O   UNL     1       2.713   7.107  20.555  0.00  0.00    -0.507 OA
ATOM     63  H   UNL     1       3.301   7.761  20.142  0.00  0.00    +0.292 HD
ENDBRANCH  47  62
BRANCH  50  64
ATOM     64  O   UNL     1       2.119   5.073  24.771  0.00  0.00    -0.506 OA
ATOM     65  H   UNL     1       1.906   5.687  25.492  0.00  0.00    +0.292 HD
ENDBRANCH  50  64
ENDBRANCH  40  41
ENDBRANCH   3  40
TORSDOF 20
ENDMDL
MODEL 9
REMARK VINA RESULT:      -7.1      2.126      2.829
REMARK  Name = 
REMARK  22 active torsions:
REMARK  status: ('A' for Active; 'I' for Inactive)
REMARK    1  A    between atoms: C_1  and  C_2
REMARK    2  A    between atoms: C_3  and  O_61
REMARK    3  A    between atoms: C_5  and  O_60
REMARK    4  A    between atoms: C_7  and  O_59
REMARK    5  A    between atoms: C_8  and  O_11
REMARK    6  A    between atoms: O_11  and  C_12
REMARK    7  A    between atoms: C_14  and  O_58
REMARK    8  A    between atoms: C_16  and  O_57
REMARK    9  A    between atoms: C_17  and  O_22
REMARK   10  A    between atoms: C_20  and  C_21
REMARK   11  A    between atoms: O_22  and  C_23
REMARK   12  A    between atoms: C_23  and  C_24
REMARK   13  A    between atoms: C_25  and  O_56
REMARK   14  A    between atoms: C_27  and  O_55
REMARK   15  A    between atoms: C_28  and  O_54
REMARK   16  A    between atoms: C_29  and  O_32
REMARK   17  A    between atoms: O_32  and  C_33
REMARK   18  A    between atoms: C_34  and  C_46
REMARK   19  A    between atoms: C_38  and  O_45
REMARK   20  A    between atoms: C_40  and  O_44
REMARK   21  A    between atoms: C_48  and  O_53
REMARK   22  A    between atoms: C_49  and  O_52
REMARK                            x       y       z     vdW  Elec       q    Type
REMARK                         _______ _______ _______ _____ _____    ______ ____
ROOT
ATOM      1  C   UNL     1       8.164  -2.715  24.662  0.00  0.00    +0.179 C 
ATOM      2  O   UNL     1       6.997  -3.205  25.355  0.00  0.00    -0.331 OA
ATOM      3  C   UNL     1       7.295  -3.544  26.720  0.00  0.00    +0.340 C 
ATOM      4  C   UNL     1       8.305  -4.710  26.739  0.00  0.00    +0.214 C 
ATOM      5  C   UNL     1       9.556  -4.405  25.896  0.00  0.00    +0.180 C 
ATOM      6  C   UNL     1       9.156  -3.879  24.503  0.00  0.00    +0.177 C 
ENDROOT
BRANCH   4   7
ATOM      7  O   UNL     1       7.703  -5.904  26.176  0.00  0.00    -0.383 OA
ATOM      8  H   UNL     1       7.775  -6.602  26.858  0.00  0.00    +0.210 HD
ENDBRANCH   4   7
BRANCH   5   9
ATOM      9  O   UNL     1      10.330  -5.609  25.771  0.00  0.00    -0.386 OA
ATOM     10  H   UNL     1      10.546  -5.681  24.818  0.00  0.00    +0.210 HD
ENDBRANCH   5   9
BRANCH   6  11
ATOM     11  O   UNL     1      10.301  -3.489  23.751  0.00  0.00    -0.386 OA
ATOM     12  H   UNL     1      10.647  -2.667  24.137  0.00  0.00    +0.210 HD
ENDBRANCH   6  11
BRANCH   1  13
ATOM     13  C   UNL     1       8.778  -1.472  25.366  0.00  0.00    +0.197 C 
BRANCH  13  14
ATOM     14  O   UNL     1       9.016  -0.316  24.579  0.00  0.00    -0.346 OA
BRANCH  14  19
ATOM     15  C   UNL     1       7.182   2.577  23.698  0.00  0.00    +0.181 C 
ATOM     16  C   UNL     1       6.691   1.458  24.644  0.00  0.00    +0.150 C 
ATOM     17  C   UNL     1       6.160   0.173  24.002  0.00  0.00    +0.041 C 
ATOM     18  O   UNL     1       7.651   1.203  25.682  0.00  0.00    -0.343 OA
ATOM     19  C   UNL     1       8.996   0.937  25.246  0.00  0.00    +0.282 C 
ATOM     20  C   UNL     1       9.532   2.113  24.396  0.00  0.00    +0.201 C 
ATOM     21  C   UNL     1       8.614   2.334  23.197  0.00  0.00    +0.179 C 
BRANCH  20  22
ATOM     22  O   UNL     1      10.883   1.940  23.956  0.00  0.00    -0.384 OA
ATOM     23  H   UNL     1      11.139   1.024  24.197  0.00  0.00    +0.210 HD
ENDBRANCH  20  22
BRANCH  21  24
ATOM     24  O   UNL     1       8.740   1.251  22.262  0.00  0.00    -0.386 OA
ATOM     25  H   UNL     1       8.719   0.406  22.755  0.00  0.00    +0.210 HD
ENDBRANCH  21  24
BRANCH  15  26
ATOM     26  O   UNL     1       6.372   2.867  22.568  0.00  0.00    -0.340 OA
BRANCH  26  30
ATOM     27  C   UNL     1       5.560   6.877  23.524  0.00  0.00    +0.041 C 
ATOM     28  C   UNL     1       4.930   5.694  24.252  0.00  0.00    +0.149 C 
ATOM     29  O   UNL     1       5.655   4.496  23.961  0.00  0.00    -0.343 OA
ATOM     30  C   UNL     1       5.495   3.982  22.635  0.00  0.00    +0.282 C 
ATOM     31  C   UNL     1       4.011   3.621  22.417  0.00  0.00    +0.201 C 
ATOM     32  C   UNL     1       3.189   4.912  22.580  0.00  0.00    +0.179 C 
ATOM     33  C   UNL     1       3.424   5.537  23.967  0.00  0.00    +0.174 C 
BRANCH  31  34
ATOM     34  O   UNL     1       3.609   2.632  23.390  0.00  0.00    -0.384 OA
ATOM     35  H   UNL     1       2.762   2.259  23.070  0.00  0.00    +0.210 HD
ENDBRANCH  31  34
BRANCH  32  36
ATOM     36  O   UNL     1       1.804   4.671  22.321  0.00  0.00    -0.386 OA
ATOM     37  H   UNL     1       1.285   5.312  22.840  0.00  0.00    +0.210 HD
ENDBRANCH  32  36
BRANCH  33  38
ATOM     38  O   UNL     1       2.824   4.725  24.986  0.00  0.00    -0.387 OA
ATOM     39  H   UNL     1       3.435   3.976  25.151  0.00  0.00    +0.210 HD
ENDBRANCH  33  38
ENDBRANCH  26  30
ENDBRANCH  15  26
ENDBRANCH  14  19
ENDBRANCH  13  14
ENDBRANCH   1  13
BRANCH   3  40
ATOM     40  O   UNL     1       6.076  -3.913  27.361  0.00  0.00    -0.453 OA
BRANCH  40  41
ATOM     41  C   UNL     1       4.991  -3.050  27.256  0.00  0.00    +0.214 A 
ATOM     42  C   UNL     1       5.118  -1.590  27.581  0.00  0.00    +0.238 A 
ATOM     43  O   UNL     1       6.202  -1.062  27.769  0.00  0.00    -0.283 OA
ATOM     44  C   UNL     1       3.884  -0.799  27.627  0.00  0.00    +0.109 A 
ATOM     45  C   UNL     1       2.730  -1.379  27.115  0.00  0.00    +0.147 A 
ATOM     46  C   UNL     1       1.555  -0.628  27.022  0.00  0.00    +0.092 A 
ATOM     47  C   UNL     1       1.552   0.696  27.456  0.00  0.00    +0.124 A 
ATOM     48  C   UNL     1       2.684   1.273  28.013  0.00  0.00    +0.091 A 
ATOM     49  O   UNL     1       2.677  -2.676  26.673  0.00  0.00    -0.451 OA
ATOM     50  C   UNL     1       3.852   0.520  28.102  0.00  0.00    +0.135 A 
ATOM     51  C   UNL     1       3.799  -3.489  26.796  0.00  0.00    +0.181 A 
BRANCH  51  52
ATOM     52  C   UNL     1       3.541  -4.902  26.370  0.00  0.00    +0.025 A 
ATOM     53  C   UNL     1       2.576  -5.677  27.047  0.00  0.00    +0.015 A 
ATOM     54  C   UNL     1       2.279  -6.989  26.654  0.00  0.00    +0.050 A 
ATOM     55  C   UNL     1       2.951  -7.546  25.578  0.00  0.00    +0.158 A 
ATOM     56  C   UNL     1       3.914  -6.814  24.898  0.00  0.00    +0.159 A 
ATOM     57  C   UNL     1       4.198  -5.500  25.273  0.00  0.00    +0.060 A 
BRANCH  55  58
ATOM     58  O   UNL     1       2.654  -8.819  25.187  0.00  0.00    -0.503 OA
ATOM     59  H   UNL     1       3.523  -9.264  25.121  0.00  0.00    +0.292 HD
ENDBRANCH  55  58
BRANCH  56  60
ATOM     60  O   UNL     1       4.559  -7.424  23.857  0.00  0.00    -0.503 OA
ATOM     61  H   UNL     1       4.764  -6.750  23.186  0.00  0.00    +0.292 HD
ENDBRANCH  56  60
ENDBRANCH  51  52
BRANCH  47  62
ATOM     62  O   UNL     1       0.443   1.481  27.353  0.00  0.00    -0.507 OA
ATOM     63  H   UNL     1       0.504   2.209  27.994  0.00  0.00    +0.292 HD
ENDBRANCH  47  62
BRANCH  50  64
ATOM     64  O   UNL     1       4.951   1.084  28.688  0.00  0.00    -0.506 OA
ATOM     65  H   UNL     1       4.830   2.042  28.791  0.00  0.00    +0.292 HD
ENDBRANCH  50  64
ENDBRANCH  40  41
ENDBRANCH   3  40
TORSDOF 20
ENDMDL
