MODEL 1
REMARK VINA RESULT:      -7.2      0.000      0.000
REMARK  Name = 
REMARK  18 active torsions:
REMARK  status: ('A' for Active; 'I' for Inactive)
REMARK    1  A    between atoms: C_1  and  O_2
REMARK    2  A    between atoms: O_2  and  C_3
REMARK    3  A    between atoms: C_5  and  O_50
REMARK    4  A    between atoms: C_10  and  C_41
REMARK    5  A    between atoms: C_11  and  O_14
REMARK    6  A    between atoms: O_14  and  C_15
REMARK    7  A    between atoms: C_17  and  O_28
REMARK    8  A    between atoms: C_18  and  O_27
REMARK    9  A    between atoms: C_20  and  O_26
REMARK   10  A    between atoms: C_22  and  C_24
REMARK   11  A    between atoms: C_24  and  O_25
REMARK   12  A    between atoms: O_28  and  C_29
REMARK   13  A    between atoms: C_31  and  O_40
REMARK   14  A    between atoms: C_32  and  O_39
REMARK   15  A    between atoms: C_34  and  O_38
REMARK   16  A    between atoms: C_43  and  O_48
REMARK   17  A    between atoms: C_44  and  O_47
REMARK   18  A    between atoms: O_48  and  C_49
REMARK                            x       y       z     vdW  Elec       q    Type
REMARK                         _______ _______ _______ _____ _____    ______ ____
ROOT
ATOM      1  O   UNL     1       6.828  -3.438  24.951  0.00  0.00    -0.453 OA
ENDROOT
BRANCH   1   7
ATOM      2  C   UNL     1       2.813  -5.412  29.398  0.00  0.00    +0.127 A 
ATOM      3  C   UNL     1       3.319  -4.129  29.154  0.00  0.00    +0.092 A 
ATOM      4  C   UNL     1       4.423  -3.978  28.313  0.00  0.00    +0.147 A 
ATOM      5  O   UNL     1       4.901  -2.711  28.045  0.00  0.00    -0.451 OA
ATOM      6  C   UNL     1       5.639  -2.563  26.871  0.00  0.00    +0.181 A 
ATOM      7  C   UNL     1       6.163  -3.580  26.161  0.00  0.00    +0.214 A 
ATOM      8  C   UNL     1       6.200  -4.861  26.914  0.00  0.00    +0.238 A 
ATOM      9  O   UNL     1       7.171  -5.603  26.896  0.00  0.00    -0.283 OA
ATOM     10  C   UNL     1       5.024  -5.102  27.747  0.00  0.00    +0.109 A 
ATOM     11  C   UNL     1       4.501  -6.371  27.951  0.00  0.00    +0.135 A 
ATOM     12  C   UNL     1       3.401  -6.528  28.787  0.00  0.00    +0.092 A 
BRANCH   6  13
ATOM     13  C   UNL     1       5.993  -1.178  26.534  0.00  0.00    +0.025 A 
ATOM     14  C   UNL     1       7.274  -0.725  26.903  0.00  0.00    +0.015 A 
ATOM     15  C   UNL     1       7.738   0.513  26.471  0.00  0.00    +0.050 A 
ATOM     16  C   UNL     1       6.918   1.289  25.667  0.00  0.00    +0.158 A 
ATOM     17  C   UNL     1       5.626   0.877  25.313  0.00  0.00    +0.162 A 
ATOM     18  C   UNL     1       5.157  -0.361  25.762  0.00  0.00    +0.061 A 
BRANCH  17  19
ATOM     19  O   UNL     1       4.952   1.753  24.500  0.00  0.00    -0.491 OA
ATOM     20  C   UNL     1       3.993   2.593  25.131  0.00  0.00    +0.277 C 
ENDBRANCH  17  19
BRANCH  16  21
ATOM     21  O   UNL     1       7.421   2.470  25.191  0.00  0.00    -0.503 OA
ATOM     22  H   UNL     1       8.193   2.659  25.760  0.00  0.00    +0.292 HD
ENDBRANCH  16  21
ENDBRANCH   6  13
BRANCH  11  23
ATOM     23  O   UNL     1       5.015  -7.440  27.280  0.00  0.00    -0.506 OA
ATOM     24  H   UNL     1       5.822  -7.181  26.808  0.00  0.00    +0.292 HD
ENDBRANCH  11  23
BRANCH   2  26
ATOM     25  C   UNL     1       1.205  -7.033  30.071  0.00  0.00    +0.277 C 
ATOM     26  O   UNL     1       1.739  -5.722  30.187  0.00  0.00    -0.495 OA
ENDBRANCH   2  26
ENDBRANCH   1   7
BRANCH   1  27
ATOM     27  C   UNL     1       5.970  -3.269  23.793  0.00  0.00    +0.340 C 
ATOM     28  O   UNL     1       4.868  -4.185  23.869  0.00  0.00    -0.331 OA
ATOM     29  C   UNL     1       5.271  -5.566  23.885  0.00  0.00    +0.179 C 
ATOM     30  C   UNL     1       6.059  -5.925  22.603  0.00  0.00    +0.177 C 
ATOM     31  C   UNL     1       7.244  -4.952  22.406  0.00  0.00    +0.180 C 
ATOM     32  C   UNL     1       6.732  -3.491  22.448  0.00  0.00    +0.221 C 
BRANCH  31  33
ATOM     33  O   UNL     1       8.269  -5.220  23.370  0.00  0.00    -0.386 OA
ATOM     34  H   UNL     1       7.915  -5.060  24.266  0.00  0.00    +0.210 HD
ENDBRANCH  31  33
BRANCH  30  35
ATOM     35  O   UNL     1       5.217  -5.832  21.447  0.00  0.00    -0.386 OA
ATOM     36  H   UNL     1       5.573  -6.442  20.773  0.00  0.00    +0.210 HD
ENDBRANCH  30  35
BRANCH  32  37
ATOM     37  O   UNL     1       7.691  -2.433  22.229  0.00  0.00    -0.337 OA
BRANCH  37  38
ATOM     38  C   UNL     1       7.898  -1.485  23.289  0.00  0.00    +0.282 C 
ATOM     39  O   UNL     1       7.532  -0.179  22.809  0.00  0.00    -0.346 OA
ATOM     40  C   UNL     1       8.441   0.379  21.848  0.00  0.00    +0.197 C 
ATOM     41  C   UNL     1       9.886   0.492  22.360  0.00  0.00    +0.171 C 
ATOM     42  C   UNL     1      10.358  -0.847  22.937  0.00  0.00    +0.178 C 
ATOM     43  C   UNL     1       9.314  -1.399  23.922  0.00  0.00    +0.201 C 
BRANCH  43  44
ATOM     44  O   UNL     1       9.753  -2.634  24.495  0.00  0.00    -0.384 OA
ATOM     45  H   UNL     1       9.369  -2.675  25.394  0.00  0.00    +0.210 HD
ENDBRANCH  43  44
BRANCH  42  46
ATOM     46  O   UNL     1      10.652  -1.806  21.915  0.00  0.00    -0.386 OA
ATOM     47  H   UNL     1      11.100  -1.356  21.175  0.00  0.00    +0.210 HD
ENDBRANCH  42  46
BRANCH  41  48
ATOM     48  O   UNL     1       9.948   1.503  23.373  0.00  0.00    -0.387 OA
ATOM     49  H   UNL     1      10.084   1.066  24.232  0.00  0.00    +0.210 HD
ENDBRANCH  41  48
ENDBRANCH  37  38
ENDBRANCH  32  37
BRANCH  29  50
ATOM     50  C   UNL     1       4.004  -6.416  24.108  0.00  0.00    +0.190 C 
BRANCH  50  51
ATOM     51  O   UNL     1       4.266  -7.796  24.342  0.00  0.00    -0.392 OA
ATOM     52  H   UNL     1       5.063  -7.832  24.905  0.00  0.00    +0.210 HD
ENDBRANCH  50  51
ENDBRANCH  29  50
ENDBRANCH   1  27
TORSDOF 16
ENDMDL
MODEL 2
REMARK VINA RESULT:      -6.7      2.495      5.914
REMARK  Name = 
REMARK  18 active torsions:
REMARK  status: ('A' for Active; 'I' for Inactive)
REMARK    1  A    between atoms: C_1  and  O_2
REMARK    2  A    between atoms: O_2  and  C_3
REMARK    3  A    between atoms: C_5  and  O_50
REMARK    4  A    between atoms: C_10  and  C_41
REMARK    5  A    between atoms: C_11  and  O_14
REMARK    6  A    between atoms: O_14  and  C_15
REMARK    7  A    between atoms: C_17  and  O_28
REMARK    8  A    between atoms: C_18  and  O_27
REMARK    9  A    between atoms: C_20  and  O_26
REMARK   10  A    between atoms: C_22  and  C_24
REMARK   11  A    between atoms: C_24  and  O_25
REMARK   12  A    between atoms: O_28  and  C_29
REMARK   13  A    between atoms: C_31  and  O_40
REMARK   14  A    between atoms: C_32  and  O_39
REMARK   15  A    between atoms: C_34  and  O_38
REMARK   16  A    between atoms: C_43  and  O_48
REMARK   17  A    between atoms: C_44  and  O_47
REMARK   18  A    between atoms: O_48  and  C_49
REMARK                            x       y       z     vdW  Elec       q    Type
REMARK                         _______ _______ _______ _____ _____    ______ ____
ROOT
ATOM      1  O   UNL     1       6.595  -0.516  24.187  0.00  0.00    -0.453 OA
ENDROOT
BRANCH   1   7
ATOM      2  C   UNL     1       1.774   0.835  28.026  0.00  0.00    +0.127 A 
ATOM      3  C   UNL     1       2.603   1.693  27.292  0.00  0.00    +0.092 A 
ATOM      4  C   UNL     1       3.793   1.200  26.752  0.00  0.00    +0.147 A 
ATOM      5  O   UNL     1       4.592   2.037  26.000  0.00  0.00    -0.451 OA
ATOM      6  C   UNL     1       5.462   1.419  25.102  0.00  0.00    +0.181 A 
ATOM      7  C   UNL     1       5.792   0.115  25.128  0.00  0.00    +0.214 A 
ATOM      8  C   UNL     1       5.434  -0.555  26.406  0.00  0.00    +0.238 A 
ATOM      9  O   UNL     1       6.190  -1.331  26.973  0.00  0.00    -0.283 OA
ATOM     10  C   UNL     1       4.155  -0.130  26.968  0.00  0.00    +0.109 A 
ATOM     11  C   UNL     1       3.318  -0.995  27.658  0.00  0.00    +0.135 A 
ATOM     12  C   UNL     1       2.131  -0.510  28.197  0.00  0.00    +0.092 A 
BRANCH   6  13
ATOM     13  C   UNL     1       6.179   2.336  24.207  0.00  0.00    +0.025 A 
ATOM     14  C   UNL     1       5.562   2.668  22.985  0.00  0.00    +0.015 A 
ATOM     15  C   UNL     1       6.100   3.655  22.166  0.00  0.00    +0.050 A 
ATOM     16  C   UNL     1       7.252   4.308  22.578  0.00  0.00    +0.158 A 
ATOM     17  C   UNL     1       7.906   3.973  23.771  0.00  0.00    +0.162 A 
ATOM     18  C   UNL     1       7.370   2.970  24.584  0.00  0.00    +0.061 A 
BRANCH  17  19
ATOM     19  O   UNL     1       9.021   4.725  24.040  0.00  0.00    -0.491 OA
ATOM     20  C   UNL     1      10.277   4.111  23.775  0.00  0.00    +0.277 C 
ENDBRANCH  17  19
BRANCH  16  21
ATOM     21  O   UNL     1       7.724   5.327  21.794  0.00  0.00    -0.503 OA
ATOM     22  H   UNL     1       7.778   6.097  22.394  0.00  0.00    +0.292 HD
ENDBRANCH  16  21
ENDBRANCH   6  13
BRANCH  11  23
ATOM     23  O   UNL     1       3.621  -2.322  27.740  0.00  0.00    -0.506 OA
ATOM     24  H   UNL     1       4.155  -2.494  28.530  0.00  0.00    +0.292 HD
ENDBRANCH  11  23
BRANCH   2  26
ATOM     25  C   UNL     1       0.486   2.442  29.218  0.00  0.00    +0.277 C 
ATOM     26  O   UNL     1       0.581   1.163  28.608  0.00  0.00    -0.495 OA
ENDBRANCH   2  26
ENDBRANCH   1   7
BRANCH   1  27
ATOM     27  C   UNL     1       7.934  -0.840  24.640  0.00  0.00    +0.340 C 
ATOM     28  O   UNL     1       8.889  -0.008  23.964  0.00  0.00    -0.331 OA
ATOM     29  C   UNL     1       8.885  -0.175  22.535  0.00  0.00    +0.179 C 
ATOM     30  C   UNL     1       9.220  -1.636  22.151  0.00  0.00    +0.177 C 
ATOM     31  C   UNL     1       8.271  -2.618  22.877  0.00  0.00    +0.180 C 
ATOM     32  C   UNL     1       8.299  -2.340  24.400  0.00  0.00    +0.221 C 
BRANCH  31  33
ATOM     33  O   UNL     1       6.957  -2.543  22.313  0.00  0.00    -0.386 OA
ATOM     34  H   UNL     1       7.028  -2.506  21.339  0.00  0.00    +0.210 HD
ENDBRANCH  31  33
BRANCH  30  35
ATOM     35  O   UNL     1      10.563  -1.965  22.526  0.00  0.00    -0.386 OA
ATOM     36  H   UNL     1      10.923  -1.209  23.028  0.00  0.00    +0.210 HD
ENDBRANCH  30  35
BRANCH  32  37
ATOM     37  O   UNL     1       7.511  -3.195  25.257  0.00  0.00    -0.337 OA
BRANCH  37  38
ATOM     38  C   UNL     1       7.475  -4.600  24.954  0.00  0.00    +0.282 C 
ATOM     39  O   UNL     1       6.423  -4.833  24.001  0.00  0.00    -0.346 OA
ATOM     40  C   UNL     1       5.097  -4.700  24.533  0.00  0.00    +0.197 C 
ATOM     41  C   UNL     1       4.817  -5.625  25.728  0.00  0.00    +0.171 C 
ATOM     42  C   UNL     1       5.913  -5.483  26.787  0.00  0.00    +0.178 C 
ATOM     43  C   UNL     1       7.301  -5.593  26.135  0.00  0.00    +0.201 C 
BRANCH  43  44
ATOM     44  O   UNL     1       8.338  -5.494  27.115  0.00  0.00    -0.384 OA
ATOM     45  H   UNL     1       8.150  -4.691  27.640  0.00  0.00    +0.210 HD
ENDBRANCH  43  44
BRANCH  42  46
ATOM     46  O   UNL     1       5.796  -4.265  27.531  0.00  0.00    -0.386 OA
ATOM     47  H   UNL     1       4.851  -4.065  27.669  0.00  0.00    +0.210 HD
ENDBRANCH  42  46
BRANCH  41  48
ATOM     48  O   UNL     1       4.762  -6.981  25.269  0.00  0.00    -0.387 OA
ATOM     49  H   UNL     1       3.836  -7.196  25.061  0.00  0.00    +0.210 HD
ENDBRANCH  41  48
ENDBRANCH  37  38
ENDBRANCH  32  37
BRANCH  29  50
ATOM     50  C   UNL     1       9.850   0.872  21.944  0.00  0.00    +0.190 C 
BRANCH  50  51
ATOM     51  O   UNL     1       9.205   1.890  21.186  0.00  0.00    -0.392 OA
ATOM     52  H   UNL     1       8.340   2.044  21.612  0.00  0.00    +0.210 HD
ENDBRANCH  50  51
ENDBRANCH  29  50
ENDBRANCH   1  27
TORSDOF 16
ENDMDL
MODEL 3
REMARK VINA RESULT:      -6.7      2.447      8.100
REMARK  Name = 
REMARK  18 active torsions:
REMARK  status: ('A' for Active; 'I' for Inactive)
REMARK    1  A    between atoms: C_1  and  O_2
REMARK    2  A    between atoms: O_2  and  C_3
REMARK    3  A    between atoms: C_5  and  O_50
REMARK    4  A    between atoms: C_10  and  C_41
REMARK    5  A    between atoms: C_11  and  O_14
REMARK    6  A    between atoms: O_14  and  C_15
REMARK    7  A    between atoms: C_17  and  O_28
REMARK    8  A    between atoms: C_18  and  O_27
REMARK    9  A    between atoms: C_20  and  O_26
REMARK   10  A    between atoms: C_22  and  C_24
REMARK   11  A    between atoms: C_24  and  O_25
REMARK   12  A    between atoms: O_28  and  C_29
REMARK   13  A    between atoms: C_31  and  O_40
REMARK   14  A    between atoms: C_32  and  O_39
REMARK   15  A    between atoms: C_34  and  O_38
REMARK   16  A    between atoms: C_43  and  O_48
REMARK   17  A    between atoms: C_44  and  O_47
REMARK   18  A    between atoms: O_48  and  C_49
REMARK                            x       y       z     vdW  Elec       q    Type
REMARK                         _______ _______ _______ _____ _____    ______ ____
ROOT
ATOM      1  O   UNL     1       5.983  -1.293  26.502  0.00  0.00    -0.453 OA
ENDROOT
BRANCH   1   7
ATOM      2  C   UNL     1       9.543   3.335  24.112  0.00  0.00    +0.127 A 
ATOM      3  C   UNL     1       9.820   1.968  24.242  0.00  0.00    +0.092 A 
ATOM      4  C   UNL     1       9.017   1.183  25.073  0.00  0.00    +0.147 A 
ATOM      5  O   UNL     1       9.268  -0.170  25.173  0.00  0.00    -0.451 OA
ATOM      6  C   UNL     1       8.201  -0.968  25.586  0.00  0.00    +0.181 A 
ATOM      7  C   UNL     1       7.078  -0.507  26.165  0.00  0.00    +0.214 A 
ATOM      8  C   UNL     1       7.204   0.888  26.660  0.00  0.00    +0.238 A 
ATOM      9  O   UNL     1       6.775   1.238  27.750  0.00  0.00    -0.283 OA
ATOM     10  C   UNL     1       7.968   1.770  25.781  0.00  0.00    +0.109 A 
ATOM     11  C   UNL     1       7.664   3.115  25.624  0.00  0.00    +0.135 A 
ATOM     12  C   UNL     1       8.459   3.901  24.798  0.00  0.00    +0.092 A 
BRANCH   6  13
ATOM     13  C   UNL     1       8.453  -2.414  25.527  0.00  0.00    +0.025 A 
ATOM     14  C   UNL     1       9.342  -2.881  24.539  0.00  0.00    +0.015 A 
ATOM     15  C   UNL     1       9.755  -4.209  24.531  0.00  0.00    +0.050 A 
ATOM     16  C   UNL     1       9.280  -5.062  25.515  0.00  0.00    +0.158 A 
ATOM     17  C   UNL     1       8.367  -4.632  26.488  0.00  0.00    +0.162 A 
ATOM     18  C   UNL     1       7.942  -3.300  26.484  0.00  0.00    +0.061 A 
BRANCH  17  19
ATOM     19  O   UNL     1       8.009  -5.595  27.398  0.00  0.00    -0.491 OA
ATOM     20  C   UNL     1       6.641  -5.622  27.785  0.00  0.00    +0.277 C 
ENDBRANCH  17  19
BRANCH  16  21
ATOM     21  O   UNL     1       9.756  -6.345  25.534  0.00  0.00    -0.503 OA
ATOM     22  H   UNL     1      10.502  -6.325  26.165  0.00  0.00    +0.292 HD
ENDBRANCH  16  21
ENDBRANCH   6  13
BRANCH  11  23
ATOM     23  O   UNL     1       6.553   3.639  26.215  0.00  0.00    -0.506 OA
ATOM     24  H   UNL     1       5.781   3.517  25.640  0.00  0.00    +0.292 HD
ENDBRANCH  11  23
BRANCH   2  26
ATOM     25  C   UNL     1      11.647   4.178  23.384  0.00  0.00    +0.277 C 
ATOM     26  O   UNL     1      10.228   4.230  23.337  0.00  0.00    -0.495 OA
ENDBRANCH   2  26
ENDBRANCH   1   7
BRANCH   1  27
ATOM     27  C   UNL     1       4.809  -1.101  25.671  0.00  0.00    +0.340 C 
ATOM     28  O   UNL     1       4.160   0.129  26.026  0.00  0.00    -0.331 OA
ATOM     29  C   UNL     1       3.708   0.165  27.392  0.00  0.00    +0.179 C 
ATOM     30  C   UNL     1       2.692  -0.969  27.666  0.00  0.00    +0.177 C 
ATOM     31  C   UNL     1       3.287  -2.339  27.261  0.00  0.00    +0.180 C 
ATOM     32  C   UNL     1       3.789  -2.276  25.797  0.00  0.00    +0.221 C 
BRANCH  31  33
ATOM     33  O   UNL     1       4.302  -2.731  28.192  0.00  0.00    -0.386 OA
ATOM     34  H   UNL     1       3.999  -2.529  29.099  0.00  0.00    +0.210 HD
ENDBRANCH  31  33
BRANCH  30  35
ATOM     35  O   UNL     1       1.492  -0.769  26.908  0.00  0.00    -0.386 OA
ATOM     36  H   UNL     1       1.752  -0.623  25.979  0.00  0.00    +0.210 HD
ENDBRANCH  30  35
BRANCH  32  37
ATOM     37  O   UNL     1       4.334  -3.483  25.220  0.00  0.00    -0.337 OA
BRANCH  37  38
ATOM     38  C   UNL     1       3.474  -4.277  24.386  0.00  0.00    +0.282 C 
ATOM     39  O   UNL     1       2.795  -5.237  25.216  0.00  0.00    -0.346 OA
ATOM     40  C   UNL     1       3.633  -6.290  25.715  0.00  0.00    +0.197 C 
ATOM     41  C   UNL     1       4.340  -7.091  24.610  0.00  0.00    +0.171 C 
ATOM     42  C   UNL     1       5.060  -6.149  23.640  0.00  0.00    +0.178 C 
ATOM     43  C   UNL     1       4.113  -5.026  23.186  0.00  0.00    +0.201 C 
BRANCH  43  44
ATOM     44  O   UNL     1       4.760  -4.154  22.255  0.00  0.00    -0.384 OA
ATOM     45  H   UNL     1       4.060  -3.593  21.866  0.00  0.00    +0.210 HD
ENDBRANCH  43  44
BRANCH  42  46
ATOM     46  O   UNL     1       6.261  -5.606  24.201  0.00  0.00    -0.386 OA
ATOM     47  H   UNL     1       6.724  -6.304  24.702  0.00  0.00    +0.210 HD
ENDBRANCH  42  46
BRANCH  41  48
ATOM     48  O   UNL     1       3.369  -7.866  23.897  0.00  0.00    -0.387 OA
ATOM     49  H   UNL     1       2.502  -7.436  23.997  0.00  0.00    +0.210 HD
ENDBRANCH  41  48
ENDBRANCH  37  38
ENDBRANCH  32  37
BRANCH  29  50
ATOM     50  C   UNL     1       3.164   1.582  27.663  0.00  0.00    +0.190 C 
BRANCH  50  51
ATOM     51  O   UNL     1       4.159   2.600  27.628  0.00  0.00    -0.392 OA
ATOM     52  H   UNL     1       3.773   3.343  27.126  0.00  0.00    +0.210 HD
ENDBRANCH  50  51
ENDBRANCH  29  50
ENDBRANCH   1  27
TORSDOF 16
ENDMDL
MODEL 4
REMARK VINA RESULT:      -6.6      2.139      5.577
REMARK  Name = 
REMARK  18 active torsions:
REMARK  status: ('A' for Active; 'I' for Inactive)
REMARK    1  A    between atoms: C_1  and  O_2
REMARK    2  A    between atoms: O_2  and  C_3
REMARK    3  A    between atoms: C_5  and  O_50
REMARK    4  A    between atoms: C_10  and  C_41
REMARK    5  A    between atoms: C_11  and  O_14
REMARK    6  A    between atoms: O_14  and  C_15
REMARK    7  A    between atoms: C_17  and  O_28
REMARK    8  A    between atoms: C_18  and  O_27
REMARK    9  A    between atoms: C_20  and  O_26
REMARK   10  A    between atoms: C_22  and  C_24
REMARK   11  A    between atoms: C_24  and  O_25
REMARK   12  A    between atoms: O_28  and  C_29
REMARK   13  A    between atoms: C_31  and  O_40
REMARK   14  A    between atoms: C_32  and  O_39
REMARK   15  A    between atoms: C_34  and  O_38
REMARK   16  A    between atoms: C_43  and  O_48
REMARK   17  A    between atoms: C_44  and  O_47
REMARK   18  A    between atoms: O_48  and  C_49
REMARK                            x       y       z     vdW  Elec       q    Type
REMARK                         _______ _______ _______ _____ _____    ______ ____
ROOT
ATOM      1  O   UNL     1       6.283  -2.450  25.535  0.00  0.00    -0.453 OA
ENDROOT
BRANCH   1   7
ATOM      2  C   UNL     1       4.238   2.094  29.404  0.00  0.00    +0.127 A 
ATOM      3  C   UNL     1       3.825   0.760  29.292  0.00  0.00    +0.092 A 
ATOM      4  C   UNL     1       4.199   0.020  28.167  0.00  0.00    +0.147 A 
ATOM      5  O   UNL     1       3.821  -1.304  28.073  0.00  0.00    -0.451 OA
ATOM      6  C   UNL     1       4.593  -2.109  27.236  0.00  0.00    +0.181 A 
ATOM      7  C   UNL     1       5.456  -1.650  26.312  0.00  0.00    +0.214 A 
ATOM      8  C   UNL     1       5.267  -0.209  25.999  0.00  0.00    +0.238 A 
ATOM      9  O   UNL     1       5.291   0.222  24.856  0.00  0.00    -0.283 OA
ATOM     10  C   UNL     1       4.955   0.621  27.160  0.00  0.00    +0.109 A 
ATOM     11  C   UNL     1       5.402   1.928  27.286  0.00  0.00    +0.135 A 
ATOM     12  C   UNL     1       5.034   2.669  28.404  0.00  0.00    +0.092 A 
BRANCH   6  13
ATOM     13  C   UNL     1       4.267  -3.541  27.282  0.00  0.00    +0.025 A 
ATOM     14  C   UNL     1       3.075  -3.957  26.658  0.00  0.00    +0.015 A 
ATOM     15  C   UNL     1       2.787  -5.311  26.517  0.00  0.00    +0.050 A 
ATOM     16  C   UNL     1       3.696  -6.240  26.999  0.00  0.00    +0.158 A 
ATOM     17  C   UNL     1       4.872  -5.852  27.656  0.00  0.00    +0.162 A 
ATOM     18  C   UNL     1       5.151  -4.491  27.809  0.00  0.00    +0.061 A 
BRANCH  17  19
ATOM     19  O   UNL     1       5.671  -6.894  28.056  0.00  0.00    -0.491 OA
ATOM     20  C   UNL     1       6.257  -6.782  29.347  0.00  0.00    +0.277 C 
ENDBRANCH  17  19
BRANCH  16  21
ATOM     21  O   UNL     1       3.430  -7.566  26.785  0.00  0.00    -0.503 OA
ATOM     22  H   UNL     1       2.504  -7.684  27.075  0.00  0.00    +0.292 HD
ENDBRANCH  16  21
ENDBRANCH   6  13
BRANCH  11  23
ATOM     23  O   UNL     1       6.254   2.453  26.361  0.00  0.00    -0.506 OA
ATOM     24  H   UNL     1       6.983   2.915  26.804  0.00  0.00    +0.292 HD
ENDBRANCH  11  23
BRANCH   2  26
ATOM     25  C   UNL     1       3.991   4.335  30.165  0.00  0.00    +0.277 C 
ATOM     26  O   UNL     1       3.962   2.942  30.440  0.00  0.00    -0.495 OA
ENDBRANCH   2  26
ENDBRANCH   1   7
BRANCH   1  27
ATOM     27  C   UNL     1       6.002  -2.426  24.112  0.00  0.00    +0.340 C 
ATOM     28  O   UNL     1       5.241  -3.587  23.748  0.00  0.00    -0.331 OA
ATOM     29  C   UNL     1       5.923  -4.826  24.012  0.00  0.00    +0.179 C 
ATOM     30  C   UNL     1       7.252  -4.902  23.223  0.00  0.00    +0.177 C 
ATOM     31  C   UNL     1       8.124  -3.657  23.511  0.00  0.00    +0.180 C 
ATOM     32  C   UNL     1       7.301  -2.372  23.247  0.00  0.00    +0.221 C 
BRANCH  31  33
ATOM     33  O   UNL     1       8.658  -3.725  24.838  0.00  0.00    -0.386 OA
ATOM     34  H   UNL     1       7.934  -3.916  25.466  0.00  0.00    +0.210 HD
ENDBRANCH  31  33
BRANCH  30  35
ATOM     35  O   UNL     1       7.003  -4.947  21.813  0.00  0.00    -0.386 OA
ATOM     36  H   UNL     1       6.734  -5.858  21.590  0.00  0.00    +0.210 HD
ENDBRANCH  30  35
BRANCH  32  37
ATOM     37  O   UNL     1       7.966  -1.100  23.413  0.00  0.00    -0.337 OA
BRANCH  37  38
ATOM     38  C   UNL     1       8.241  -0.327  22.233  0.00  0.00    +0.282 C 
ATOM     39  O   UNL     1       9.661  -0.349  21.995  0.00  0.00    -0.346 OA
ATOM     40  C   UNL     1      10.433   0.417  22.932  0.00  0.00    +0.197 C 
ATOM     41  C   UNL     1      10.024   1.897  23.002  0.00  0.00    +0.171 C 
ATOM     42  C   UNL     1       8.513   2.029  23.210  0.00  0.00    +0.178 C 
ATOM     43  C   UNL     1       7.758   1.148  22.201  0.00  0.00    +0.201 C 
BRANCH  43  44
ATOM     44  O   UNL     1       6.343   1.283  22.360  0.00  0.00    -0.384 OA
ATOM     45  H   UNL     1       6.047   0.513  22.886  0.00  0.00    +0.210 HD
ENDBRANCH  43  44
BRANCH  42  46
ATOM     46  O   UNL     1       8.119   1.717  24.551  0.00  0.00    -0.386 OA
ATOM     47  H   UNL     1       8.112   2.537  25.081  0.00  0.00    +0.210 HD
ENDBRANCH  42  46
BRANCH  41  48
ATOM     48  O   UNL     1      10.402   2.547  21.783  0.00  0.00    -0.387 OA
ATOM     49  H   UNL     1       9.728   3.217  21.572  0.00  0.00    +0.210 HD
ENDBRANCH  41  48
ENDBRANCH  37  38
ENDBRANCH  32  37
BRANCH  29  50
ATOM     50  C   UNL     1       4.939  -5.972  23.705  0.00  0.00    +0.190 C 
BRANCH  50  51
ATOM     51  O   UNL     1       4.470  -5.988  22.360  0.00  0.00    -0.392 OA
ATOM     52  H   UNL     1       5.246  -6.181  21.801  0.00  0.00    +0.210 HD
ENDBRANCH  50  51
ENDBRANCH  29  50
ENDBRANCH   1  27
TORSDOF 16
ENDMDL
MODEL 5
REMARK VINA RESULT:      -6.5      1.249      1.917
REMARK  Name = 
REMARK  18 active torsions:
REMARK  status: ('A' for Active; 'I' for Inactive)
REMARK    1  A    between atoms: C_1  and  O_2
REMARK    2  A    between atoms: O_2  and  C_3
REMARK    3  A    between atoms: C_5  and  O_50
REMARK    4  A    between atoms: C_10  and  C_41
REMARK    5  A    between atoms: C_11  and  O_14
REMARK    6  A    between atoms: O_14  and  C_15
REMARK    7  A    between atoms: C_17  and  O_28
REMARK    8  A    between atoms: C_18  and  O_27
REMARK    9  A    between atoms: C_20  and  O_26
REMARK   10  A    between atoms: C_22  and  C_24
REMARK   11  A    between atoms: C_24  and  O_25
REMARK   12  A    between atoms: O_28  and  C_29
REMARK   13  A    between atoms: C_31  and  O_40
REMARK   14  A    between atoms: C_32  and  O_39
REMARK   15  A    between atoms: C_34  and  O_38
REMARK   16  A    between atoms: C_43  and  O_48
REMARK   17  A    between atoms: C_44  and  O_47
REMARK   18  A    between atoms: O_48  and  C_49
REMARK                            x       y       z     vdW  Elec       q    Type
REMARK                         _______ _______ _______ _____ _____    ______ ____
ROOT
ATOM      1  O   UNL     1       6.893  -2.440  25.215  0.00  0.00    -0.453 OA
ENDROOT
BRANCH   1   7
ATOM      2  C   UNL     1       3.225  -5.251  29.509  0.00  0.00    +0.127 A 
ATOM      3  C   UNL     1       3.530  -3.894  29.342  0.00  0.00    +0.092 A 
ATOM      4  C   UNL     1       4.599  -3.530  28.520  0.00  0.00    +0.147 A 
ATOM      5  O   UNL     1       4.878  -2.192  28.328  0.00  0.00    -0.451 OA
ATOM      6  C   UNL     1       5.585  -1.867  27.171  0.00  0.00    +0.181 A 
ATOM      7  C   UNL     1       6.257  -2.750  26.410  0.00  0.00    +0.214 A 
ATOM      8  C   UNL     1       6.488  -4.052  27.089  0.00  0.00    +0.238 A 
ATOM      9  O   UNL     1       7.561  -4.635  27.038  0.00  0.00    -0.283 OA
ATOM     10  C   UNL     1       5.363  -4.516  27.897  0.00  0.00    +0.109 A 
ATOM     11  C   UNL     1       5.039  -5.859  28.025  0.00  0.00    +0.135 A 
ATOM     12  C   UNL     1       3.976  -6.228  28.841  0.00  0.00    +0.092 A 
BRANCH   6  13
ATOM     13  C   UNL     1       5.724  -0.427  26.915  0.00  0.00    +0.025 A 
ATOM     14  C   UNL     1       6.704   0.271  27.646  0.00  0.00    +0.015 A 
ATOM     15  C   UNL     1       7.006   1.594  27.338  0.00  0.00    +0.050 A 
ATOM     16  C   UNL     1       6.326   2.209  26.297  0.00  0.00    +0.158 A 
ATOM     17  C   UNL     1       5.322   1.547  25.577  0.00  0.00    +0.162 A 
ATOM     18  C   UNL     1       5.011   0.223  25.899  0.00  0.00    +0.061 A 
BRANCH  17  19
ATOM     19  O   UNL     1       4.761   2.290  24.569  0.00  0.00    -0.491 OA
ATOM     20  C   UNL     1       3.499   2.884  24.849  0.00  0.00    +0.277 C 
ENDBRANCH  17  19
BRANCH  16  21
ATOM     21  O   UNL     1       6.689   3.485  25.962  0.00  0.00    -0.503 OA
ATOM     22  H   UNL     1       6.735   3.963  26.813  0.00  0.00    +0.292 HD
ENDBRANCH  16  21
ENDBRANCH   6  13
BRANCH  11  23
ATOM     23  O   UNL     1       5.710  -6.797  27.299  0.00  0.00    -0.506 OA
ATOM     24  H   UNL     1       6.121  -7.446  27.891  0.00  0.00    +0.292 HD
ENDBRANCH  11  23
BRANCH   2  26
ATOM     25  C   UNL     1       1.824  -7.108  30.016  0.00  0.00    +0.277 C 
ATOM     26  O   UNL     1       2.211  -5.765  30.270  0.00  0.00    -0.495 OA
ENDBRANCH   2  26
ENDBRANCH   1   7
BRANCH   1  27
ATOM     27  C   UNL     1       6.012  -2.269  24.075  0.00  0.00    +0.340 C 
ATOM     28  O   UNL     1       5.296  -3.488  23.828  0.00  0.00    -0.331 OA
ATOM     29  C   UNL     1       6.152  -4.603  23.522  0.00  0.00    +0.179 C 
ATOM     30  C   UNL     1       6.996  -4.319  22.257  0.00  0.00    +0.177 C 
ATOM     31  C   UNL     1       7.768  -2.987  22.408  0.00  0.00    +0.180 C 
ATOM     32  C   UNL     1       6.782  -1.853  22.782  0.00  0.00    +0.221 C 
BRANCH  31  33
ATOM     33  O   UNL     1       8.837  -3.140  23.349  0.00  0.00    -0.386 OA
ATOM     34  H   UNL     1       9.378  -3.914  23.095  0.00  0.00    +0.210 HD
ENDBRANCH  31  33
BRANCH  30  35
ATOM     35  O   UNL     1       6.156  -4.212  21.101  0.00  0.00    -0.386 OA
ATOM     36  H   UNL     1       6.105  -3.267  20.860  0.00  0.00    +0.210 HD
ENDBRANCH  30  35
BRANCH  32  37
ATOM     37  O   UNL     1       7.312  -0.516  22.916  0.00  0.00    -0.337 OA
BRANCH  37  38
ATOM     38  C   UNL     1       8.701  -0.310  22.609  0.00  0.00    +0.282 C 
ATOM     39  O   UNL     1       9.466  -0.497  23.813  0.00  0.00    -0.346 OA
ATOM     40  C   UNL     1       9.310   0.547  24.786  0.00  0.00    +0.197 C 
ATOM     41  C   UNL     1       9.668   1.944  24.253  0.00  0.00    +0.171 C 
ATOM     42  C   UNL     1       8.932   2.223  22.939  0.00  0.00    +0.178 C 
ATOM     43  C   UNL     1       9.110   1.045  21.969  0.00  0.00    +0.201 C 
BRANCH  43  44
ATOM     44  O   UNL     1       8.456   1.302  20.723  0.00  0.00    -0.384 OA
ATOM     45  H   UNL     1       8.271   2.262  20.698  0.00  0.00    +0.210 HD
ENDBRANCH  43  44
BRANCH  42  46
ATOM     46  O   UNL     1       7.544   2.509  23.144  0.00  0.00    -0.386 OA
ATOM     47  H   UNL     1       7.458   3.373  23.589  0.00  0.00    +0.210 HD
ENDBRANCH  42  46
BRANCH  41  48
ATOM     48  O   UNL     1      11.082   2.017  24.039  0.00  0.00    -0.387 OA
ATOM     49  H   UNL     1      11.311   2.938  23.825  0.00  0.00    +0.210 HD
ENDBRANCH  41  48
ENDBRANCH  37  38
ENDBRANCH  32  37
BRANCH  29  50
ATOM     50  C   UNL     1       5.262  -5.858  23.421  0.00  0.00    +0.190 C 
BRANCH  50  51
ATOM     51  O   UNL     1       5.633  -6.748  22.374  0.00  0.00    -0.392 OA
ATOM     52  H   UNL     1       5.304  -7.630  22.633  0.00  0.00    +0.210 HD
ENDBRANCH  50  51
ENDBRANCH  29  50
ENDBRANCH   1  27
TORSDOF 16
ENDMDL
MODEL 6
REMARK VINA RESULT:      -6.5      1.636      2.171
REMARK  Name = 
REMARK  18 active torsions:
REMARK  status: ('A' for Active; 'I' for Inactive)
REMARK    1  A    between atoms: C_1  and  O_2
REMARK    2  A    between atoms: O_2  and  C_3
REMARK    3  A    between atoms: C_5  and  O_50
REMARK    4  A    between atoms: C_10  and  C_41
REMARK    5  A    between atoms: C_11  and  O_14
REMARK    6  A    between atoms: O_14  and  C_15
REMARK    7  A    between atoms: C_17  and  O_28
REMARK    8  A    between atoms: C_18  and  O_27
REMARK    9  A    between atoms: C_20  and  O_26
REMARK   10  A    between atoms: C_22  and  C_24
REMARK   11  A    between atoms: C_24  and  O_25
REMARK   12  A    between atoms: O_28  and  C_29
REMARK   13  A    between atoms: C_31  and  O_40
REMARK   14  A    between atoms: C_32  and  O_39
REMARK   15  A    between atoms: C_34  and  O_38
REMARK   16  A    between atoms: C_43  and  O_48
REMARK   17  A    between atoms: C_44  and  O_47
REMARK   18  A    between atoms: O_48  and  C_49
REMARK                            x       y       z     vdW  Elec       q    Type
REMARK                         _______ _______ _______ _____ _____    ______ ____
ROOT
ATOM      1  O   UNL     1       7.336  -2.316  25.519  0.00  0.00    -0.453 OA
ENDROOT
BRANCH   1   7
ATOM      2  C   UNL     1       2.778  -5.272  28.726  0.00  0.00    +0.127 A 
ATOM      3  C   UNL     1       3.125  -3.915  28.707  0.00  0.00    +0.092 A 
ATOM      4  C   UNL     1       4.353  -3.530  28.165  0.00  0.00    +0.147 A 
ATOM      5  O   UNL     1       4.680  -2.190  28.116  0.00  0.00    -0.451 OA
ATOM      6  C   UNL     1       5.630  -1.820  27.165  0.00  0.00    +0.181 A 
ATOM      7  C   UNL     1       6.447  -2.675  26.523  0.00  0.00    +0.214 A 
ATOM      8  C   UNL     1       6.510  -4.016  27.162  0.00  0.00    +0.238 A 
ATOM      9  O   UNL     1       7.562  -4.618  27.318  0.00  0.00    -0.283 OA
ATOM     10  C   UNL     1       5.229  -4.498  27.673  0.00  0.00    +0.109 A 
ATOM     11  C   UNL     1       4.873  -5.838  27.650  0.00  0.00    +0.135 A 
ATOM     12  C   UNL     1       3.651  -6.228  28.187  0.00  0.00    +0.092 A 
BRANCH   6  13
ATOM     13  C   UNL     1       5.836  -0.372  27.028  0.00  0.00    +0.025 A 
ATOM     14  C   UNL     1       5.187   0.280  25.962  0.00  0.00    +0.015 A 
ATOM     15  C   UNL     1       5.200   1.668  25.869  0.00  0.00    +0.050 A 
ATOM     16  C   UNL     1       5.859   2.396  26.848  0.00  0.00    +0.158 A 
ATOM     17  C   UNL     1       6.542   1.771  27.899  0.00  0.00    +0.162 A 
ATOM     18  C   UNL     1       6.540   0.375  27.981  0.00  0.00    +0.061 A 
BRANCH  17  19
ATOM     19  O   UNL     1       7.127   2.635  28.791  0.00  0.00    -0.491 OA
ATOM     20  C   UNL     1       7.532   2.080  30.036  0.00  0.00    +0.277 C 
ENDBRANCH  17  19
BRANCH  16  21
ATOM     21  O   UNL     1       5.797   3.762  26.779  0.00  0.00    -0.503 OA
ATOM     22  H   UNL     1       6.375   4.000  26.027  0.00  0.00    +0.292 HD
ENDBRANCH  16  21
ENDBRANCH   6  13
BRANCH  11  23
ATOM     23  O   UNL     1       5.680  -6.751  27.039  0.00  0.00    -0.506 OA
ATOM     24  H   UNL     1       6.288  -7.144  27.684  0.00  0.00    +0.292 HD
ENDBRANCH  11  23
BRANCH   2  26
ATOM     25  C   UNL     1       1.041  -6.882  28.487  0.00  0.00    +0.277 C 
ATOM     26  O   UNL     1       1.616  -5.804  29.212  0.00  0.00    -0.495 OA
ENDBRANCH   2  26
ENDBRANCH   1   7
BRANCH   1  27
ATOM     27  C   UNL     1       6.732  -2.056  24.226  0.00  0.00    +0.340 C 
ATOM     28  O   UNL     1       5.691  -3.012  23.976  0.00  0.00    -0.331 OA
ATOM     29  C   UNL     1       6.159  -4.372  23.945  0.00  0.00    +0.179 C 
ATOM     30  C   UNL     1       7.217  -4.567  22.833  0.00  0.00    +0.177 C 
ATOM     31  C   UNL     1       8.361  -3.537  22.989  0.00  0.00    +0.180 C 
ATOM     32  C   UNL     1       7.769  -2.107  23.060  0.00  0.00    +0.221 C 
BRANCH  31  33
ATOM     33  O   UNL     1       9.175  -3.869  24.119  0.00  0.00    -0.386 OA
ATOM     34  H   UNL     1      10.112  -3.896  23.842  0.00  0.00    +0.210 HD
ENDBRANCH  31  33
BRANCH  30  35
ATOM     35  O   UNL     1       6.632  -4.381  21.538  0.00  0.00    -0.386 OA
ATOM     36  H   UNL     1       5.678  -4.572  21.616  0.00  0.00    +0.210 HD
ENDBRANCH  30  35
BRANCH  32  37
ATOM     37  O   UNL     1       8.692  -0.999  23.154  0.00  0.00    -0.337 OA
BRANCH  37  38
ATOM     38  C   UNL     1       8.166   0.282  23.538  0.00  0.00    +0.282 C 
ATOM     39  O   UNL     1       8.068   1.104  22.361  0.00  0.00    -0.346 OA
ATOM     40  C   UNL     1       9.329   1.544  21.835  0.00  0.00    +0.197 C 
ATOM     41  C   UNL     1      10.178   2.330  22.848  0.00  0.00    +0.171 C 
ATOM     42  C   UNL     1      10.305   1.552  24.161  0.00  0.00    +0.178 C 
ATOM     43  C   UNL     1       8.922   1.079  24.636  0.00  0.00    +0.201 C 
BRANCH  43  44
ATOM     44  O   UNL     1       9.017   0.377  25.878  0.00  0.00    -0.384 OA
ATOM     45  H   UNL     1       8.104   0.142  26.137  0.00  0.00    +0.210 HD
ENDBRANCH  43  44
BRANCH  42  46
ATOM     46  O   UNL     1      11.211   0.449  24.054  0.00  0.00    -0.386 OA
ATOM     47  H   UNL     1      12.030   0.749  23.615  0.00  0.00    +0.210 HD
ENDBRANCH  42  46
BRANCH  41  48
ATOM     48  O   UNL     1       9.559   3.598  23.096  0.00  0.00    -0.387 OA
ATOM     49  H   UNL     1       8.611   3.449  23.258  0.00  0.00    +0.210 HD
ENDBRANCH  41  48
ENDBRANCH  37  38
ENDBRANCH  32  37
BRANCH  29  50
ATOM     50  C   UNL     1       4.924  -5.285  23.810  0.00  0.00    +0.190 C 
BRANCH  50  51
ATOM     51  O   UNL     1       4.123  -5.008  22.664  0.00  0.00    -0.392 OA
ATOM     52  H   UNL     1       4.726  -4.638  21.991  0.00  0.00    +0.210 HD
ENDBRANCH  50  51
ENDBRANCH  29  50
ENDBRANCH   1  27
TORSDOF 16
ENDMDL
MODEL 7
REMARK VINA RESULT:      -6.5      2.252      5.383
REMARK  Name = 
REMARK  18 active torsions:
REMARK  status: ('A' for Active; 'I' for Inactive)
REMARK    1  A    between atoms: C_1  and  O_2
REMARK    2  A    between atoms: O_2  and  C_3
REMARK    3  A    between atoms: C_5  and  O_50
REMARK    4  A    between atoms: C_10  and  C_41
REMARK    5  A    between atoms: C_11  and  O_14
REMARK    6  A    between atoms: O_14  and  C_15
REMARK    7  A    between atoms: C_17  and  O_28
REMARK    8  A    between atoms: C_18  and  O_27
REMARK    9  A    between atoms: C_20  and  O_26
REMARK   10  A    between atoms: C_22  and  C_24
REMARK   11  A    between atoms: C_24  and  O_25
REMARK   12  A    between atoms: O_28  and  C_29
REMARK   13  A    between atoms: C_31  and  O_40
REMARK   14  A    between atoms: C_32  and  O_39
REMARK   15  A    between atoms: C_34  and  O_38
REMARK   16  A    between atoms: C_43  and  O_48
REMARK   17  A    between atoms: C_44  and  O_47
REMARK   18  A    between atoms: O_48  and  C_49
REMARK                            x       y       z     vdW  Elec       q    Type
REMARK                         _______ _______ _______ _____ _____    ______ ____
ROOT
ATOM      1  O   UNL     1       6.225  -2.545  25.441  0.00  0.00    -0.453 OA
ENDROOT
BRANCH   1   7
ATOM      2  C   UNL     1       3.785   1.810  29.298  0.00  0.00    +0.127 A 
ATOM      3  C   UNL     1       3.358   0.501  29.041  0.00  0.00    +0.092 A 
ATOM      4  C   UNL     1       3.863  -0.177  27.930  0.00  0.00    +0.147 A 
ATOM      5  O   UNL     1       3.469  -1.479  27.696  0.00  0.00    -0.451 OA
ATOM      6  C   UNL     1       4.327  -2.255  26.918  0.00  0.00    +0.181 A 
ATOM      7  C   UNL     1       5.320  -1.767  26.152  0.00  0.00    +0.214 A 
ATOM      8  C   UNL     1       5.212  -0.304  25.915  0.00  0.00    +0.238 A 
ATOM      9  O   UNL     1       5.402   0.198  24.817  0.00  0.00    -0.283 OA
ATOM     10  C   UNL     1       4.765   0.460  27.077  0.00  0.00    +0.109 A 
ATOM     11  C   UNL     1       5.223   1.741  27.351  0.00  0.00    +0.135 A 
ATOM     12  C   UNL     1       4.724   2.421  28.456  0.00  0.00    +0.092 A 
BRANCH   6  13
ATOM     13  C   UNL     1       3.962  -3.675  26.823  0.00  0.00    +0.025 A 
ATOM     14  C   UNL     1       4.617  -4.575  27.685  0.00  0.00    +0.015 A 
ATOM     15  C   UNL     1       4.205  -5.901  27.768  0.00  0.00    +0.050 A 
ATOM     16  C   UNL     1       3.135  -6.317  26.990  0.00  0.00    +0.158 A 
ATOM     17  C   UNL     1       2.488  -5.451  26.098  0.00  0.00    +0.162 A 
ATOM     18  C   UNL     1       2.915  -4.123  26.006  0.00  0.00    +0.061 A 
BRANCH  17  19
ATOM     19  O   UNL     1       1.440  -6.015  25.417  0.00  0.00    -0.491 OA
ATOM     20  C   UNL     1       1.002  -5.329  24.250  0.00  0.00    +0.277 C 
ENDBRANCH  17  19
BRANCH  16  21
ATOM     21  O   UNL     1       2.697  -7.605  27.141  0.00  0.00    -0.503 OA
ATOM     22  H   UNL     1       1.736  -7.525  27.300  0.00  0.00    +0.292 HD
ENDBRANCH  16  21
ENDBRANCH   6  13
BRANCH  11  23
ATOM     23  O   UNL     1       6.207   2.294  26.587  0.00  0.00    -0.506 OA
ATOM     24  H   UNL     1       7.007   1.749  26.628  0.00  0.00    +0.292 HD
ENDBRANCH  11  23
BRANCH   2  26
ATOM     25  C   UNL     1       3.689   3.986  30.259  0.00  0.00    +0.277 C 
ATOM     26  O   UNL     1       3.391   2.599  30.344  0.00  0.00    -0.495 OA
ENDBRANCH   2  26
ENDBRANCH   1   7
BRANCH   1  27
ATOM     27  C   UNL     1       6.037  -2.546  24.002  0.00  0.00    +0.340 C 
ATOM     28  O   UNL     1       5.312  -3.720  23.608  0.00  0.00    -0.331 OA
ATOM     29  C   UNL     1       5.988  -4.947  23.936  0.00  0.00    +0.179 C 
ATOM     30  C   UNL     1       7.367  -5.021  23.237  0.00  0.00    +0.177 C 
ATOM     31  C   UNL     1       8.206  -3.763  23.561  0.00  0.00    +0.180 C 
ATOM     32  C   UNL     1       7.390  -2.491  23.223  0.00  0.00    +0.221 C 
BRANCH  31  33
ATOM     33  O   UNL     1       8.653  -3.804  24.921  0.00  0.00    -0.386 OA
ATOM     34  H   UNL     1       8.072  -4.402  25.431  0.00  0.00    +0.210 HD
ENDBRANCH  31  33
BRANCH  30  35
ATOM     35  O   UNL     1       7.211  -5.091  21.815  0.00  0.00    -0.386 OA
ATOM     36  H   UNL     1       7.567  -4.265  21.437  0.00  0.00    +0.210 HD
ENDBRANCH  30  35
BRANCH  32  37
ATOM     37  O   UNL     1       8.030  -1.209  23.411  0.00  0.00    -0.337 OA
BRANCH  37  38
ATOM     38  C   UNL     1       8.281  -0.407  22.246  0.00  0.00    +0.282 C 
ATOM     39  O   UNL     1       9.699  -0.389  22.003  0.00  0.00    -0.346 OA
ATOM     40  C   UNL     1      10.457   0.376  22.951  0.00  0.00    +0.197 C 
ATOM     41  C   UNL     1      10.013   1.845  23.052  0.00  0.00    +0.171 C 
ATOM     42  C   UNL     1       8.499   1.935  23.269  0.00  0.00    +0.178 C 
ATOM     43  C   UNL     1       7.762   1.057  22.245  0.00  0.00    +0.201 C 
BRANCH  43  44
ATOM     44  O   UNL     1       6.345   1.154  22.412  0.00  0.00    -0.384 OA
ATOM     45  H   UNL     1       5.944   0.567  21.740  0.00  0.00    +0.210 HD
ENDBRANCH  43  44
BRANCH  42  46
ATOM     46  O   UNL     1       8.119   1.587  24.605  0.00  0.00    -0.386 OA
ATOM     47  H   UNL     1       7.165   1.383  24.623  0.00  0.00    +0.210 HD
ENDBRANCH  42  46
BRANCH  41  48
ATOM     48  O   UNL     1      10.369   2.528  21.845  0.00  0.00    -0.387 OA
ATOM     49  H   UNL     1      11.156   3.072  22.023  0.00  0.00    +0.210 HD
ENDBRANCH  41  48
ENDBRANCH  37  38
ENDBRANCH  32  37
BRANCH  29  50
ATOM     50  C   UNL     1       5.037  -6.109  23.585  0.00  0.00    +0.190 C 
BRANCH  50  51
ATOM     51  O   UNL     1       4.523  -6.054  22.258  0.00  0.00    -0.392 OA
ATOM     52  H   UNL     1       4.654  -6.943  21.876  0.00  0.00    +0.210 HD
ENDBRANCH  50  51
ENDBRANCH  29  50
ENDBRANCH   1  27
TORSDOF 16
ENDMDL
MODEL 8
REMARK VINA RESULT:      -6.5      2.887      6.108
REMARK  Name = 
REMARK  18 active torsions:
REMARK  status: ('A' for Active; 'I' for Inactive)
REMARK    1  A    between atoms: C_1  and  O_2
REMARK    2  A    between atoms: O_2  and  C_3
REMARK    3  A    between atoms: C_5  and  O_50
REMARK    4  A    between atoms: C_10  and  C_41
REMARK    5  A    between atoms: C_11  and  O_14
REMARK    6  A    between atoms: O_14  and  C_15
REMARK    7  A    between atoms: C_17  and  O_28
REMARK    8  A    between atoms: C_18  and  O_27
REMARK    9  A    between atoms: C_20  and  O_26
REMARK   10  A    between atoms: C_22  and  C_24
REMARK   11  A    between atoms: C_24  and  O_25
REMARK   12  A    between atoms: O_28  and  C_29
REMARK   13  A    between atoms: C_31  and  O_40
REMARK   14  A    between atoms: C_32  and  O_39
REMARK   15  A    between atoms: C_34  and  O_38
REMARK   16  A    between atoms: C_43  and  O_48
REMARK   17  A    between atoms: C_44  and  O_47
REMARK   18  A    between atoms: O_48  and  C_49
REMARK                            x       y       z     vdW  Elec       q    Type
REMARK                         _______ _______ _______ _____ _____    ______ ____
ROOT
ATOM      1  O   UNL     1       7.387   0.184  24.748  0.00  0.00    -0.453 OA
ENDROOT
BRANCH   1   7
ATOM      2  C   UNL     1       3.858  -4.851  23.335  0.00  0.00    +0.127 A 
ATOM      3  C   UNL     1       3.747  -3.951  24.402  0.00  0.00    +0.092 A 
ATOM      4  C   UNL     1       4.814  -3.095  24.688  0.00  0.00    +0.147 A 
ATOM      5  O   UNL     1       4.691  -2.184  25.718  0.00  0.00    -0.451 OA
ATOM      6  C   UNL     1       5.522  -1.066  25.657  0.00  0.00    +0.181 A 
ATOM      7  C   UNL     1       6.607  -0.958  24.868  0.00  0.00    +0.214 A 
ATOM      8  C   UNL     1       7.064  -2.263  24.321  0.00  0.00    +0.238 A 
ATOM      9  O   UNL     1       8.244  -2.580  24.284  0.00  0.00    -0.283 OA
ATOM     10  C   UNL     1       5.982  -3.162  23.929  0.00  0.00    +0.109 A 
ATOM     11  C   UNL     1       6.081  -4.022  22.845  0.00  0.00    +0.135 A 
ATOM     12  C   UNL     1       5.022  -4.876  22.554  0.00  0.00    +0.092 A 
BRANCH   6  13
ATOM     13  C   UNL     1       5.255  -0.041  26.675  0.00  0.00    +0.025 A 
ATOM     14  C   UNL     1       4.057   0.690  26.564  0.00  0.00    +0.015 A 
ATOM     15  C   UNL     1       3.659   1.554  27.579  0.00  0.00    +0.050 A 
ATOM     16  C   UNL     1       4.463   1.678  28.702  0.00  0.00    +0.158 A 
ATOM     17  C   UNL     1       5.677   0.989  28.822  0.00  0.00    +0.162 A 
ATOM     18  C   UNL     1       6.081   0.133  27.793  0.00  0.00    +0.061 A 
BRANCH  17  19
ATOM     19  O   UNL     1       6.343   1.210  30.001  0.00  0.00    -0.491 OA
ATOM     20  C   UNL     1       7.478   2.065  29.937  0.00  0.00    +0.277 C 
ENDBRANCH  17  19
BRANCH  16  21
ATOM     21  O   UNL     1       4.018   2.476  29.722  0.00  0.00    -0.503 OA
ATOM     22  H   UNL     1       3.148   2.105  29.967  0.00  0.00    +0.292 HD
ENDBRANCH  16  21
ENDBRANCH   6  13
BRANCH  11  23
ATOM     23  O   UNL     1       7.173  -3.975  22.030  0.00  0.00    -0.506 OA
ATOM     24  H   UNL     1       7.160  -3.163  21.502  0.00  0.00    +0.292 HD
ENDBRANCH  11  23
BRANCH   2  26
ATOM     25  C   UNL     1       1.548  -5.394  23.156  0.00  0.00    +0.277 C 
ATOM     26  O   UNL     1       2.905  -5.743  22.926  0.00  0.00    -0.495 OA
ENDBRANCH   2  26
ENDBRANCH   1   7
BRANCH   1  27
ATOM     27  C   UNL     1       7.194   0.935  23.521  0.00  0.00    +0.340 C 
ATOM     28  O   UNL     1       7.877   0.282  22.440  0.00  0.00    -0.331 OA
ATOM     29  C   UNL     1       9.297   0.178  22.640  0.00  0.00    +0.179 C 
ATOM     30  C   UNL     1       9.937   1.579  22.788  0.00  0.00    +0.177 C 
ATOM     31  C   UNL     1       9.227   2.384  23.901  0.00  0.00    +0.180 C 
ATOM     32  C   UNL     1       7.701   2.407  23.636  0.00  0.00    +0.221 C 
BRANCH  31  33
ATOM     33  O   UNL     1       9.569   1.856  25.188  0.00  0.00    -0.386 OA
ATOM     34  H   UNL     1      10.363   2.318  25.523  0.00  0.00    +0.210 HD
ENDBRANCH  31  33
BRANCH  30  35
ATOM     35  O   UNL     1       9.821   2.321  21.567  0.00  0.00    -0.386 OA
ATOM     36  H   UNL     1      10.607   2.120  21.024  0.00  0.00    +0.210 HD
ENDBRANCH  30  35
BRANCH  32  37
ATOM     37  O   UNL     1       6.869   3.160  24.546  0.00  0.00    -0.337 OA
BRANCH  37  38
ATOM     38  C   UNL     1       6.396   4.446  24.116  0.00  0.00    +0.282 C 
ATOM     39  O   UNL     1       5.865   5.141  25.259  0.00  0.00    -0.346 OA
ATOM     40  C   UNL     1       4.624   4.616  25.753  0.00  0.00    +0.197 C 
ATOM     41  C   UNL     1       3.505   4.588  24.699  0.00  0.00    +0.171 C 
ATOM     42  C   UNL     1       3.988   3.903  23.418  0.00  0.00    +0.178 C 
ATOM     43  C   UNL     1       5.340   4.488  22.978  0.00  0.00    +0.201 C 
BRANCH  43  44
ATOM     44  O   UNL     1       5.792   3.882  21.765  0.00  0.00    -0.384 OA
ATOM     45  H   UNL     1       6.507   3.262  22.012  0.00  0.00    +0.210 HD
ENDBRANCH  43  44
BRANCH  42  46
ATOM     46  O   UNL     1       4.073   2.480  23.561  0.00  0.00    -0.386 OA
ATOM     47  H   UNL     1       3.196   2.132  23.813  0.00  0.00    +0.210 HD
ENDBRANCH  42  46
BRANCH  41  48
ATOM     48  O   UNL     1       3.103   5.931  24.406  0.00  0.00    -0.387 OA
ATOM     49  H   UNL     1       2.426   5.901  23.707  0.00  0.00    +0.210 HD
ENDBRANCH  41  48
ENDBRANCH  37  38
ENDBRANCH  32  37
BRANCH  29  50
ATOM     50  C   UNL     1       9.869  -0.660  21.479  0.00  0.00    +0.190 C 
BRANCH  50  51
ATOM     51  O   UNL     1       9.540  -2.044  21.547  0.00  0.00    -0.392 OA
ATOM     52  H   UNL     1       8.584  -2.089  21.741  0.00  0.00    +0.210 HD
ENDBRANCH  50  51
ENDBRANCH  29  50
ENDBRANCH   1  27
TORSDOF 16
ENDMDL
MODEL 9
REMARK VINA RESULT:      -6.4      2.287      7.803
REMARK  Name = 
REMARK  18 active torsions:
REMARK  status: ('A' for Active; 'I' for Inactive)
REMARK    1  A    between atoms: C_1  and  O_2
REMARK    2  A    between atoms: O_2  and  C_3
REMARK    3  A    between atoms: C_5  and  O_50
REMARK    4  A    between atoms: C_10  and  C_41
REMARK    5  A    between atoms: C_11  and  O_14
REMARK    6  A    between atoms: O_14  and  C_15
REMARK    7  A    between atoms: C_17  and  O_28
REMARK    8  A    between atoms: C_18  and  O_27
REMARK    9  A    between atoms: C_20  and  O_26
REMARK   10  A    between atoms: C_22  and  C_24
REMARK   11  A    between atoms: C_24  and  O_25
REMARK   12  A    between atoms: O_28  and  C_29
REMARK   13  A    between atoms: C_31  and  O_40
REMARK   14  A    between atoms: C_32  and  O_39
REMARK   15  A    between atoms: C_34  and  O_38
REMARK   16  A    between atoms: C_43  and  O_48
REMARK   17  A    between atoms: C_44  and  O_47
REMARK   18  A    between atoms: O_48  and  C_49
REMARK                            x       y       z     vdW  Elec       q    Type
REMARK                         _______ _______ _______ _____ _____    ______ ____
ROOT
ATOM      1  O   UNL     1       6.551  -1.352  25.026  0.00  0.00    -0.453 OA
ENDROOT
BRANCH   1   7
ATOM      2  C   UNL     1       9.869   3.878  23.829  0.00  0.00    +0.127 A 
ATOM      3  C   UNL     1       8.855   3.657  24.769  0.00  0.00    +0.092 A 
ATOM      4  C   UNL     1       8.053   2.519  24.654  0.00  0.00    +0.147 A 
ATOM      5  O   UNL     1       7.075   2.283  25.600  0.00  0.00    -0.451 OA
ATOM      6  C   UNL     1       6.656   0.960  25.739  0.00  0.00    +0.181 A 
ATOM      7  C   UNL     1       6.899  -0.019  24.849  0.00  0.00    +0.214 A 
ATOM      8  C   UNL     1       7.344   0.490  23.526  0.00  0.00    +0.238 A 
ATOM      9  O   UNL     1       6.917   0.039  22.473  0.00  0.00    -0.283 OA
ATOM     10  C   UNL     1       8.253   1.632  23.597  0.00  0.00    +0.109 A 
ATOM     11  C   UNL     1       9.283   1.824  22.688  0.00  0.00    +0.135 A 
ATOM     12  C   UNL     1      10.086   2.954  22.797  0.00  0.00    +0.092 A 
BRANCH   6  13
ATOM     13  C   UNL     1       5.737   0.718  26.859  0.00  0.00    +0.025 A 
ATOM     14  C   UNL     1       6.270   0.773  28.162  0.00  0.00    +0.015 A 
ATOM     15  C   UNL     1       5.432   0.721  29.271  0.00  0.00    +0.050 A 
ATOM     16  C   UNL     1       4.064   0.619  29.070  0.00  0.00    +0.158 A 
ATOM     17  C   UNL     1       3.511   0.528  27.785  0.00  0.00    +0.162 A 
ATOM     18  C   UNL     1       4.357   0.565  26.673  0.00  0.00    +0.061 A 
BRANCH  17  19
ATOM     19  O   UNL     1       2.141   0.449  27.760  0.00  0.00    -0.491 OA
ATOM     20  C   UNL     1       1.586  -0.810  27.400  0.00  0.00    +0.277 C 
ENDBRANCH  17  19
BRANCH  16  21
ATOM     21  O   UNL     1       3.252   0.644  30.171  0.00  0.00    -0.503 OA
ATOM     22  H   UNL     1       2.622   1.372  30.000  0.00  0.00    +0.292 HD
ENDBRANCH  16  21
ENDBRANCH   6  13
BRANCH  11  23
ATOM     23  O   UNL     1       9.552   0.876  21.746  0.00  0.00    -0.506 OA
ATOM     24  H   UNL     1       9.472   1.256  20.858  0.00  0.00    +0.292 HD
ENDBRANCH  11  23
BRANCH   2  26
ATOM     25  C   UNL     1      12.049   4.688  23.322  0.00  0.00    +0.277 C 
ATOM     26  O   UNL     1      10.738   4.935  23.809  0.00  0.00    -0.495 OA
ENDBRANCH   2  26
ENDBRANCH   1   7
BRANCH   1  27
ATOM     27  C   UNL     1       7.495  -2.136  25.799  0.00  0.00    +0.340 C 
ATOM     28  O   UNL     1       8.803  -2.033  25.217  0.00  0.00    -0.331 OA
ATOM     29  C   UNL     1       8.869  -2.523  23.866  0.00  0.00    +0.179 C 
ATOM     30  C   UNL     1       8.472  -4.017  23.802  0.00  0.00    +0.177 C 
ATOM     31  C   UNL     1       7.089  -4.238  24.459  0.00  0.00    +0.180 C 
ATOM     32  C   UNL     1       7.090  -3.642  25.888  0.00  0.00    +0.221 C 
BRANCH  31  33
ATOM     33  O   UNL     1       6.055  -3.705  23.624  0.00  0.00    -0.386 OA
ATOM     34  H   UNL     1       5.312  -4.340  23.590  0.00  0.00    +0.210 HD
ENDBRANCH  31  33
BRANCH  30  35
ATOM     35  O   UNL     1       9.426  -4.825  24.502  0.00  0.00    -0.386 OA
ATOM     36  H   UNL     1      10.174  -4.251  24.751  0.00  0.00    +0.210 HD
ENDBRANCH  30  35
BRANCH  32  37
ATOM     37  O   UNL     1       5.894  -3.798  26.684  0.00  0.00    -0.337 OA
BRANCH  37  38
ATOM     38  C   UNL     1       5.982  -4.590  27.880  0.00  0.00    +0.282 C 
ATOM     39  O   UNL     1       6.261  -5.951  27.503  0.00  0.00    -0.346 OA
ATOM     40  C   UNL     1       5.164  -6.634  26.879  0.00  0.00    +0.197 C 
ATOM     41  C   UNL     1       3.891  -6.671  27.741  0.00  0.00    +0.171 C 
ATOM     42  C   UNL     1       3.532  -5.265  28.232  0.00  0.00    +0.178 C 
ATOM     43  C   UNL     1       4.766  -4.585  28.846  0.00  0.00    +0.201 C 
BRANCH  43  44
ATOM     44  O   UNL     1       4.442  -3.282  29.339  0.00  0.00    -0.384 OA
ATOM     45  H   UNL     1       3.468  -3.207  29.308  0.00  0.00    +0.210 HD
ENDBRANCH  43  44
BRANCH  42  46
ATOM     46  O   UNL     1       2.968  -4.455  27.195  0.00  0.00    -0.386 OA
ATOM     47  H   UNL     1       2.342  -4.993  26.674  0.00  0.00    +0.210 HD
ENDBRANCH  42  46
BRANCH  41  48
ATOM     48  O   UNL     1       4.109  -7.533  28.864  0.00  0.00    -0.387 OA
ATOM     49  H   UNL     1       5.013  -7.890  28.804  0.00  0.00    +0.210 HD
ENDBRANCH  41  48
ENDBRANCH  37  38
ENDBRANCH  32  37
BRANCH  29  50
ATOM     50  C   UNL     1      10.284  -2.220  23.332  0.00  0.00    +0.190 C 
BRANCH  50  51
ATOM     51  O   UNL     1      10.310  -1.794  21.974  0.00  0.00    -0.392 OA
ATOM     52  H   UNL     1       9.420  -1.970  21.613  0.00  0.00    +0.210 HD
ENDBRANCH  50  51
ENDBRANCH  29  50
ENDBRANCH   1  27
TORSDOF 16
ENDMDL
