MODEL 1
REMARK VINA RESULT:      -6.4      0.000      0.000
REMARK  Name = 
REMARK  24 active torsions:
REMARK  status: ('A' for Active; 'I' for Inactive)
REMARK    1  A    between atoms: C_3  and  O_64
REMARK    2  A    between atoms: C_4  and  O_63
REMARK    3  A    between atoms: C_6  and  C_7
REMARK    4  A    between atoms: C_8  and  O_20
REMARK    5  A    between atoms: C_12  and  O_19
REMARK    6  A    between atoms: C_14  and  O_18
REMARK    7  A    between atoms: O_20  and  C_21
REMARK    8  A    between atoms: C_23  and  O_34
REMARK    9  A    between atoms: C_24  and  O_33
REMARK   10  A    between atoms: C_26  and  O_32
REMARK   11  A    between atoms: C_28  and  C_30
REMARK   12  A    between atoms: C_30  and  O_31
REMARK   13  A    between atoms: O_34  and  C_35
REMARK   14  A    between atoms: C_37  and  O_48
REMARK   15  A    between atoms: C_38  and  O_47
REMARK   16  A    between atoms: C_40  and  O_46
REMARK   17  A    between atoms: C_42  and  C_44
REMARK   18  A    between atoms: C_44  and  O_45
REMARK   19  A    between atoms: O_48  and  C_49
REMARK   20  A    between atoms: C_51  and  O_62
REMARK   21  A    between atoms: C_52  and  O_61
REMARK   22  A    between atoms: C_54  and  O_60
REMARK   23  A    between atoms: C_56  and  C_58
REMARK   24  A    between atoms: C_58  and  O_59
REMARK                            x       y       z     vdW  Elec       q    Type
REMARK                         _______ _______ _______ _____ _____    ______ ____
ROOT
ATOM      1  C   UNL     1       5.244   1.365  24.856  0.00  0.00    +0.340 C 
ATOM      2  O   UNL     1       4.086   1.720  25.631  0.00  0.00    -0.331 OA
ATOM      3  C   UNL     1       3.983   1.421  27.043  0.00  0.00    +0.179 C 
ATOM      4  C   UNL     1       5.036   0.484  27.706  0.00  0.00    +0.177 C 
ATOM      5  C   UNL     1       6.306   0.357  26.866  0.00  0.00    +0.180 C 
ATOM      6  C   UNL     1       5.902   0.076  25.368  0.00  0.00    +0.221 C 
ENDROOT
BRANCH   5   7
ATOM      7  O   UNL     1       7.043   1.542  27.164  0.00  0.00    -0.386 OA
ATOM      8  H   UNL     1       7.445   1.868  26.338  0.00  0.00    +0.210 HD
ENDBRANCH   5   7
BRANCH   4   9
ATOM      9  O   UNL     1       4.528  -0.823  27.982  0.00  0.00    -0.386 OA
ATOM     10  H   UNL     1       5.162  -1.248  28.592  0.00  0.00    +0.210 HD
ENDBRANCH   4   9
BRANCH   6  11
ATOM     11  O   UNL     1       7.005  -0.499  24.575  0.00  0.00    -0.337 OA
BRANCH  11  12
ATOM     12  C   UNL     1       7.927  -1.380  25.262  0.00  0.00    +0.283 C 
ATOM     13  O   UNL     1       9.103  -0.678  25.679  0.00  0.00    -0.341 OA
ATOM     14  C   UNL     1       9.824  -0.103  24.577  0.00  0.00    +0.178 C 
ATOM     15  C   UNL     1      10.190  -1.085  23.444  0.00  0.00    +0.177 C 
ATOM     16  C   UNL     1       9.213  -2.275  23.232  0.00  0.00    +0.179 C 
ATOM     17  C   UNL     1       8.471  -2.691  24.509  0.00  0.00    +0.208 C 
BRANCH  16  18
ATOM     18  O   UNL     1       8.268  -1.966  22.196  0.00  0.00    -0.386 OA
ATOM     19  H   UNL     1       8.144  -0.996  22.212  0.00  0.00    +0.210 HD
ENDBRANCH  16  18
BRANCH  15  20
ATOM     20  O   UNL     1      10.268  -0.322  22.223  0.00  0.00    -0.386 OA
ATOM     21  H   UNL     1       9.362   0.037  22.099  0.00  0.00    +0.210 HD
ENDBRANCH  15  20
BRANCH  14  22
ATOM     22  C   UNL     1      11.020   0.655  25.184  0.00  0.00    +0.190 C 
BRANCH  22  23
ATOM     23  O   UNL     1      12.092   0.791  24.254  0.00  0.00    -0.392 OA
ATOM     24  H   UNL     1      12.845   1.174  24.736  0.00  0.00    +0.210 HD
ENDBRANCH  22  23
ENDBRANCH  14  22
BRANCH  17  25
ATOM     25  O   UNL     1       7.481  -3.749  24.339  0.00  0.00    -0.338 OA
BRANCH  25  26
ATOM     26  C   UNL     1       6.053  -3.454  24.416  0.00  0.00    +0.282 C 
ATOM     27  O   UNL     1       5.361  -4.548  25.073  0.00  0.00    -0.341 OA
ATOM     28  C   UNL     1       5.345  -5.790  24.336  0.00  0.00    +0.178 C 
ATOM     29  C   UNL     1       4.849  -5.668  22.862  0.00  0.00    +0.177 C 
ATOM     30  C   UNL     1       5.444  -4.427  22.175  0.00  0.00    +0.179 C 
ATOM     31  C   UNL     1       5.270  -3.215  23.101  0.00  0.00    +0.201 C 
BRANCH  31  32
ATOM     32  O   UNL     1       5.583  -1.974  22.475  0.00  0.00    -0.384 OA
ATOM     33  H   UNL     1       4.769  -1.603  22.099  0.00  0.00    +0.210 HD
ENDBRANCH  31  32
BRANCH  30  34
ATOM     34  O   UNL     1       6.821  -4.654  21.854  0.00  0.00    -0.386 OA
ATOM     35  H   UNL     1       7.033  -5.574  22.124  0.00  0.00    +0.210 HD
ENDBRANCH  30  34
BRANCH  29  36
ATOM     36  O   UNL     1       3.418  -5.608  22.790  0.00  0.00    -0.386 OA
ATOM     37  H   UNL     1       3.086  -5.298  23.653  0.00  0.00    +0.210 HD
ENDBRANCH  29  36
BRANCH  28  38
ATOM     38  C   UNL     1       4.512  -6.841  25.093  0.00  0.00    +0.190 C 
BRANCH  38  39
ATOM     39  O   UNL     1       4.020  -7.839  24.197  0.00  0.00    -0.392 OA
ATOM     40  H   UNL     1       3.107  -8.042  24.469  0.00  0.00    +0.210 HD
ENDBRANCH  38  39
ENDBRANCH  28  38
ENDBRANCH  25  26
ENDBRANCH  17  25
ENDBRANCH  11  12
ENDBRANCH   6  11
BRANCH   3  41
ATOM     41  C   UNL     1       2.554   0.901  27.356  0.00  0.00    +0.190 C 
BRANCH  41  42
ATOM     42  O   UNL     1       2.181  -0.267  26.633  0.00  0.00    -0.392 OA
ATOM     43  H   UNL     1       1.756  -0.874  27.259  0.00  0.00    +0.210 HD
ENDBRANCH  41  42
ENDBRANCH   3  41
BRANCH   1  44
ATOM     44  O   UNL     1       6.273   2.306  24.826  0.00  0.00    -0.453 OA
BRANCH  44  55
ATOM     45  C   UNL     1       7.118   4.489  25.504  0.00  0.00    +0.181 A 
ATOM     46  O   UNL     1       8.229   5.374  25.376  0.00  0.00    -0.451 OA
ATOM     47  C   UNL     1       9.341   5.022  24.625  0.00  0.00    +0.147 A 
ATOM     48  C   UNL     1       9.382   3.902  23.818  0.00  0.00    +0.109 A 
ATOM     49  C   UNL     1      10.528   3.579  23.062  0.00  0.00    +0.135 A 
ATOM     50  C   UNL     1      11.648   4.388  23.088  0.00  0.00    +0.091 A 
ATOM     51  C   UNL     1      11.621   5.523  23.901  0.00  0.00    +0.124 A 
ATOM     52  C   UNL     1       8.180   3.087  23.783  0.00  0.00    +0.238 A 
ATOM     53  O   UNL     1       8.132   2.181  22.944  0.00  0.00    -0.283 OA
ATOM     54  C   UNL     1      10.478   5.841  24.677  0.00  0.00    +0.092 A 
ATOM     55  C   UNL     1       7.086   3.336  24.787  0.00  0.00    +0.214 A 
BRANCH  45  57
ATOM     56  C   UNL     1       4.714   5.257  26.184  0.00  0.00    +0.015 A 
ATOM     57  C   UNL     1       6.066   4.984  26.510  0.00  0.00    +0.025 A 
ATOM     58  C   UNL     1       6.405   5.239  27.860  0.00  0.00    +0.060 A 
ATOM     59  C   UNL     1       5.458   5.689  28.799  0.00  0.00    +0.159 A 
ATOM     60  C   UNL     1       4.135   5.900  28.434  0.00  0.00    +0.158 A 
ATOM     61  C   UNL     1       3.752   5.697  27.126  0.00  0.00    +0.050 A 
BRANCH  60  62
ATOM     62  O   UNL     1       3.263   6.310  29.407  0.00  0.00    -0.503 OA
ATOM     63  H   UNL     1       3.754   6.626  30.183  0.00  0.00    +0.292 HD
ENDBRANCH  60  62
BRANCH  59  64
ATOM     64  O   UNL     1       5.832   5.925  30.098  0.00  0.00    -0.503 OA
ATOM     65  H   UNL     1       5.139   6.532  30.468  0.00  0.00    +0.292 HD
ENDBRANCH  59  64
ENDBRANCH  45  57
BRANCH  51  66
ATOM     66  O   UNL     1      12.721   6.313  24.001  0.00  0.00    -0.507 OA
ATOM     67  H   UNL     1      13.022   6.570  23.111  0.00  0.00    +0.292 HD
ENDBRANCH  51  66
BRANCH  49  68
ATOM     68  O   UNL     1      10.632   2.452  22.288  0.00  0.00    -0.506 OA
ATOM     69  H   UNL     1      10.576   1.667  22.875  0.00  0.00    +0.292 HD
ENDBRANCH  49  68
ENDBRANCH  44  55
ENDBRANCH   1  44
TORSDOF 24
ENDMDL
MODEL 2
REMARK VINA RESULT:      -6.2      1.243      2.055
REMARK  Name = 
REMARK  24 active torsions:
REMARK  status: ('A' for Active; 'I' for Inactive)
REMARK    1  A    between atoms: C_3  and  O_64
REMARK    2  A    between atoms: C_4  and  O_63
REMARK    3  A    between atoms: C_6  and  C_7
REMARK    4  A    between atoms: C_8  and  O_20
REMARK    5  A    between atoms: C_12  and  O_19
REMARK    6  A    between atoms: C_14  and  O_18
REMARK    7  A    between atoms: O_20  and  C_21
REMARK    8  A    between atoms: C_23  and  O_34
REMARK    9  A    between atoms: C_24  and  O_33
REMARK   10  A    between atoms: C_26  and  O_32
REMARK   11  A    between atoms: C_28  and  C_30
REMARK   12  A    between atoms: C_30  and  O_31
REMARK   13  A    between atoms: O_34  and  C_35
REMARK   14  A    between atoms: C_37  and  O_48
REMARK   15  A    between atoms: C_38  and  O_47
REMARK   16  A    between atoms: C_40  and  O_46
REMARK   17  A    between atoms: C_42  and  C_44
REMARK   18  A    between atoms: C_44  and  O_45
REMARK   19  A    between atoms: O_48  and  C_49
REMARK   20  A    between atoms: C_51  and  O_62
REMARK   21  A    between atoms: C_52  and  O_61
REMARK   22  A    between atoms: C_54  and  O_60
REMARK   23  A    between atoms: C_56  and  C_58
REMARK   24  A    between atoms: C_58  and  O_59
REMARK                            x       y       z     vdW  Elec       q    Type
REMARK                         _______ _______ _______ _____ _____    ______ ____
ROOT
ATOM      1  C   UNL     1       5.340   1.363  24.910  0.00  0.00    +0.340 C 
ATOM      2  O   UNL     1       4.220   1.681  25.752  0.00  0.00    -0.331 OA
ATOM      3  C   UNL     1       4.171   1.297  27.146  0.00  0.00    +0.179 C 
ATOM      4  C   UNL     1       5.238   0.311  27.708  0.00  0.00    +0.177 C 
ATOM      5  C   UNL     1       6.470   0.223  26.810  0.00  0.00    +0.180 C 
ATOM      6  C   UNL     1       6.002   0.038  25.316  0.00  0.00    +0.221 C 
ENDROOT
BRANCH   5   7
ATOM      7  O   UNL     1       7.234   1.380  27.148  0.00  0.00    -0.386 OA
ATOM      8  H   UNL     1       6.653   2.160  27.085  0.00  0.00    +0.210 HD
ENDBRANCH   5   7
BRANCH   4   9
ATOM      9  O   UNL     1       4.724  -1.005  27.925  0.00  0.00    -0.386 OA
ATOM     10  H   UNL     1       3.790  -0.902  28.192  0.00  0.00    +0.210 HD
ENDBRANCH   4   9
BRANCH   6  11
ATOM     11  O   UNL     1       7.065  -0.499  24.444  0.00  0.00    -0.337 OA
BRANCH  11  12
ATOM     12  C   UNL     1       8.051  -1.367  25.057  0.00  0.00    +0.283 C 
ATOM     13  O   UNL     1       9.346  -0.758  25.063  0.00  0.00    -0.341 OA
ATOM     14  C   UNL     1       9.823  -0.460  23.740  0.00  0.00    +0.178 C 
ATOM     15  C   UNL     1       9.821  -1.648  22.754  0.00  0.00    +0.177 C 
ATOM     16  C   UNL     1       8.727  -2.726  22.990  0.00  0.00    +0.179 C 
ATOM     17  C   UNL     1       8.286  -2.838  24.455  0.00  0.00    +0.208 C 
BRANCH  16  18
ATOM     18  O   UNL     1       7.587  -2.471  22.154  0.00  0.00    -0.386 OA
ATOM     19  H   UNL     1       7.809  -1.688  21.612  0.00  0.00    +0.210 HD
ENDBRANCH  16  18
BRANCH  15  20
ATOM     20  O   UNL     1       9.663  -1.104  21.428  0.00  0.00    -0.386 OA
ATOM     21  H   UNL     1       9.619  -1.892  20.843  0.00  0.00    +0.210 HD
ENDBRANCH  15  20
BRANCH  14  22
ATOM     22  C   UNL     1      11.190   0.232  23.913  0.00  0.00    +0.190 C 
BRANCH  22  23
ATOM     23  O   UNL     1      11.369   0.733  25.235  0.00  0.00    -0.392 OA
ATOM     24  H   UNL     1      12.199   1.240  25.241  0.00  0.00    +0.210 HD
ENDBRANCH  22  23
ENDBRANCH  14  22
BRANCH  17  25
ATOM     25  O   UNL     1       7.200  -3.779  24.711  0.00  0.00    -0.338 OA
BRANCH  25  26
ATOM     26  C   UNL     1       7.483  -5.155  25.108  0.00  0.00    +0.282 C 
ATOM     27  O   UNL     1       6.388  -6.017  24.702  0.00  0.00    -0.341 OA
ATOM     28  C   UNL     1       5.140  -5.784  25.393  0.00  0.00    +0.178 C 
ATOM     29  C   UNL     1       5.248  -5.771  26.949  0.00  0.00    +0.177 C 
ATOM     30  C   UNL     1       6.489  -4.993  27.416  0.00  0.00    +0.179 C 
ATOM     31  C   UNL     1       7.706  -5.466  26.609  0.00  0.00    +0.201 C 
BRANCH  31  32
ATOM     32  O   UNL     1       8.945  -4.974  27.110  0.00  0.00    -0.384 OA
ATOM     33  H   UNL     1       9.046  -5.268  28.030  0.00  0.00    +0.210 HD
ENDBRANCH  31  32
BRANCH  30  34
ATOM     34  O   UNL     1       6.272  -3.585  27.266  0.00  0.00    -0.386 OA
ATOM     35  H   UNL     1       6.164  -3.211  28.167  0.00  0.00    +0.210 HD
ENDBRANCH  30  34
BRANCH  29  36
ATOM     36  O   UNL     1       5.295  -7.101  27.485  0.00  0.00    -0.386 OA
ATOM     37  H   UNL     1       4.518  -7.587  27.153  0.00  0.00    +0.210 HD
ENDBRANCH  29  36
BRANCH  28  38
ATOM     38  C   UNL     1       4.088  -6.812  24.939  0.00  0.00    +0.190 C 
BRANCH  38  39
ATOM     39  O   UNL     1       4.536  -7.517  23.779  0.00  0.00    -0.392 OA
ATOM     40  H   UNL     1       4.933  -8.351  24.087  0.00  0.00    +0.210 HD
ENDBRANCH  38  39
ENDBRANCH  28  38
ENDBRANCH  25  26
ENDBRANCH  17  25
ENDBRANCH  11  12
ENDBRANCH   6  11
BRANCH   3  41
ATOM     41  C   UNL     1       2.748   0.774  27.486  0.00  0.00    +0.190 C 
BRANCH  41  42
ATOM     42  O   UNL     1       2.347  -0.367  26.735  0.00  0.00    -0.392 OA
ATOM     43  H   UNL     1       2.950  -1.092  26.963  0.00  0.00    +0.210 HD
ENDBRANCH  41  42
ENDBRANCH   3  41
BRANCH   1  44
ATOM     44  O   UNL     1       6.380   2.293  24.894  0.00  0.00    -0.453 OA
BRANCH  44  55
ATOM     45  C   UNL     1       7.298   4.405  25.692  0.00  0.00    +0.181 A 
ATOM     46  O   UNL     1       8.411   5.287  25.564  0.00  0.00    -0.451 OA
ATOM     47  C   UNL     1       9.467   4.988  24.715  0.00  0.00    +0.147 A 
ATOM     48  C   UNL     1       9.440   3.938  23.820  0.00  0.00    +0.109 A 
ATOM     49  C   UNL     1      10.530   3.668  22.966  0.00  0.00    +0.135 A 
ATOM     50  C   UNL     1      11.661   4.462  22.985  0.00  0.00    +0.091 A 
ATOM     51  C   UNL     1      11.703   5.526  23.888  0.00  0.00    +0.124 A 
ATOM     52  C   UNL     1       8.227   3.140  23.797  0.00  0.00    +0.238 A 
ATOM     53  O   UNL     1       8.111   2.306  22.892  0.00  0.00    -0.283 OA
ATOM     54  C   UNL     1      10.616   5.790  24.760  0.00  0.00    +0.092 A 
ATOM     55  C   UNL     1       7.203   3.316  24.887  0.00  0.00    +0.214 A 
BRANCH  45  57
ATOM     56  C   UNL     1       6.672   4.957  28.168  0.00  0.00    +0.015 A 
ATOM     57  C   UNL     1       6.320   4.825  26.801  0.00  0.00    +0.025 A 
ATOM     58  C   UNL     1       4.957   5.079  26.521  0.00  0.00    +0.060 A 
ATOM     59  C   UNL     1       4.045   5.467  27.520  0.00  0.00    +0.159 A 
ATOM     60  C   UNL     1       4.453   5.623  28.838  0.00  0.00    +0.158 A 
ATOM     61  C   UNL     1       5.763   5.362  29.177  0.00  0.00    +0.050 A 
BRANCH  60  62
ATOM     62  O   UNL     1       3.518   6.033  29.751  0.00  0.00    -0.503 OA
ATOM     63  H   UNL     1       3.671   5.594  30.604  0.00  0.00    +0.292 HD
ENDBRANCH  60  62
BRANCH  59  64
ATOM     64  O   UNL     1       2.731   5.702  27.202  0.00  0.00    -0.503 OA
ATOM     65  H   UNL     1       2.497   5.021  26.519  0.00  0.00    +0.292 HD
ENDBRANCH  59  64
ENDBRANCH  45  57
BRANCH  51  66
ATOM     66  O   UNL     1      12.818   6.295  23.980  0.00  0.00    -0.507 OA
ATOM     67  H   UNL     1      12.566   7.236  24.015  0.00  0.00    +0.292 HD
ENDBRANCH  51  66
BRANCH  49  68
ATOM     68  O   UNL     1      10.568   2.608  22.097  0.00  0.00    -0.506 OA
ATOM     69  H   UNL     1      10.689   2.958  21.187  0.00  0.00    +0.292 HD
ENDBRANCH  49  68
ENDBRANCH  44  55
ENDBRANCH   1  44
TORSDOF 24
ENDMDL
MODEL 3
REMARK VINA RESULT:      -6.1      2.078      5.785
REMARK  Name = 
REMARK  24 active torsions:
REMARK  status: ('A' for Active; 'I' for Inactive)
REMARK    1  A    between atoms: C_3  and  O_64
REMARK    2  A    between atoms: C_4  and  O_63
REMARK    3  A    between atoms: C_6  and  C_7
REMARK    4  A    between atoms: C_8  and  O_20
REMARK    5  A    between atoms: C_12  and  O_19
REMARK    6  A    between atoms: C_14  and  O_18
REMARK    7  A    between atoms: O_20  and  C_21
REMARK    8  A    between atoms: C_23  and  O_34
REMARK    9  A    between atoms: C_24  and  O_33
REMARK   10  A    between atoms: C_26  and  O_32
REMARK   11  A    between atoms: C_28  and  C_30
REMARK   12  A    between atoms: C_30  and  O_31
REMARK   13  A    between atoms: O_34  and  C_35
REMARK   14  A    between atoms: C_37  and  O_48
REMARK   15  A    between atoms: C_38  and  O_47
REMARK   16  A    between atoms: C_40  and  O_46
REMARK   17  A    between atoms: C_42  and  C_44
REMARK   18  A    between atoms: C_44  and  O_45
REMARK   19  A    between atoms: O_48  and  C_49
REMARK   20  A    between atoms: C_51  and  O_62
REMARK   21  A    between atoms: C_52  and  O_61
REMARK   22  A    between atoms: C_54  and  O_60
REMARK   23  A    between atoms: C_56  and  C_58
REMARK   24  A    between atoms: C_58  and  O_59
REMARK                            x       y       z     vdW  Elec       q    Type
REMARK                         _______ _______ _______ _____ _____    ______ ____
ROOT
ATOM      1  C   UNL     1       7.128   2.330  26.759  0.00  0.00    +0.340 C 
ATOM      2  O   UNL     1       6.942   3.682  27.211  0.00  0.00    -0.331 OA
ATOM      3  C   UNL     1       6.561   4.749  26.312  0.00  0.00    +0.179 C 
ATOM      4  C   UNL     1       6.578   4.499  24.775  0.00  0.00    +0.177 C 
ATOM      5  C   UNL     1       6.571   3.010  24.433  0.00  0.00    +0.180 C 
ATOM      6  C   UNL     1       7.652   2.277  25.317  0.00  0.00    +0.221 C 
ENDROOT
BRANCH   5   7
ATOM      7  O   UNL     1       5.203   2.626  24.569  0.00  0.00    -0.386 OA
ATOM      8  H   UNL     1       4.762   3.268  25.153  0.00  0.00    +0.210 HD
ENDBRANCH   5   7
BRANCH   4   9
ATOM      9  O   UNL     1       7.685   5.122  24.119  0.00  0.00    -0.386 OA
ATOM     10  H   UNL     1       8.389   4.448  24.054  0.00  0.00    +0.210 HD
ENDBRANCH   4   9
BRANCH   6  11
ATOM     11  O   UNL     1       8.043   0.963  24.772  0.00  0.00    -0.337 OA
BRANCH  11  12
ATOM     12  C   UNL     1       9.447   0.610  24.833  0.00  0.00    +0.283 C 
ATOM     13  O   UNL     1      10.279   1.766  24.692  0.00  0.00    -0.341 OA
ATOM     14  C   UNL     1      10.077   2.444  23.441  0.00  0.00    +0.178 C 
ATOM     15  C   UNL     1      10.213   1.560  22.183  0.00  0.00    +0.177 C 
ATOM     16  C   UNL     1       9.831   0.064  22.357  0.00  0.00    +0.179 C 
ATOM     17  C   UNL     1      10.036  -0.457  23.785  0.00  0.00    +0.208 C 
BRANCH  16  18
ATOM     18  O   UNL     1       8.472  -0.154  21.947  0.00  0.00    -0.386 OA
ATOM     19  H   UNL     1       8.508  -0.488  21.028  0.00  0.00    +0.210 HD
ENDBRANCH  16  18
BRANCH  15  20
ATOM     20  O   UNL     1       9.378   2.140  21.160  0.00  0.00    -0.386 OA
ATOM     21  H   UNL     1       8.461   1.921  21.438  0.00  0.00    +0.210 HD
ENDBRANCH  15  20
BRANCH  14  22
ATOM     22  C   UNL     1      10.995   3.682  23.461  0.00  0.00    +0.190 C 
BRANCH  22  23
ATOM     23  O   UNL     1      10.258   4.893  23.323  0.00  0.00    -0.392 OA
ATOM     24  H   UNL     1      10.579   5.506  24.006  0.00  0.00    +0.210 HD
ENDBRANCH  22  23
ENDBRANCH  14  22
BRANCH  17  25
ATOM     25  O   UNL     1       9.611  -1.833  24.016  0.00  0.00    -0.338 OA
BRANCH  25  26
ATOM     26  C   UNL     1       8.490  -2.129  24.904  0.00  0.00    +0.282 C 
ATOM     27  O   UNL     1       8.751  -3.358  25.630  0.00  0.00    -0.341 OA
ATOM     28  C   UNL     1       8.780  -4.553  24.818  0.00  0.00    +0.178 C 
ATOM     29  C   UNL     1       7.537  -4.744  23.895  0.00  0.00    +0.177 C 
ATOM     30  C   UNL     1       7.133  -3.422  23.222  0.00  0.00    +0.179 C 
ATOM     31  C   UNL     1       7.081  -2.318  24.288  0.00  0.00    +0.201 C 
BRANCH  31  32
ATOM     32  O   UNL     1       6.503  -1.103  23.818  0.00  0.00    -0.384 OA
ATOM     33  H   UNL     1       5.603  -1.289  23.505  0.00  0.00    +0.210 HD
ENDBRANCH  31  32
BRANCH  30  34
ATOM     34  O   UNL     1       8.053  -3.101  22.173  0.00  0.00    -0.386 OA
ATOM     35  H   UNL     1       8.067  -3.865  21.557  0.00  0.00    +0.210 HD
ENDBRANCH  30  34
BRANCH  29  36
ATOM     36  O   UNL     1       6.416  -5.267  24.622  0.00  0.00    -0.386 OA
ATOM     37  H   UNL     1       6.561  -5.086  25.569  0.00  0.00    +0.210 HD
ENDBRANCH  29  36
BRANCH  28  38
ATOM     38  C   UNL     1       8.978  -5.791  25.711  0.00  0.00    +0.190 C 
BRANCH  38  39
ATOM     39  O   UNL     1       8.172  -5.702  26.887  0.00  0.00    -0.392 OA
ATOM     40  H   UNL     1       8.239  -4.786  27.210  0.00  0.00    +0.210 HD
ENDBRANCH  38  39
ENDBRANCH  28  38
ENDBRANCH  25  26
ENDBRANCH  17  25
ENDBRANCH  11  12
ENDBRANCH   6  11
BRANCH   3  41
ATOM     41  C   UNL     1       7.388   6.021  26.642  0.00  0.00    +0.190 C 
BRANCH  41  42
ATOM     42  O   UNL     1       8.799   5.831  26.599  0.00  0.00    -0.392 OA
ATOM     43  H   UNL     1       9.167   6.521  26.023  0.00  0.00    +0.210 HD
ENDBRANCH  41  42
ENDBRANCH   3  41
BRANCH   1  44
ATOM     44  O   UNL     1       5.992   1.521  26.759  0.00  0.00    -0.453 OA
BRANCH  44  55
ATOM     45  C   UNL     1       3.623   0.983  26.942  0.00  0.00    +0.181 A 
ATOM     46  O   UNL     1       2.702  -0.101  27.038  0.00  0.00    -0.451 OA
ATOM     47  C   UNL     1       3.143  -1.417  27.034  0.00  0.00    +0.147 A 
ATOM     48  C   UNL     1       4.476  -1.765  27.119  0.00  0.00    +0.109 A 
ATOM     49  C   UNL     1       4.888  -3.114  27.119  0.00  0.00    +0.135 A 
ATOM     50  C   UNL     1       3.964  -4.139  27.054  0.00  0.00    +0.091 A 
ATOM     51  C   UNL     1       2.612  -3.802  26.965  0.00  0.00    +0.124 A 
ATOM     52  C   UNL     1       5.425  -0.670  27.219  0.00  0.00    +0.238 A 
ATOM     53  O   UNL     1       6.601  -0.956  27.467  0.00  0.00    -0.283 OA
ATOM     54  C   UNL     1       2.195  -2.446  26.947  0.00  0.00    +0.092 A 
ATOM     55  C   UNL     1       4.958   0.740  26.969  0.00  0.00    +0.214 A 
BRANCH  45  57
ATOM     56  C   UNL     1       1.893   2.620  25.866  0.00  0.00    +0.015 A 
ATOM     57  C   UNL     1       2.932   2.348  26.791  0.00  0.00    +0.025 A 
ATOM     58  C   UNL     1       3.330   3.462  27.567  0.00  0.00    +0.060 A 
ATOM     59  C   UNL     1       2.710   4.720  27.447  0.00  0.00    +0.159 A 
ATOM     60  C   UNL     1       1.667   4.920  26.554  0.00  0.00    +0.158 A 
ATOM     61  C   UNL     1       1.255   3.879  25.750  0.00  0.00    +0.050 A 
BRANCH  60  62
ATOM     62  O   UNL     1       1.091   6.162  26.513  0.00  0.00    -0.503 OA
ATOM     63  H   UNL     1       0.136   6.092  26.676  0.00  0.00    +0.292 HD
ENDBRANCH  60  62
BRANCH  59  64
ATOM     64  O   UNL     1       3.130   5.773  28.220  0.00  0.00    -0.503 OA
ATOM     65  H   UNL     1       3.951   6.115  27.779  0.00  0.00    +0.292 HD
ENDBRANCH  59  64
ENDBRANCH  45  57
BRANCH  51  66
ATOM     66  O   UNL     1       1.675  -4.777  26.840  0.00  0.00    -0.507 OA
ATOM     67  H   UNL     1       1.857  -5.489  27.479  0.00  0.00    +0.292 HD
ENDBRANCH  51  66
BRANCH  49  68
ATOM     68  O   UNL     1       6.202  -3.506  27.151  0.00  0.00    -0.506 OA
ATOM     69  H   UNL     1       6.760  -2.734  26.912  0.00  0.00    +0.292 HD
ENDBRANCH  49  68
ENDBRANCH  44  55
ENDBRANCH   1  44
TORSDOF 24
ENDMDL
MODEL 4
REMARK VINA RESULT:      -6.0      2.138      8.322
REMARK  Name = 
REMARK  24 active torsions:
REMARK  status: ('A' for Active; 'I' for Inactive)
REMARK    1  A    between atoms: C_3  and  O_64
REMARK    2  A    between atoms: C_4  and  O_63
REMARK    3  A    between atoms: C_6  and  C_7
REMARK    4  A    between atoms: C_8  and  O_20
REMARK    5  A    between atoms: C_12  and  O_19
REMARK    6  A    between atoms: C_14  and  O_18
REMARK    7  A    between atoms: O_20  and  C_21
REMARK    8  A    between atoms: C_23  and  O_34
REMARK    9  A    between atoms: C_24  and  O_33
REMARK   10  A    between atoms: C_26  and  O_32
REMARK   11  A    between atoms: C_28  and  C_30
REMARK   12  A    between atoms: C_30  and  O_31
REMARK   13  A    between atoms: O_34  and  C_35
REMARK   14  A    between atoms: C_37  and  O_48
REMARK   15  A    between atoms: C_38  and  O_47
REMARK   16  A    between atoms: C_40  and  O_46
REMARK   17  A    between atoms: C_42  and  C_44
REMARK   18  A    between atoms: C_44  and  O_45
REMARK   19  A    between atoms: O_48  and  C_49
REMARK   20  A    between atoms: C_51  and  O_62
REMARK   21  A    between atoms: C_52  and  O_61
REMARK   22  A    between atoms: C_54  and  O_60
REMARK   23  A    between atoms: C_56  and  C_58
REMARK   24  A    between atoms: C_58  and  O_59
REMARK                            x       y       z     vdW  Elec       q    Type
REMARK                         _______ _______ _______ _____ _____    ______ ____
ROOT
ATOM      1  C   UNL     1       4.909  -1.612  28.093  0.00  0.00    +0.340 C 
ATOM      2  O   UNL     1       4.198  -2.577  28.886  0.00  0.00    -0.331 OA
ATOM      3  C   UNL     1       2.891  -3.071  28.511  0.00  0.00    +0.179 C 
ATOM      4  C   UNL     1       2.115  -2.379  27.351  0.00  0.00    +0.177 C 
ATOM      5  C   UNL     1       3.033  -1.543  26.461  0.00  0.00    +0.180 C 
ATOM      6  C   UNL     1       3.954  -0.647  27.376  0.00  0.00    +0.221 C 
ENDROOT
BRANCH   5   7
ATOM      7  O   UNL     1       3.649  -2.497  25.598  0.00  0.00    -0.386 OA
ATOM      8  H   UNL     1       4.596  -2.545  25.822  0.00  0.00    +0.210 HD
ENDBRANCH   5   7
BRANCH   4   9
ATOM      9  O   UNL     1       1.037  -1.560  27.809  0.00  0.00    -0.386 OA
ATOM     10  H   UNL     1       1.374  -1.053  28.572  0.00  0.00    +0.210 HD
ENDBRANCH   4   9
BRANCH   6  11
ATOM     11  O   UNL     1       4.542   0.497  26.653  0.00  0.00    -0.337 OA
BRANCH  11  12
ATOM     12  C   UNL     1       4.744   1.722  27.400  0.00  0.00    +0.283 C 
ATOM     13  O   UNL     1       3.873   1.788  28.533  0.00  0.00    -0.341 OA
ATOM     14  C   UNL     1       2.484   1.752  28.167  0.00  0.00    +0.178 C 
ATOM     15  C   UNL     1       2.048   2.806  27.126  0.00  0.00    +0.177 C 
ATOM     16  C   UNL     1       3.137   3.247  26.109  0.00  0.00    +0.179 C 
ATOM     17  C   UNL     1       4.566   3.135  26.656  0.00  0.00    +0.208 C 
BRANCH  16  18
ATOM     18  O   UNL     1       3.018   2.494  24.892  0.00  0.00    -0.386 OA
ATOM     19  H   UNL     1       3.790   1.895  24.859  0.00  0.00    +0.210 HD
ENDBRANCH  16  18
BRANCH  15  20
ATOM     20  O   UNL     1       0.928   2.256  26.402  0.00  0.00    -0.386 OA
ATOM     21  H   UNL     1       0.227   2.147  27.081  0.00  0.00    +0.210 HD
ENDBRANCH  15  20
BRANCH  14  22
ATOM     22  C   UNL     1       1.683   1.777  29.483  0.00  0.00    +0.190 C 
BRANCH  22  23
ATOM     23  O   UNL     1       0.862   0.622  29.629  0.00  0.00    -0.392 OA
ATOM     24  H   UNL     1       0.747   0.468  30.583  0.00  0.00    +0.210 HD
ENDBRANCH  22  23
ENDBRANCH  14  22
BRANCH  17  25
ATOM     25  O   UNL     1       5.626   3.460  25.707  0.00  0.00    -0.338 OA
BRANCH  25  26
ATOM     26  C   UNL     1       6.586   2.444  25.285  0.00  0.00    +0.282 C 
ATOM     27  O   UNL     1       7.898   3.045  25.128  0.00  0.00    -0.341 OA
ATOM     28  C   UNL     1       8.009   3.994  24.044  0.00  0.00    +0.178 C 
ATOM     29  C   UNL     1       7.505   3.470  22.664  0.00  0.00    +0.177 C 
ATOM     30  C   UNL     1       6.188   2.691  22.810  0.00  0.00    +0.179 C 
ATOM     31  C   UNL     1       6.331   1.683  23.960  0.00  0.00    +0.201 C 
BRANCH  31  32
ATOM     32  O   UNL     1       5.252   0.756  24.039  0.00  0.00    -0.384 OA
ATOM     33  H   UNL     1       5.167   0.306  23.183  0.00  0.00    +0.210 HD
ENDBRANCH  31  32
BRANCH  30  34
ATOM     34  O   UNL     1       5.101   3.597  23.035  0.00  0.00    -0.386 OA
ATOM     35  H   UNL     1       4.456   3.137  23.614  0.00  0.00    +0.210 HD
ENDBRANCH  30  34
BRANCH  29  36
ATOM     36  O   UNL     1       8.481   2.633  22.029  0.00  0.00    -0.386 OA
ATOM     37  H   UNL     1       8.960   3.173  21.373  0.00  0.00    +0.210 HD
ENDBRANCH  29  36
BRANCH  28  38
ATOM     38  C   UNL     1       9.461   4.493  23.928  0.00  0.00    +0.190 C 
BRANCH  38  39
ATOM     39  O   UNL     1      10.367   3.393  23.818  0.00  0.00    -0.392 OA
ATOM     40  H   UNL     1      10.112   2.744  24.498  0.00  0.00    +0.210 HD
ENDBRANCH  38  39
ENDBRANCH  28  38
ENDBRANCH  25  26
ENDBRANCH  17  25
ENDBRANCH  11  12
ENDBRANCH   6  11
BRANCH   3  41
ATOM     41  C   UNL     1       1.987  -3.144  29.771  0.00  0.00    +0.190 C 
BRANCH  41  42
ATOM     42  O   UNL     1       1.873  -1.917  30.485  0.00  0.00    -0.392 OA
ATOM     43  H   UNL     1       2.320  -2.035  31.338  0.00  0.00    +0.210 HD
ENDBRANCH  41  42
ENDBRANCH   3  41
BRANCH   1  44
ATOM     44  O   UNL     1       5.723  -2.127  27.084  0.00  0.00    -0.453 OA
BRANCH  44  55
ATOM     45  C   UNL     1       6.750  -3.576  25.415  0.00  0.00    +0.181 A 
ATOM     46  O   UNL     1       7.775  -3.630  24.425  0.00  0.00    -0.451 OA
ATOM     47  C   UNL     1       8.589  -2.534  24.177  0.00  0.00    +0.147 A 
ATOM     48  C   UNL     1       8.592  -1.403  24.969  0.00  0.00    +0.109 A 
ATOM     49  C   UNL     1       9.439  -0.309  24.692  0.00  0.00    +0.135 A 
ATOM     50  C   UNL     1      10.313  -0.342  23.622  0.00  0.00    +0.091 A 
ATOM     51  C   UNL     1      10.319  -1.478  22.811  0.00  0.00    +0.124 A 
ATOM     52  C   UNL     1       7.687  -1.408  26.106  0.00  0.00    +0.238 A 
ATOM     53  O   UNL     1       7.793  -0.486  26.922  0.00  0.00    -0.283 OA
ATOM     54  C   UNL     1       9.456  -2.572  23.077  0.00  0.00    +0.092 A 
ATOM     55  C   UNL     1       6.640  -2.484  26.214  0.00  0.00    +0.214 A 
BRANCH  45  57
ATOM     56  C   UNL     1       5.614  -5.632  26.559  0.00  0.00    +0.015 A 
ATOM     57  C   UNL     1       5.851  -4.823  25.420  0.00  0.00    +0.025 A 
ATOM     58  C   UNL     1       5.214  -5.272  24.240  0.00  0.00    +0.060 A 
ATOM     59  C   UNL     1       4.384  -6.410  24.222  0.00  0.00    +0.159 A 
ATOM     60  C   UNL     1       4.152  -7.142  25.377  0.00  0.00    +0.158 A 
ATOM     61  C   UNL     1       4.769  -6.770  26.552  0.00  0.00    +0.050 A 
BRANCH  60  62
ATOM     62  O   UNL     1       3.310  -8.219  25.292  0.00  0.00    -0.503 OA
ATOM     63  H   UNL     1       2.386  -7.921  25.306  0.00  0.00    +0.292 HD
ENDBRANCH  60  62
BRANCH  59  64
ATOM     64  O   UNL     1       3.788  -6.810  23.053  0.00  0.00    -0.503 OA
ATOM     65  H   UNL     1       3.966  -6.083  22.401  0.00  0.00    +0.292 HD
ENDBRANCH  59  64
ENDBRANCH  45  57
BRANCH  51  66
ATOM     66  O   UNL     1      11.120  -1.527  21.716  0.00  0.00    -0.507 OA
ATOM     67  H   UNL     1      11.763  -0.796  21.747  0.00  0.00    +0.292 HD
ENDBRANCH  51  66
BRANCH  49  68
ATOM     68  O   UNL     1       9.440   0.853  25.419  0.00  0.00    -0.506 OA
ATOM     69  H   UNL     1      10.085   0.757  26.154  0.00  0.00    +0.292 HD
ENDBRANCH  49  68
ENDBRANCH  44  55
ENDBRANCH   1  44
TORSDOF 24
ENDMDL
MODEL 5
REMARK VINA RESULT:      -5.8      2.080      5.271
REMARK  Name = 
REMARK  24 active torsions:
REMARK  status: ('A' for Active; 'I' for Inactive)
REMARK    1  A    between atoms: C_3  and  O_64
REMARK    2  A    between atoms: C_4  and  O_63
REMARK    3  A    between atoms: C_6  and  C_7
REMARK    4  A    between atoms: C_8  and  O_20
REMARK    5  A    between atoms: C_12  and  O_19
REMARK    6  A    between atoms: C_14  and  O_18
REMARK    7  A    between atoms: O_20  and  C_21
REMARK    8  A    between atoms: C_23  and  O_34
REMARK    9  A    between atoms: C_24  and  O_33
REMARK   10  A    between atoms: C_26  and  O_32
REMARK   11  A    between atoms: C_28  and  C_30
REMARK   12  A    between atoms: C_30  and  O_31
REMARK   13  A    between atoms: O_34  and  C_35
REMARK   14  A    between atoms: C_37  and  O_48
REMARK   15  A    between atoms: C_38  and  O_47
REMARK   16  A    between atoms: C_40  and  O_46
REMARK   17  A    between atoms: C_42  and  C_44
REMARK   18  A    between atoms: C_44  and  O_45
REMARK   19  A    between atoms: O_48  and  C_49
REMARK   20  A    between atoms: C_51  and  O_62
REMARK   21  A    between atoms: C_52  and  O_61
REMARK   22  A    between atoms: C_54  and  O_60
REMARK   23  A    between atoms: C_56  and  C_58
REMARK   24  A    between atoms: C_58  and  O_59
REMARK                            x       y       z     vdW  Elec       q    Type
REMARK                         _______ _______ _______ _____ _____    ______ ____
ROOT
ATOM      1  C   UNL     1       5.540   2.566  23.186  0.00  0.00    +0.340 C 
ATOM      2  O   UNL     1       4.869   3.703  22.617  0.00  0.00    -0.331 OA
ATOM      3  C   UNL     1       4.247   4.720  23.437  0.00  0.00    +0.179 C 
ATOM      4  C   UNL     1       4.082   4.475  24.966  0.00  0.00    +0.177 C 
ATOM      5  C   UNL     1       5.005   3.371  25.477  0.00  0.00    +0.180 C 
ATOM      6  C   UNL     1       4.900   2.129  24.511  0.00  0.00    +0.221 C 
ENDROOT
BRANCH   5   7
ATOM      7  O   UNL     1       6.270   4.013  25.628  0.00  0.00    -0.386 OA
ATOM      8  H   UNL     1       6.773   3.541  26.315  0.00  0.00    +0.210 HD
ENDBRANCH   5   7
BRANCH   4   9
ATOM      9  O   UNL     1       2.737   4.169  25.342  0.00  0.00    -0.386 OA
ATOM     10  H   UNL     1       2.279   3.874  24.531  0.00  0.00    +0.210 HD
ENDBRANCH   4   9
BRANCH   6  11
ATOM     11  O   UNL     1       5.379   0.878  25.131  0.00  0.00    -0.337 OA
BRANCH  11  12
ATOM     12  C   UNL     1       4.644   0.381  26.277  0.00  0.00    +0.283 C 
ATOM     13  O   UNL     1       4.825   1.229  27.416  0.00  0.00    -0.341 OA
ATOM     14  C   UNL     1       6.201   1.329  27.818  0.00  0.00    +0.178 C 
ATOM     15  C   UNL     1       6.916  -0.017  28.064  0.00  0.00    +0.177 C 
ATOM     16  C   UNL     1       6.411  -1.220  27.220  0.00  0.00    +0.179 C 
ATOM     17  C   UNL     1       4.936  -1.105  26.814  0.00  0.00    +0.208 C 
BRANCH  16  18
ATOM     18  O   UNL     1       7.229  -1.389  26.052  0.00  0.00    -0.386 OA
ATOM     19  H   UNL     1       6.983  -0.672  25.434  0.00  0.00    +0.210 HD
ENDBRANCH  16  18
BRANCH  15  20
ATOM     20  O   UNL     1       8.318   0.187  27.794  0.00  0.00    -0.386 OA
ATOM     21  H   UNL     1       8.410   1.160  27.695  0.00  0.00    +0.210 HD
ENDBRANCH  15  20
BRANCH  14  22
ATOM     22  C   UNL     1       6.239   2.306  29.010  0.00  0.00    +0.190 C 
BRANCH  22  23
ATOM     23  O   UNL     1       7.568   2.723  29.314  0.00  0.00    -0.392 OA
ATOM     24  H   UNL     1       8.166   2.010  29.031  0.00  0.00    +0.210 HD
ENDBRANCH  22  23
ENDBRANCH  14  22
BRANCH  17  25
ATOM     25  O   UNL     1       4.440  -2.171  25.950  0.00  0.00    -0.338 OA
BRANCH  25  26
ATOM     26  C   UNL     1       3.770  -3.338  26.515  0.00  0.00    +0.282 C 
ATOM     27  O   UNL     1       4.668  -4.024  27.428  0.00  0.00    -0.341 OA
ATOM     28  C   UNL     1       5.816  -4.641  26.806  0.00  0.00    +0.178 C 
ATOM     29  C   UNL     1       5.483  -5.574  25.600  0.00  0.00    +0.177 C 
ATOM     30  C   UNL     1       4.417  -4.946  24.688  0.00  0.00    +0.179 C 
ATOM     31  C   UNL     1       3.256  -4.439  25.555  0.00  0.00    +0.201 C 
BRANCH  31  32
ATOM     32  O   UNL     1       2.115  -4.042  24.799  0.00  0.00    -0.384 OA
ATOM     33  H   UNL     1       1.478  -4.774  24.791  0.00  0.00    +0.210 HD
ENDBRANCH  31  32
BRANCH  30  34
ATOM     34  O   UNL     1       4.994  -3.891  23.909  0.00  0.00    -0.386 OA
ATOM     35  H   UNL     1       5.963  -4.041  23.892  0.00  0.00    +0.210 HD
ENDBRANCH  30  34
BRANCH  29  36
ATOM     36  O   UNL     1       5.030  -6.862  26.039  0.00  0.00    -0.386 OA
ATOM     37  H   UNL     1       4.056  -6.874  25.984  0.00  0.00    +0.210 HD
ENDBRANCH  29  36
BRANCH  28  38
ATOM     38  C   UNL     1       6.638  -5.405  27.860  0.00  0.00    +0.190 C 
BRANCH  38  39
ATOM     39  O   UNL     1       7.784  -6.017  27.263  0.00  0.00    -0.392 OA
ATOM     40  H   UNL     1       8.540  -5.840  27.850  0.00  0.00    +0.210 HD
ENDBRANCH  38  39
ENDBRANCH  28  38
ENDBRANCH  25  26
ENDBRANCH  17  25
ENDBRANCH  11  12
ENDBRANCH   6  11
BRANCH   3  41
ATOM     41  C   UNL     1       2.877   5.110  22.821  0.00  0.00    +0.190 C 
BRANCH  41  42
ATOM     42  O   UNL     1       2.036   4.004  22.508  0.00  0.00    -0.392 OA
ATOM     43  H   UNL     1       1.126   4.337  22.455  0.00  0.00    +0.210 HD
ENDBRANCH  41  42
ENDBRANCH   3  41
BRANCH   1  44
ATOM     44  O   UNL     1       6.893   2.734  23.478  0.00  0.00    -0.453 OA
BRANCH  44  55
ATOM     45  C   UNL     1       9.122   1.749  23.507  0.00  0.00    +0.181 A 
ATOM     46  O   UNL     1      10.512   2.069  23.523  0.00  0.00    -0.451 OA
ATOM     47  C   UNL     1      10.943   3.388  23.518  0.00  0.00    +0.147 A 
ATOM     48  C   UNL     1      10.088   4.461  23.675  0.00  0.00    +0.109 A 
ATOM     49  C   UNL     1      10.562   5.789  23.672  0.00  0.00    +0.135 A 
ATOM     50  C   UNL     1      11.909   6.062  23.528  0.00  0.00    +0.091 A 
ATOM     51  C   UNL     1      12.785   4.986  23.366  0.00  0.00    +0.124 A 
ATOM     52  C   UNL     1       8.682   4.145  23.857  0.00  0.00    +0.238 A 
ATOM     53  O   UNL     1       7.926   5.072  24.168  0.00  0.00    -0.283 OA
ATOM     54  C   UNL     1      12.309   3.651  23.351  0.00  0.00    +0.092 A 
ATOM     55  C   UNL     1       8.200   2.740  23.608  0.00  0.00    +0.214 A 
BRANCH  45  57
ATOM     56  C   UNL     1       9.801  -0.772  23.615  0.00  0.00    +0.015 A 
ATOM     57  C   UNL     1       8.852   0.245  23.343  0.00  0.00    +0.025 A 
ATOM     58  C   UNL     1       7.609  -0.229  22.862  0.00  0.00    +0.060 A 
ATOM     59  C   UNL     1       7.339  -1.602  22.707  0.00  0.00    +0.159 A 
ATOM     60  C   UNL     1       8.292  -2.559  23.028  0.00  0.00    +0.158 A 
ATOM     61  C   UNL     1       9.532  -2.156  23.474  0.00  0.00    +0.050 A 
BRANCH  60  62
ATOM     62  O   UNL     1       7.949  -3.877  22.881  0.00  0.00    -0.503 OA
ATOM     63  H   UNL     1       6.987  -3.981  22.962  0.00  0.00    +0.292 HD
ENDBRANCH  60  62
BRANCH  59  64
ATOM     64  O   UNL     1       6.119  -2.017  22.235  0.00  0.00    -0.503 OA
ATOM     65  H   UNL     1       6.158  -1.893  21.250  0.00  0.00    +0.292 HD
ENDBRANCH  59  64
ENDBRANCH  45  57
BRANCH  51  66
ATOM     66  O   UNL     1      14.108   5.213  23.163  0.00  0.00    -0.507 OA
ATOM     67  H   UNL     1      14.230   6.076  22.728  0.00  0.00    +0.292 HD
ENDBRANCH  51  66
BRANCH  49  68
ATOM     68  O   UNL     1       9.746   6.886  23.774  0.00  0.00    -0.506 OA
ATOM     69  H   UNL     1       9.226   6.808  24.605  0.00  0.00    +0.292 HD
ENDBRANCH  49  68
ENDBRANCH  44  55
ENDBRANCH   1  44
TORSDOF 24
ENDMDL
MODEL 6
REMARK VINA RESULT:      -5.7      2.311      5.884
REMARK  Name = 
REMARK  24 active torsions:
REMARK  status: ('A' for Active; 'I' for Inactive)
REMARK    1  A    between atoms: C_3  and  O_64
REMARK    2  A    between atoms: C_4  and  O_63
REMARK    3  A    between atoms: C_6  and  C_7
REMARK    4  A    between atoms: C_8  and  O_20
REMARK    5  A    between atoms: C_12  and  O_19
REMARK    6  A    between atoms: C_14  and  O_18
REMARK    7  A    between atoms: O_20  and  C_21
REMARK    8  A    between atoms: C_23  and  O_34
REMARK    9  A    between atoms: C_24  and  O_33
REMARK   10  A    between atoms: C_26  and  O_32
REMARK   11  A    between atoms: C_28  and  C_30
REMARK   12  A    between atoms: C_30  and  O_31
REMARK   13  A    between atoms: O_34  and  C_35
REMARK   14  A    between atoms: C_37  and  O_48
REMARK   15  A    between atoms: C_38  and  O_47
REMARK   16  A    between atoms: C_40  and  O_46
REMARK   17  A    between atoms: C_42  and  C_44
REMARK   18  A    between atoms: C_44  and  O_45
REMARK   19  A    between atoms: O_48  and  C_49
REMARK   20  A    between atoms: C_51  and  O_62
REMARK   21  A    between atoms: C_52  and  O_61
REMARK   22  A    between atoms: C_54  and  O_60
REMARK   23  A    between atoms: C_56  and  C_58
REMARK   24  A    between atoms: C_58  and  O_59
REMARK                            x       y       z     vdW  Elec       q    Type
REMARK                         _______ _______ _______ _____ _____    ______ ____
ROOT
ATOM      1  C   UNL     1       6.384   2.945  25.671  0.00  0.00    +0.340 C 
ATOM      2  O   UNL     1       6.196   4.364  25.532  0.00  0.00    -0.331 OA
ATOM      3  C   UNL     1       5.875   4.977  24.262  0.00  0.00    +0.179 C 
ATOM      4  C   UNL     1       5.965   4.130  22.958  0.00  0.00    +0.177 C 
ATOM      5  C   UNL     1       5.952   2.629  23.243  0.00  0.00    +0.180 C 
ATOM      6  C   UNL     1       6.977   2.320  24.401  0.00  0.00    +0.221 C 
ENDROOT
BRANCH   5   7
ATOM      7  O   UNL     1       4.574   2.324  23.451  0.00  0.00    -0.386 OA
ATOM      8  H   UNL     1       4.366   1.504  22.968  0.00  0.00    +0.210 HD
ENDBRANCH   5   7
BRANCH   4   9
ATOM      9  O   UNL     1       7.112   4.444  22.164  0.00  0.00    -0.386 OA
ATOM     10  H   UNL     1       6.955   4.058  21.280  0.00  0.00    +0.210 HD
ENDBRANCH   4   9
BRANCH   6  11
ATOM     11  O   UNL     1       7.374   0.900  24.450  0.00  0.00    -0.337 OA
BRANCH  11  12
ATOM     12  C   UNL     1       8.716   0.602  24.911  0.00  0.00    +0.283 C 
ATOM     13  O   UNL     1       9.579   1.733  24.762  0.00  0.00    -0.341 OA
ATOM     14  C   UNL     1       9.697   2.163  23.396  0.00  0.00    +0.178 C 
ATOM     15  C   UNL     1      10.115   1.067  22.393  0.00  0.00    +0.177 C 
ATOM     16  C   UNL     1       9.673  -0.381  22.745  0.00  0.00    +0.179 C 
ATOM     17  C   UNL     1       9.519  -0.624  24.252  0.00  0.00    +0.208 C 
BRANCH  16  18
ATOM     18  O   UNL     1       8.449  -0.707  22.068  0.00  0.00    -0.386 OA
ATOM     19  H   UNL     1       8.611  -0.563  21.115  0.00  0.00    +0.210 HD
ENDBRANCH  16  18
BRANCH  15  20
ATOM     20  O   UNL     1       9.562   1.425  21.110  0.00  0.00    -0.386 OA
ATOM     21  H   UNL     1      10.132   0.961  20.458  0.00  0.00    +0.210 HD
ENDBRANCH  15  20
BRANCH  14  22
ATOM     22  C   UNL     1      10.607   3.408  23.406  0.00  0.00    +0.190 C 
BRANCH  22  23
ATOM     23  O   UNL     1       9.854   4.617  23.355  0.00  0.00    -0.392 OA
ATOM     24  H   UNL     1      10.487   5.353  23.418  0.00  0.00    +0.210 HD
ENDBRANCH  22  23
ENDBRANCH  14  22
BRANCH  17  25
ATOM     25  O   UNL     1       9.025  -1.945  24.624  0.00  0.00    -0.338 OA
BRANCH  25  26
ATOM     26  C   UNL     1       7.716  -2.102  25.253  0.00  0.00    +0.282 C 
ATOM     27  O   UNL     1       7.775  -3.156  26.250  0.00  0.00    -0.341 OA
ATOM     28  C   UNL     1       7.986  -4.484  25.721  0.00  0.00    +0.178 C 
ATOM     29  C   UNL     1       7.005  -4.896  24.581  0.00  0.00    +0.177 C 
ATOM     30  C   UNL     1       6.796  -3.746  23.582  0.00  0.00    +0.179 C 
ATOM     31  C   UNL     1       6.500  -2.457  24.363  0.00  0.00    +0.201 C 
BRANCH  31  32
ATOM     32  O   UNL     1       6.071  -1.379  23.536  0.00  0.00    -0.384 OA
ATOM     33  H   UNL     1       5.125  -1.226  23.692  0.00  0.00    +0.210 HD
ENDBRANCH  31  32
BRANCH  30  34
ATOM     34  O   UNL     1       7.950  -3.603  22.746  0.00  0.00    -0.386 OA
ATOM     35  H   UNL     1       8.739  -3.689  23.324  0.00  0.00    +0.210 HD
ENDBRANCH  30  34
BRANCH  29  36
ATOM     36  O   UNL     1       5.733  -5.306  25.101  0.00  0.00    -0.386 OA
ATOM     37  H   UNL     1       5.144  -4.529  25.106  0.00  0.00    +0.210 HD
ENDBRANCH  29  36
BRANCH  28  38
ATOM     38  C   UNL     1       7.942  -5.517  26.862  0.00  0.00    +0.190 C 
BRANCH  38  39
ATOM     39  O   UNL     1       6.994  -5.130  27.860  0.00  0.00    -0.392 OA
ATOM     40  H   UNL     1       6.598  -5.947  28.209  0.00  0.00    +0.210 HD
ENDBRANCH  38  39
ENDBRANCH  28  38
ENDBRANCH  25  26
ENDBRANCH  17  25
ENDBRANCH  11  12
ENDBRANCH   6  11
BRANCH   3  41
ATOM     41  C   UNL     1       6.705   6.279  24.095  0.00  0.00    +0.190 C 
BRANCH  41  42
ATOM     42  O   UNL     1       8.014   6.217  24.652  0.00  0.00    -0.392 OA
ATOM     43  H   UNL     1       8.556   5.673  24.058  0.00  0.00    +0.210 HD
ENDBRANCH  41  42
ENDBRANCH   3  41
BRANCH   1  44
ATOM     44  O   UNL     1       5.237   2.197  25.938  0.00  0.00    -0.453 OA
BRANCH  44  55
ATOM     45  C   UNL     1       2.869   1.822  26.371  0.00  0.00    +0.181 A 
ATOM     46  O   UNL     1       1.926   0.838  26.791  0.00  0.00    -0.451 OA
ATOM     47  C   UNL     1       2.331  -0.451  27.108  0.00  0.00    +0.147 A 
ATOM     48  C   UNL     1       3.657  -0.819  27.215  0.00  0.00    +0.109 A 
ATOM     49  C   UNL     1       4.033  -2.138  27.547  0.00  0.00    +0.135 A 
ATOM     50  C   UNL     1       3.079  -3.107  27.796  0.00  0.00    +0.091 A 
ATOM     51  C   UNL     1       1.733  -2.749  27.689  0.00  0.00    +0.124 A 
ATOM     52  C   UNL     1       4.639   0.225  26.981  0.00  0.00    +0.238 A 
ATOM     53  O   UNL     1       5.820  -0.035  27.236  0.00  0.00    -0.283 OA
ATOM     54  C   UNL     1       1.353  -1.429  27.338  0.00  0.00    +0.092 A 
ATOM     55  C   UNL     1       4.196   1.540  26.394  0.00  0.00    +0.214 A 
BRANCH  45  57
ATOM     56  C   UNL     1       1.193   3.201  24.916  0.00  0.00    +0.015 A 
ATOM     57  C   UNL     1       2.207   3.128  25.903  0.00  0.00    +0.025 A 
ATOM     58  C   UNL     1       2.610   4.381  26.422  0.00  0.00    +0.060 A 
ATOM     59  C   UNL     1       2.016   5.590  26.010  0.00  0.00    +0.159 A 
ATOM     60  C   UNL     1       0.995   5.600  25.069  0.00  0.00    +0.158 A 
ATOM     61  C   UNL     1       0.581   4.412  24.506  0.00  0.00    +0.050 A 
BRANCH  60  62
ATOM     62  O   UNL     1       0.444   6.809  24.739  0.00  0.00    -0.503 OA
ATOM     63  H   UNL     1      -0.459   6.683  24.405  0.00  0.00    +0.292 HD
ENDBRANCH  60  62
BRANCH  59  64
ATOM     64  O   UNL     1       2.439   6.782  26.540  0.00  0.00    -0.503 OA
ATOM     65  H   UNL     1       1.618   7.234  26.869  0.00  0.00    +0.292 HD
ENDBRANCH  59  64
ENDBRANCH  45  57
BRANCH  51  66
ATOM     66  O   UNL     1       0.766  -3.684  27.868  0.00  0.00    -0.507 OA
ATOM     67  H   UNL     1      -0.022  -3.444  27.346  0.00  0.00    +0.292 HD
ENDBRANCH  51  66
BRANCH  49  68
ATOM     68  O   UNL     1       5.335  -2.561  27.615  0.00  0.00    -0.506 OA
ATOM     69  H   UNL     1       5.500  -2.908  28.520  0.00  0.00    +0.292 HD
ENDBRANCH  49  68
ENDBRANCH  44  55
ENDBRANCH   1  44
TORSDOF 24
ENDMDL
MODEL 7
REMARK VINA RESULT:      -5.6      2.688      9.551
REMARK  Name = 
REMARK  24 active torsions:
REMARK  status: ('A' for Active; 'I' for Inactive)
REMARK    1  A    between atoms: C_3  and  O_64
REMARK    2  A    between atoms: C_4  and  O_63
REMARK    3  A    between atoms: C_6  and  C_7
REMARK    4  A    between atoms: C_8  and  O_20
REMARK    5  A    between atoms: C_12  and  O_19
REMARK    6  A    between atoms: C_14  and  O_18
REMARK    7  A    between atoms: O_20  and  C_21
REMARK    8  A    between atoms: C_23  and  O_34
REMARK    9  A    between atoms: C_24  and  O_33
REMARK   10  A    between atoms: C_26  and  O_32
REMARK   11  A    between atoms: C_28  and  C_30
REMARK   12  A    between atoms: C_30  and  O_31
REMARK   13  A    between atoms: O_34  and  C_35
REMARK   14  A    between atoms: C_37  and  O_48
REMARK   15  A    between atoms: C_38  and  O_47
REMARK   16  A    between atoms: C_40  and  O_46
REMARK   17  A    between atoms: C_42  and  C_44
REMARK   18  A    between atoms: C_44  and  O_45
REMARK   19  A    between atoms: O_48  and  C_49
REMARK   20  A    between atoms: C_51  and  O_62
REMARK   21  A    between atoms: C_52  and  O_61
REMARK   22  A    between atoms: C_54  and  O_60
REMARK   23  A    between atoms: C_56  and  C_58
REMARK   24  A    between atoms: C_58  and  O_59
REMARK                            x       y       z     vdW  Elec       q    Type
REMARK                         _______ _______ _______ _____ _____    ______ ____
ROOT
ATOM      1  C   UNL     1       6.548  -0.003  24.397  0.00  0.00    +0.340 C 
ATOM      2  O   UNL     1       7.517  -0.609  23.525  0.00  0.00    -0.331 OA
ATOM      3  C   UNL     1       8.846  -0.958  23.975  0.00  0.00    +0.179 C 
ATOM      4  C   UNL     1       9.340  -0.459  25.366  0.00  0.00    +0.177 C 
ATOM      5  C   UNL     1       8.184  -0.034  26.269  0.00  0.00    +0.180 C 
ATOM      6  C   UNL     1       7.210   0.897  25.450  0.00  0.00    +0.221 C 
ENDROOT
BRANCH   5   7
ATOM      7  O   UNL     1       7.677  -1.262  26.791  0.00  0.00    -0.386 OA
ATOM      8  H   UNL     1       6.705  -1.245  26.723  0.00  0.00    +0.210 HD
ENDBRANCH   5   7
BRANCH   4   9
ATOM      9  O   UNL     1      10.279   0.614  25.275  0.00  0.00    -0.386 OA
ATOM     10  H   UNL     1       9.768   1.442  25.358  0.00  0.00    +0.210 HD
ENDBRANCH   4   9
BRANCH   6  11
ATOM     11  O   UNL     1       6.333   1.711  26.313  0.00  0.00    -0.337 OA
BRANCH  11  12
ATOM     12  C   UNL     1       6.883   2.941  26.846  0.00  0.00    +0.283 C 
ATOM     13  O   UNL     1       7.528   2.719  28.104  0.00  0.00    -0.341 OA
ATOM     14  C   UNL     1       6.633   2.200  29.101  0.00  0.00    +0.178 C 
ATOM     15  C   UNL     1       5.346   3.024  29.325  0.00  0.00    +0.177 C 
ATOM     16  C   UNL     1       4.811   3.799  28.089  0.00  0.00    +0.179 C 
ATOM     17  C   UNL     1       5.909   4.195  27.094  0.00  0.00    +0.208 C 
BRANCH  16  18
ATOM     18  O   UNL     1       3.797   3.034  27.421  0.00  0.00    -0.386 OA
ATOM     19  H   UNL     1       4.211   2.185  27.166  0.00  0.00    +0.210 HD
ENDBRANCH  16  18
BRANCH  15  20
ATOM     20  O   UNL     1       4.327   2.111  29.781  0.00  0.00    -0.386 OA
ATOM     21  H   UNL     1       4.786   1.535  30.431  0.00  0.00    +0.210 HD
ENDBRANCH  15  20
BRANCH  14  22
ATOM     22  C   UNL     1       7.477   1.967  30.369  0.00  0.00    +0.190 C 
BRANCH  22  23
ATOM     23  O   UNL     1       8.609   1.141  30.110  0.00  0.00    -0.392 OA
ATOM     24  H   UNL     1       9.032   1.478  29.301  0.00  0.00    +0.210 HD
ENDBRANCH  22  23
ENDBRANCH  14  22
BRANCH  17  25
ATOM     25  O   UNL     1       5.443   4.851  25.877  0.00  0.00    -0.338 OA
BRANCH  25  26
ATOM     26  C   UNL     1       5.587   4.202  24.577  0.00  0.00    +0.282 C 
ATOM     27  O   UNL     1       5.997   5.179  23.584  0.00  0.00    -0.341 OA
ATOM     28  C   UNL     1       5.010   6.189  23.278  0.00  0.00    +0.178 C 
ATOM     29  C   UNL     1       3.598   5.634  22.914  0.00  0.00    +0.177 C 
ATOM     30  C   UNL     1       3.191   4.487  23.853  0.00  0.00    +0.179 C 
ATOM     31  C   UNL     1       4.356   3.493  23.958  0.00  0.00    +0.201 C 
BRANCH  31  32
ATOM     32  O   UNL     1       4.010   2.281  24.623  0.00  0.00    -0.384 OA
ATOM     33  H   UNL     1       4.386   2.300  25.518  0.00  0.00    +0.210 HD
ENDBRANCH  31  32
BRANCH  30  34
ATOM     34  O   UNL     1       2.824   5.007  25.136  0.00  0.00    -0.386 OA
ATOM     35  H   UNL     1       1.880   4.781  25.281  0.00  0.00    +0.210 HD
ENDBRANCH  30  34
BRANCH  29  36
ATOM     36  O   UNL     1       3.547   5.174  21.557  0.00  0.00    -0.386 OA
ATOM     37  H   UNL     1       2.861   4.482  21.499  0.00  0.00    +0.210 HD
ENDBRANCH  29  36
BRANCH  28  38
ATOM     38  C   UNL     1       5.528   7.108  22.156  0.00  0.00    +0.190 C 
BRANCH  38  39
ATOM     39  O   UNL     1       6.540   6.451  21.391  0.00  0.00    -0.392 OA
ATOM     40  H   UNL     1       7.234   7.109  21.210  0.00  0.00    +0.210 HD
ENDBRANCH  38  39
ENDBRANCH  28  38
ENDBRANCH  25  26
ENDBRANCH  17  25
ENDBRANCH  11  12
ENDBRANCH   6  11
BRANCH   3  41
ATOM     41  C   UNL     1       9.879  -0.565  22.884  0.00  0.00    +0.190 C 
BRANCH  41  42
ATOM     42  O   UNL     1      10.216  -1.618  21.987  0.00  0.00    -0.392 OA
ATOM     43  H   UNL     1      10.663  -1.218  21.225  0.00  0.00    +0.210 HD
ENDBRANCH  41  42
ENDBRANCH   3  41
BRANCH   1  44
ATOM     44  O   UNL     1       5.746  -0.881  25.127  0.00  0.00    -0.453 OA
BRANCH  44  55
ATOM     45  C   UNL     1       4.814  -3.106  25.466  0.00  0.00    +0.181 A 
ATOM     46  O   UNL     1       3.905  -3.853  26.272  0.00  0.00    -0.451 OA
ATOM     47  C   UNL     1       3.202  -3.249  27.306  0.00  0.00    +0.147 A 
ATOM     48  C   UNL     1       3.190  -1.884  27.511  0.00  0.00    +0.109 A 
ATOM     49  C   UNL     1       2.458  -1.304  28.568  0.00  0.00    +0.135 A 
ATOM     50  C   UNL     1       1.709  -2.086  29.427  0.00  0.00    +0.091 A 
ATOM     51  C   UNL     1       1.714  -3.468  29.232  0.00  0.00    +0.124 A 
ATOM     52  C   UNL     1       3.959  -1.083  26.575  0.00  0.00    +0.238 A 
ATOM     53  O   UNL     1       3.826   0.145  26.634  0.00  0.00    -0.283 OA
ATOM     54  C   UNL     1       2.463  -4.056  28.182  0.00  0.00    +0.092 A 
ATOM     55  C   UNL     1       4.910  -1.762  25.626  0.00  0.00    +0.214 A 
BRANCH  45  57
ATOM     56  C   UNL     1       7.029  -4.106  24.506  0.00  0.00    +0.015 A 
ATOM     57  C   UNL     1       5.617  -3.984  24.493  0.00  0.00    +0.025 A 
ATOM     58  C   UNL     1       4.976  -4.721  23.470  0.00  0.00    +0.060 A 
ATOM     59  C   UNL     1       5.691  -5.534  22.570  0.00  0.00    +0.159 A 
ATOM     60  C   UNL     1       7.072  -5.649  22.655  0.00  0.00    +0.158 A 
ATOM     61  C   UNL     1       7.755  -4.932  23.613  0.00  0.00    +0.050 A 
BRANCH  60  62
ATOM     62  O   UNL     1       7.699  -6.481  21.765  0.00  0.00    -0.503 OA
ATOM     63  H   UNL     1       8.074  -5.965  21.033  0.00  0.00    +0.292 HD
ENDBRANCH  60  62
BRANCH  59  64
ATOM     64  O   UNL     1       5.028  -6.230  21.592  0.00  0.00    -0.503 OA
ATOM     65  H   UNL     1       5.538  -6.065  20.755  0.00  0.00    +0.292 HD
ENDBRANCH  59  64
ENDBRANCH  45  57
BRANCH  51  66
ATOM     66  O   UNL     1       1.039  -4.277  30.088  0.00  0.00    -0.507 OA
ATOM     67  H   UNL     1       1.380  -4.154  30.993  0.00  0.00    +0.292 HD
ENDBRANCH  51  66
BRANCH  49  68
ATOM     68  O   UNL     1       2.456   0.040  28.841  0.00  0.00    -0.506 OA
ATOM     69  H   UNL     1       2.731   0.521  28.029  0.00  0.00    +0.292 HD
ENDBRANCH  49  68
ENDBRANCH  44  55
ENDBRANCH   1  44
TORSDOF 24
ENDMDL
MODEL 8
REMARK VINA RESULT:      -5.5      1.900      5.657
REMARK  Name = 
REMARK  24 active torsions:
REMARK  status: ('A' for Active; 'I' for Inactive)
REMARK    1  A    between atoms: C_3  and  O_64
REMARK    2  A    between atoms: C_4  and  O_63
REMARK    3  A    between atoms: C_6  and  C_7
REMARK    4  A    between atoms: C_8  and  O_20
REMARK    5  A    between atoms: C_12  and  O_19
REMARK    6  A    between atoms: C_14  and  O_18
REMARK    7  A    between atoms: O_20  and  C_21
REMARK    8  A    between atoms: C_23  and  O_34
REMARK    9  A    between atoms: C_24  and  O_33
REMARK   10  A    between atoms: C_26  and  O_32
REMARK   11  A    between atoms: C_28  and  C_30
REMARK   12  A    between atoms: C_30  and  O_31
REMARK   13  A    between atoms: O_34  and  C_35
REMARK   14  A    between atoms: C_37  and  O_48
REMARK   15  A    between atoms: C_38  and  O_47
REMARK   16  A    between atoms: C_40  and  O_46
REMARK   17  A    between atoms: C_42  and  C_44
REMARK   18  A    between atoms: C_44  and  O_45
REMARK   19  A    between atoms: O_48  and  C_49
REMARK   20  A    between atoms: C_51  and  O_62
REMARK   21  A    between atoms: C_52  and  O_61
REMARK   22  A    between atoms: C_54  and  O_60
REMARK   23  A    between atoms: C_56  and  C_58
REMARK   24  A    between atoms: C_58  and  O_59
REMARK                            x       y       z     vdW  Elec       q    Type
REMARK                         _______ _______ _______ _____ _____    ______ ____
ROOT
ATOM      1  C   UNL     1       7.276   1.582  25.431  0.00  0.00    +0.340 C 
ATOM      2  O   UNL     1       7.626   2.974  25.346  0.00  0.00    -0.331 OA
ATOM      3  C   UNL     1       7.354   3.765  24.166  0.00  0.00    +0.179 C 
ATOM      4  C   UNL     1       6.888   3.056  22.859  0.00  0.00    +0.177 C 
ATOM      5  C   UNL     1       6.349   1.652  23.125  0.00  0.00    +0.180 C 
ATOM      6  C   UNL     1       7.358   0.887  24.065  0.00  0.00    +0.221 C 
ENDROOT
BRANCH   5   7
ATOM      7  O   UNL     1       5.016   1.869  23.587  0.00  0.00    -0.386 OA
ATOM      8  H   UNL     1       4.946   2.791  23.894  0.00  0.00    +0.210 HD
ENDBRANCH   5   7
BRANCH   4   9
ATOM      9  O   UNL     1       7.914   2.982  21.866  0.00  0.00    -0.386 OA
ATOM     10  H   UNL     1       8.761   3.145  22.325  0.00  0.00    +0.210 HD
ENDBRANCH   4   9
BRANCH   6  11
ATOM     11  O   UNL     1       7.182  -0.578  24.023  0.00  0.00    -0.337 OA
BRANCH  11  12
ATOM     12  C   UNL     1       8.121  -1.381  24.780  0.00  0.00    +0.283 C 
ATOM     13  O   UNL     1       9.327  -0.657  25.046  0.00  0.00    -0.341 OA
ATOM     14  C   UNL     1      10.004  -0.250  23.845  0.00  0.00    +0.178 C 
ATOM     15  C   UNL     1      10.300  -1.382  22.839  0.00  0.00    +0.177 C 
ATOM     16  C   UNL     1       9.294  -2.567  22.832  0.00  0.00    +0.179 C 
ATOM     17  C   UNL     1       8.607  -2.792  24.185  0.00  0.00    +0.208 C 
BRANCH  16  18
ATOM     18  O   UNL     1       8.306  -2.376  21.807  0.00  0.00    -0.386 OA
ATOM     19  H   UNL     1       7.806  -3.214  21.743  0.00  0.00    +0.210 HD
ENDBRANCH  16  18
BRANCH  15  20
ATOM     20  O   UNL     1      10.333  -0.789  21.525  0.00  0.00    -0.386 OA
ATOM     21  H   UNL     1       9.960   0.111  21.652  0.00  0.00    +0.210 HD
ENDBRANCH  15  20
BRANCH  14  22
ATOM     22  C   UNL     1      11.241   0.555  24.292  0.00  0.00    +0.190 C 
BRANCH  22  23
ATOM     23  O   UNL     1      11.047   1.958  24.135  0.00  0.00    -0.392 OA
ATOM     24  H   UNL     1      10.627   2.283  24.950  0.00  0.00    +0.210 HD
ENDBRANCH  22  23
ENDBRANCH  14  22
BRANCH  17  25
ATOM     25  O   UNL     1       7.592  -3.841  24.203  0.00  0.00    -0.338 OA
BRANCH  25  26
ATOM     26  C   UNL     1       6.175  -3.505  24.317  0.00  0.00    +0.282 C 
ATOM     27  O   UNL     1       5.481  -4.553  25.044  0.00  0.00    -0.341 OA
ATOM     28  C   UNL     1       5.408  -5.824  24.360  0.00  0.00    +0.178 C 
ATOM     29  C   UNL     1       4.863  -5.749  22.900  0.00  0.00    +0.177 C 
ATOM     30  C   UNL     1       5.462  -4.554  22.141  0.00  0.00    +0.179 C 
ATOM     31  C   UNL     1       5.352  -3.301  23.021  0.00  0.00    +0.201 C 
BRANCH  31  32
ATOM     32  O   UNL     1       5.672  -2.095  22.333  0.00  0.00    -0.384 OA
ATOM     33  H   UNL     1       5.672  -2.274  21.379  0.00  0.00    +0.210 HD
ENDBRANCH  31  32
BRANCH  30  34
ATOM     34  O   UNL     1       6.821  -4.830  21.783  0.00  0.00    -0.386 OA
ATOM     35  H   UNL     1       7.042  -4.254  21.020  0.00  0.00    +0.210 HD
ENDBRANCH  30  34
BRANCH  29  36
ATOM     36  O   UNL     1       3.432  -5.656  22.876  0.00  0.00    -0.386 OA
ATOM     37  H   UNL     1       3.107  -5.771  23.789  0.00  0.00    +0.210 HD
ENDBRANCH  29  36
BRANCH  28  38
ATOM     38  C   UNL     1       4.578  -6.821  25.190  0.00  0.00    +0.190 C 
BRANCH  38  39
ATOM     39  O   UNL     1       4.030  -7.842  24.354  0.00  0.00    -0.392 OA
ATOM     40  H   UNL     1       4.771  -8.405  24.067  0.00  0.00    +0.210 HD
ENDBRANCH  38  39
ENDBRANCH  28  38
ENDBRANCH  25  26
ENDBRANCH  17  25
ENDBRANCH  11  12
ENDBRANCH   6  11
BRANCH   3  41
ATOM     41  C   UNL     1       8.578   4.670  23.860  0.00  0.00    +0.190 C 
BRANCH  41  42
ATOM     42  O   UNL     1       8.419   5.506  22.718  0.00  0.00    -0.392 OA
ATOM     43  H   UNL     1       8.161   4.938  21.975  0.00  0.00    +0.210 HD
ENDBRANCH  41  42
ENDBRANCH   3  41
BRANCH   1  44
ATOM     44  O   UNL     1       5.994   1.299  25.902  0.00  0.00    -0.453 OA
BRANCH  44  55
ATOM     45  C   UNL     1       3.686   1.559  26.639  0.00  0.00    +0.181 A 
ATOM     46  O   UNL     1       2.583   0.858  27.211  0.00  0.00    -0.451 OA
ATOM     47  C   UNL     1       2.679  -0.490  27.527  0.00  0.00    +0.147 A 
ATOM     48  C   UNL     1       3.867  -1.191  27.484  0.00  0.00    +0.109 A 
ATOM     49  C   UNL     1       3.929  -2.560  27.820  0.00  0.00    +0.135 A 
ATOM     50  C   UNL     1       2.797  -3.244  28.223  0.00  0.00    +0.091 A 
ATOM     51  C   UNL     1       1.588  -2.547  28.269  0.00  0.00    +0.124 A 
ATOM     52  C   UNL     1       5.046  -0.441  27.089  0.00  0.00    +0.238 A 
ATOM     53  O   UNL     1       6.142  -1.000  27.207  0.00  0.00    -0.283 OA
ATOM     54  C   UNL     1       1.520  -1.176  27.915  0.00  0.00    +0.092 A 
ATOM     55  C   UNL     1       4.886   0.940  26.509  0.00  0.00    +0.214 A 
BRANCH  45  57
ATOM     56  C   UNL     1       4.109   4.134  26.506  0.00  0.00    +0.015 A 
ATOM     57  C   UNL     1       3.329   2.990  26.204  0.00  0.00    +0.025 A 
ATOM     58  C   UNL     1       2.144   3.264  25.483  0.00  0.00    +0.060 A 
ATOM     59  C   UNL     1       1.799   4.565  25.072  0.00  0.00    +0.159 A 
ATOM     60  C   UNL     1       2.621   5.646  25.358  0.00  0.00    +0.158 A 
ATOM     61  C   UNL     1       3.775   5.446  26.084  0.00  0.00    +0.050 A 
BRANCH  60  62
ATOM     62  O   UNL     1       2.238   6.879  24.901  0.00  0.00    -0.503 OA
ATOM     63  H   UNL     1       2.410   6.949  23.948  0.00  0.00    +0.292 HD
ENDBRANCH  60  62
BRANCH  59  64
ATOM     64  O   UNL     1       0.638   4.784  24.375  0.00  0.00    -0.503 OA
ATOM     65  H   UNL     1       0.055   5.307  24.985  0.00  0.00    +0.292 HD
ENDBRANCH  59  64
ENDBRANCH  45  57
BRANCH  51  66
ATOM     66  O   UNL     1       0.443  -3.195  28.604  0.00  0.00    -0.507 OA
ATOM     67  H   UNL     1      -0.133  -3.267  27.821  0.00  0.00    +0.292 HD
ENDBRANCH  51  66
BRANCH  49  68
ATOM     68  O   UNL     1       5.075  -3.308  27.744  0.00  0.00    -0.506 OA
ATOM     69  H   UNL     1       5.734  -2.811  27.211  0.00  0.00    +0.292 HD
ENDBRANCH  49  68
ENDBRANCH  44  55
ENDBRANCH   1  44
TORSDOF 24
ENDMDL
MODEL 9
REMARK VINA RESULT:      -5.5      2.087      8.070
REMARK  Name = 
REMARK  24 active torsions:
REMARK  status: ('A' for Active; 'I' for Inactive)
REMARK    1  A    between atoms: C_3  and  O_64
REMARK    2  A    between atoms: C_4  and  O_63
REMARK    3  A    between atoms: C_6  and  C_7
REMARK    4  A    between atoms: C_8  and  O_20
REMARK    5  A    between atoms: C_12  and  O_19
REMARK    6  A    between atoms: C_14  and  O_18
REMARK    7  A    between atoms: O_20  and  C_21
REMARK    8  A    between atoms: C_23  and  O_34
REMARK    9  A    between atoms: C_24  and  O_33
REMARK   10  A    between atoms: C_26  and  O_32
REMARK   11  A    between atoms: C_28  and  C_30
REMARK   12  A    between atoms: C_30  and  O_31
REMARK   13  A    between atoms: O_34  and  C_35
REMARK   14  A    between atoms: C_37  and  O_48
REMARK   15  A    between atoms: C_38  and  O_47
REMARK   16  A    between atoms: C_40  and  O_46
REMARK   17  A    between atoms: C_42  and  C_44
REMARK   18  A    between atoms: C_44  and  O_45
REMARK   19  A    between atoms: O_48  and  C_49
REMARK   20  A    between atoms: C_51  and  O_62
REMARK   21  A    between atoms: C_52  and  O_61
REMARK   22  A    between atoms: C_54  and  O_60
REMARK   23  A    between atoms: C_56  and  C_58
REMARK   24  A    between atoms: C_58  and  O_59
REMARK                            x       y       z     vdW  Elec       q    Type
REMARK                         _______ _______ _______ _____ _____    ______ ____
ROOT
ATOM      1  C   UNL     1       7.066   0.162  26.980  0.00  0.00    +0.340 C 
ATOM      2  O   UNL     1       6.538   1.004  28.019  0.00  0.00    -0.331 OA
ATOM      3  C   UNL     1       5.531   2.009  27.758  0.00  0.00    +0.179 C 
ATOM      4  C   UNL     1       5.169   2.368  26.286  0.00  0.00    +0.177 C 
ATOM      5  C   UNL     1       5.611   1.285  25.304  0.00  0.00    +0.180 C 
ATOM      6  C   UNL     1       7.102   0.882  25.624  0.00  0.00    +0.221 C 
ENDROOT
BRANCH   5   7
ATOM      7  O   UNL     1       4.598   0.286  25.403  0.00  0.00    -0.386 OA
ATOM      8  H   UNL     1       4.968  -0.479  25.880  0.00  0.00    +0.210 HD
ENDBRANCH   5   7
BRANCH   4   9
ATOM      9  O   UNL     1       5.705   3.625  25.868  0.00  0.00    -0.386 OA
ATOM     10  H   UNL     1       5.758   4.187  26.665  0.00  0.00    +0.210 HD
ENDBRANCH   4   9
BRANCH   6  11
ATOM     11  O   UNL     1       7.767   0.201  24.497  0.00  0.00    -0.337 OA
BRANCH  11  12
ATOM     12  C   UNL     1       7.194   0.386  23.178  0.00  0.00    +0.283 C 
ATOM     13  O   UNL     1       6.802  -0.864  22.603  0.00  0.00    -0.341 OA
ATOM     14  C   UNL     1       7.904  -1.774  22.452  0.00  0.00    +0.178 C 
ATOM     15  C   UNL     1       9.119  -1.216  21.680  0.00  0.00    +0.177 C 
ATOM     16  C   UNL     1       9.351   0.316  21.793  0.00  0.00    +0.179 C 
ATOM     17  C   UNL     1       8.063   1.113  22.039  0.00  0.00    +0.208 C 
BRANCH  16  18
ATOM     18  O   UNL     1      10.307   0.601  22.825  0.00  0.00    -0.386 OA
ATOM     19  H   UNL     1      10.433  -0.230  23.326  0.00  0.00    +0.210 HD
ENDBRANCH  16  18
BRANCH  15  20
ATOM     20  O   UNL     1      10.289  -1.903  22.168  0.00  0.00    -0.386 OA
ATOM     21  H   UNL     1      10.060  -2.856  22.101  0.00  0.00    +0.210 HD
ENDBRANCH  15  20
BRANCH  14  22
ATOM     22  C   UNL     1       7.319  -3.079  21.876  0.00  0.00    +0.190 C 
BRANCH  22  23
ATOM     23  O   UNL     1       5.897  -3.112  21.972  0.00  0.00    -0.392 OA
ATOM     24  H   UNL     1       5.649  -2.589  22.754  0.00  0.00    +0.210 HD
ENDBRANCH  22  23
ENDBRANCH  14  22
BRANCH  17  25
ATOM     25  O   UNL     1       8.243   2.547  22.236  0.00  0.00    -0.338 OA
BRANCH  25  26
ATOM     26  C   UNL     1       7.885   3.178  23.503  0.00  0.00    +0.282 C 
ATOM     27  O   UNL     1       7.218   4.442  23.250  0.00  0.00    -0.341 OA
ATOM     28  C   UNL     1       8.052   5.465  22.662  0.00  0.00    +0.178 C 
ATOM     29  C   UNL     1       9.396   5.722  23.411  0.00  0.00    +0.177 C 
ATOM     30  C   UNL     1      10.061   4.402  23.833  0.00  0.00    +0.179 C 
ATOM     31  C   UNL     1       9.011   3.512  24.513  0.00  0.00    +0.201 C 
BRANCH  31  32
ATOM     32  O   UNL     1       9.566   2.360  25.141  0.00  0.00    -0.384 OA
ATOM     33  H   UNL     1      10.135   2.650  25.873  0.00  0.00    +0.210 HD
ENDBRANCH  31  32
BRANCH  30  34
ATOM     34  O   UNL     1      10.643   3.757  22.694  0.00  0.00    -0.386 OA
ATOM     35  H   UNL     1      10.838   2.832  22.954  0.00  0.00    +0.210 HD
ENDBRANCH  30  34
BRANCH  29  36
ATOM     36  O   UNL     1       9.205   6.547  24.569  0.00  0.00    -0.386 OA
ATOM     37  H   UNL     1      10.055   6.600  25.044  0.00  0.00    +0.210 HD
ENDBRANCH  29  36
BRANCH  28  38
ATOM     38  C   UNL     1       7.258   6.776  22.524  0.00  0.00    +0.190 C 
BRANCH  38  39
ATOM     39  O   UNL     1       6.930   7.029  21.156  0.00  0.00    -0.392 OA
ATOM     40  H   UNL     1       6.546   6.209  20.798  0.00  0.00    +0.210 HD
ENDBRANCH  38  39
ENDBRANCH  28  38
ENDBRANCH  25  26
ENDBRANCH  17  25
ENDBRANCH  11  12
ENDBRANCH   6  11
BRANCH   3  41
ATOM     41  C   UNL     1       5.884   3.305  28.538  0.00  0.00    +0.190 C 
BRANCH  41  42
ATOM     42  O   UNL     1       7.253   3.687  28.452  0.00  0.00    -0.392 OA
ATOM     43  H   UNL     1       7.734   2.954  28.038  0.00  0.00    +0.210 HD
ENDBRANCH  41  42
ENDBRANCH   3  41
BRANCH   1  44
ATOM     44  O   UNL     1       6.372  -1.023  26.738  0.00  0.00    -0.453 OA
BRANCH  44  55
ATOM     45  C   UNL     1       4.500  -2.504  27.230  0.00  0.00    +0.181 A 
ATOM     46  O   UNL     1       3.936  -3.776  26.915  0.00  0.00    -0.451 OA
ATOM     47  C   UNL     1       4.545  -4.622  25.999  0.00  0.00    +0.147 A 
ATOM     48  C   UNL     1       5.800  -4.385  25.473  0.00  0.00    +0.109 A 
ATOM     49  C   UNL     1       6.392  -5.271  24.548  0.00  0.00    +0.135 A 
ATOM     50  C   UNL     1       5.739  -6.422  24.150  0.00  0.00    +0.091 A 
ATOM     51  C   UNL     1       4.468  -6.673  24.672  0.00  0.00    +0.124 A 
ATOM     52  C   UNL     1       6.478  -3.185  25.933  0.00  0.00    +0.238 A 
ATOM     53  O   UNL     1       7.662  -3.041  25.611  0.00  0.00    -0.283 OA
ATOM     54  C   UNL     1       3.863  -5.775  25.588  0.00  0.00    +0.092 A 
ATOM     55  C   UNL     1       5.711  -2.158  26.723  0.00  0.00    +0.214 A 
BRANCH  45  57
ATOM     56  C   UNL     1       3.822  -1.424  29.511  0.00  0.00    +0.015 A 
ATOM     57  C   UNL     1       3.593  -1.650  28.130  0.00  0.00    +0.025 A 
ATOM     58  C   UNL     1       2.418  -1.046  27.626  0.00  0.00    +0.060 A 
ATOM     59  C   UNL     1       1.574  -0.257  28.432  0.00  0.00    +0.159 A 
ATOM     60  C   UNL     1       1.869  -0.034  29.770  0.00  0.00    +0.158 A 
ATOM     61  C   UNL     1       2.986  -0.621  30.325  0.00  0.00    +0.050 A 
BRANCH  60  62
ATOM     62  O   UNL     1       1.020   0.768  30.485  0.00  0.00    -0.503 OA
ATOM     63  H   UNL     1       0.112   0.669  30.156  0.00  0.00    +0.292 HD
ENDBRANCH  60  62
BRANCH  59  64
ATOM     64  O   UNL     1       0.443   0.308  27.900  0.00  0.00    -0.503 OA
ATOM     65  H   UNL     1       0.332  -0.109  27.006  0.00  0.00    +0.292 HD
ENDBRANCH  59  64
ENDBRANCH  45  57
BRANCH  51  66
ATOM     66  O   UNL     1       3.769  -7.761  24.262  0.00  0.00    -0.507 OA
ATOM     67  H   UNL     1       4.068  -8.028  23.374  0.00  0.00    +0.292 HD
ENDBRANCH  51  66
BRANCH  49  68
ATOM     68  O   UNL     1       7.612  -5.051  23.963  0.00  0.00    -0.506 OA
ATOM     69  H   UNL     1       7.714  -5.681  23.216  0.00  0.00    +0.292 HD
ENDBRANCH  49  68
ENDBRANCH  44  55
ENDBRANCH   1  44
TORSDOF 24
ENDMDL
