MODEL 1
REMARK VINA RESULT:      -7.1      0.000      0.000
REMARK  Name = 
REMARK  13 active torsions:
REMARK  status: ('A' for Active; 'I' for Inactive)
REMARK    1  A    between atoms: C_1  and  O_2
REMARK    2  A    between atoms: O_2  and  C_3
REMARK    3  A    between atoms: C_3  and  C_5
REMARK    4  A    between atoms: C_7  and  O_38
REMARK    5  A    between atoms: C_9  and  O_37
REMARK    6  A    between atoms: C_10  and  O_36
REMARK    7  A    between atoms: C_11  and  O_14
REMARK    8  A    between atoms: O_14  and  C_15
REMARK    9  A    between atoms: C_16  and  C_28
REMARK   10  A    between atoms: C_20  and  O_27
REMARK   11  A    between atoms: C_22  and  O_26
REMARK   12  A    between atoms: C_30  and  O_35
REMARK   13  A    between atoms: C_31  and  O_34
REMARK                            x       y       z     vdW  Elec       q    Type
REMARK                         _______ _______ _______ _____ _____    ______ ____
ROOT
ATOM      1  C   UNL     1       7.463  -2.162  25.623  0.00  0.00    +0.214 A 
ATOM      2  C   UNL     1       8.669  -2.216  24.729  0.00  0.00    +0.238 A 
ATOM      3  O   UNL     1       9.526  -3.086  24.838  0.00  0.00    -0.283 OA
ATOM      4  C   UNL     1       8.862  -1.117  23.776  0.00  0.00    +0.109 A 
ATOM      5  C   UNL     1       8.076   0.018  23.936  0.00  0.00    +0.147 A 
ATOM      6  C   UNL     1       8.304   1.143  23.137  0.00  0.00    +0.092 A 
ATOM      7  C   UNL     1       9.316   1.109  22.180  0.00  0.00    +0.124 A 
ATOM      8  C   UNL     1      10.087  -0.030  21.990  0.00  0.00    +0.091 A 
ATOM      9  O   UNL     1       7.080   0.106  24.874  0.00  0.00    -0.451 OA
ATOM     10  C   UNL     1       9.854  -1.149  22.784  0.00  0.00    +0.135 A 
ATOM     11  C   UNL     1       6.765  -1.004  25.655  0.00  0.00    +0.181 A 
ENDROOT
BRANCH  11  12
ATOM     12  C   UNL     1       5.610  -0.734  26.586  0.00  0.00    +0.025 A 
ATOM     13  C   UNL     1       5.849  -0.088  27.821  0.00  0.00    +0.015 A 
ATOM     14  C   UNL     1       4.813   0.193  28.724  0.00  0.00    +0.050 A 
ATOM     15  C   UNL     1       3.520  -0.175  28.405  0.00  0.00    +0.158 A 
ATOM     16  C   UNL     1       3.251  -0.812  27.200  0.00  0.00    +0.159 A 
ATOM     17  C   UNL     1       4.278  -1.078  26.289  0.00  0.00    +0.060 A 
BRANCH  15  18
ATOM     18  O   UNL     1       2.504   0.093  29.283  0.00  0.00    -0.503 OA
ATOM     19  H   UNL     1       2.468  -0.692  29.864  0.00  0.00    +0.292 HD
ENDBRANCH  15  18
BRANCH  16  20
ATOM     20  O   UNL     1       1.951  -1.163  26.949  0.00  0.00    -0.503 OA
ATOM     21  H   UNL     1       1.370  -0.486  27.337  0.00  0.00    +0.292 HD
ENDBRANCH  16  20
ENDBRANCH  11  12
BRANCH   7  22
ATOM     22  O   UNL     1       9.598   2.181  21.387  0.00  0.00    -0.507 OA
ATOM     23  H   UNL     1       8.830   2.371  20.822  0.00  0.00    +0.292 HD
ENDBRANCH   7  22
BRANCH  10  24
ATOM     24  O   UNL     1      10.598  -2.273  22.567  0.00  0.00    -0.506 OA
ATOM     25  H   UNL     1      10.743  -2.747  23.401  0.00  0.00    +0.292 HD
ENDBRANCH  10  24
BRANCH   1  26
ATOM     26  O   UNL     1       7.120  -3.233  26.441  0.00  0.00    -0.453 OA
BRANCH  26  29
ATOM     27  C   UNL     1       5.387  -5.347  24.039  0.00  0.00    +0.261 C 
ATOM     28  O   UNL     1       5.733  -4.146  24.745  0.00  0.00    -0.322 OA
ATOM     29  C   UNL     1       6.625  -4.432  25.837  0.00  0.00    +0.340 C 
ATOM     30  C   UNL     1       5.804  -5.187  26.893  0.00  0.00    +0.214 C 
ATOM     31  C   UNL     1       5.360  -6.520  26.285  0.00  0.00    +0.180 C 
ATOM     32  C   UNL     1       4.601  -6.303  24.962  0.00  0.00    +0.185 C 
BRANCH  27  33
ATOM     33  C   UNL     1       4.530  -5.055  22.801  0.00  0.00    +0.339 C 
ATOM     34  O   UNL     1       3.308  -5.174  22.764  0.00  0.00    -0.248 OA
BRANCH  33  36
ATOM     35  C   UNL     1       6.136  -5.760  21.252  0.00  0.00    +0.280 C 
ATOM     36  O   UNL     1       5.298  -4.705  21.732  0.00  0.00    -0.466 OA
ENDBRANCH  33  36
ENDBRANCH  27  33
BRANCH  30  37
ATOM     37  O   UNL     1       4.625  -4.435  27.269  0.00  0.00    -0.383 OA
ATOM     38  H   UNL     1       4.945  -3.664  27.781  0.00  0.00    +0.210 HD
ENDBRANCH  30  37
BRANCH  31  39
ATOM     39  O   UNL     1       4.530  -7.207  27.232  0.00  0.00    -0.386 OA
ATOM     40  H   UNL     1       5.074  -7.932  27.595  0.00  0.00    +0.210 HD
ENDBRANCH  31  39
BRANCH  32  41
ATOM     41  O   UNL     1       4.402  -7.570  24.323  0.00  0.00    -0.386 OA
ATOM     42  H   UNL     1       5.240  -7.781  23.862  0.00  0.00    +0.210 HD
ENDBRANCH  32  41
ENDBRANCH  26  29
ENDBRANCH   1  26
TORSDOF 12
ENDMDL
MODEL 2
REMARK VINA RESULT:      -6.8      2.075      5.083
REMARK  Name = 
REMARK  13 active torsions:
REMARK  status: ('A' for Active; 'I' for Inactive)
REMARK    1  A    between atoms: C_1  and  O_2
REMARK    2  A    between atoms: O_2  and  C_3
REMARK    3  A    between atoms: C_3  and  C_5
REMARK    4  A    between atoms: C_7  and  O_38
REMARK    5  A    between atoms: C_9  and  O_37
REMARK    6  A    between atoms: C_10  and  O_36
REMARK    7  A    between atoms: C_11  and  O_14
REMARK    8  A    between atoms: O_14  and  C_15
REMARK    9  A    between atoms: C_16  and  C_28
REMARK   10  A    between atoms: C_20  and  O_27
REMARK   11  A    between atoms: C_22  and  O_26
REMARK   12  A    between atoms: C_30  and  O_35
REMARK   13  A    between atoms: C_31  and  O_34
REMARK                            x       y       z     vdW  Elec       q    Type
REMARK                         _______ _______ _______ _____ _____    ______ ____
ROOT
ATOM      1  C   UNL     1       6.388  -0.549  24.428  0.00  0.00    +0.214 A 
ATOM      2  C   UNL     1       6.650   0.889  24.772  0.00  0.00    +0.238 A 
ATOM      3  O   UNL     1       5.821   1.583  25.352  0.00  0.00    -0.283 OA
ATOM      4  C   UNL     1       7.898   1.490  24.291  0.00  0.00    +0.109 A 
ATOM      5  C   UNL     1       8.627   0.785  23.341  0.00  0.00    +0.147 A 
ATOM      6  C   UNL     1       9.756   1.366  22.755  0.00  0.00    +0.092 A 
ATOM      7  C   UNL     1      10.144   2.648  23.139  0.00  0.00    +0.124 A 
ATOM      8  C   UNL     1       9.441   3.350  24.110  0.00  0.00    +0.091 A 
ATOM      9  O   UNL     1       8.277  -0.471  22.918  0.00  0.00    -0.451 OA
ATOM     10  C   UNL     1       8.321   2.767  24.694  0.00  0.00    +0.135 A 
ATOM     11  C   UNL     1       7.199  -1.126  23.511  0.00  0.00    +0.181 A 
ENDROOT
BRANCH  11  12
ATOM     12  C   UNL     1       7.003  -2.514  22.957  0.00  0.00    +0.025 A 
ATOM     13  C   UNL     1       5.972  -2.748  22.017  0.00  0.00    +0.015 A 
ATOM     14  C   UNL     1       5.746  -4.017  21.465  0.00  0.00    +0.050 A 
ATOM     15  C   UNL     1       6.547  -5.075  21.851  0.00  0.00    +0.158 A 
ATOM     16  C   UNL     1       7.568  -4.879  22.772  0.00  0.00    +0.159 A 
ATOM     17  C   UNL     1       7.808  -3.612  23.313  0.00  0.00    +0.060 A 
BRANCH  15  18
ATOM     18  O   UNL     1       6.331  -6.317  21.319  0.00  0.00    -0.503 OA
ATOM     19  H   UNL     1       6.197  -6.156  20.364  0.00  0.00    +0.292 HD
ENDBRANCH  15  18
BRANCH  16  20
ATOM     20  O   UNL     1       8.318  -5.970  23.124  0.00  0.00    -0.503 OA
ATOM     21  H   UNL     1       7.839  -6.772  22.852  0.00  0.00    +0.292 HD
ENDBRANCH  16  20
ENDBRANCH  11  12
BRANCH   7  22
ATOM     22  O   UNL     1      11.222   3.273  22.588  0.00  0.00    -0.507 OA
ATOM     23  H   UNL     1      12.029   2.971  23.038  0.00  0.00    +0.292 HD
ENDBRANCH   7  22
BRANCH  10  24
ATOM     24  O   UNL     1       7.657   3.454  25.669  0.00  0.00    -0.506 OA
ATOM     25  H   UNL     1       7.783   4.409  25.553  0.00  0.00    +0.292 HD
ENDBRANCH  10  24
BRANCH   1  26
ATOM     26  O   UNL     1       5.311  -1.240  24.972  0.00  0.00    -0.453 OA
BRANCH  26  29
ATOM     27  C   UNL     1       6.122  -4.184  26.952  0.00  0.00    +0.261 C 
ATOM     28  O   UNL     1       5.734  -3.425  25.797  0.00  0.00    -0.322 OA
ATOM     29  C   UNL     1       5.524  -2.043  26.137  0.00  0.00    +0.340 C 
ATOM     30  C   UNL     1       4.247  -1.987  26.988  0.00  0.00    +0.214 C 
ATOM     31  C   UNL     1       4.506  -2.759  28.285  0.00  0.00    +0.180 C 
ATOM     32  C   UNL     1       4.981  -4.194  27.993  0.00  0.00    +0.185 C 
BRANCH  27  33
ATOM     33  C   UNL     1       6.463  -5.636  26.594  0.00  0.00    +0.339 C 
ATOM     34  O   UNL     1       5.693  -6.582  26.735  0.00  0.00    -0.248 OA
BRANCH  33  36
ATOM     35  C   UNL     1       8.646  -4.805  26.735  0.00  0.00    +0.280 C 
ATOM     36  O   UNL     1       7.748  -5.753  26.154  0.00  0.00    -0.466 OA
ENDBRANCH  33  36
ENDBRANCH  27  33
BRANCH  30  37
ATOM     37  O   UNL     1       3.134  -2.605  26.297  0.00  0.00    -0.383 OA
ATOM     38  H   UNL     1       2.648  -1.877  25.860  0.00  0.00    +0.210 HD
ENDBRANCH  30  37
BRANCH  31  39
ATOM     39  O   UNL     1       3.300  -2.779  29.061  0.00  0.00    -0.386 OA
ATOM     40  H   UNL     1       3.365  -2.030  29.685  0.00  0.00    +0.210 HD
ENDBRANCH  31  39
BRANCH  32  41
ATOM     41  O   UNL     1       5.421  -4.800  29.215  0.00  0.00    -0.386 OA
ATOM     42  H   UNL     1       5.529  -5.755  29.026  0.00  0.00    +0.210 HD
ENDBRANCH  32  41
ENDBRANCH  26  29
ENDBRANCH   1  26
TORSDOF 12
ENDMDL
MODEL 3
REMARK VINA RESULT:      -6.6      2.347      7.280
REMARK  Name = 
REMARK  13 active torsions:
REMARK  status: ('A' for Active; 'I' for Inactive)
REMARK    1  A    between atoms: C_1  and  O_2
REMARK    2  A    between atoms: O_2  and  C_3
REMARK    3  A    between atoms: C_3  and  C_5
REMARK    4  A    between atoms: C_7  and  O_38
REMARK    5  A    between atoms: C_9  and  O_37
REMARK    6  A    between atoms: C_10  and  O_36
REMARK    7  A    between atoms: C_11  and  O_14
REMARK    8  A    between atoms: O_14  and  C_15
REMARK    9  A    between atoms: C_16  and  C_28
REMARK   10  A    between atoms: C_20  and  O_27
REMARK   11  A    between atoms: C_22  and  O_26
REMARK   12  A    between atoms: C_30  and  O_35
REMARK   13  A    between atoms: C_31  and  O_34
REMARK                            x       y       z     vdW  Elec       q    Type
REMARK                         _______ _______ _______ _____ _____    ______ ____
ROOT
ATOM      1  C   UNL     1       7.769  -1.947  25.193  0.00  0.00    +0.214 A 
ATOM      2  C   UNL     1       7.173  -3.297  25.469  0.00  0.00    +0.238 A 
ATOM      3  O   UNL     1       7.177  -3.796  26.590  0.00  0.00    -0.283 OA
ATOM      4  C   UNL     1       6.676  -4.071  24.327  0.00  0.00    +0.109 A 
ATOM      5  C   UNL     1       7.019  -3.632  23.054  0.00  0.00    +0.147 A 
ATOM      6  C   UNL     1       6.680  -4.399  21.935  0.00  0.00    +0.092 A 
ATOM      7  C   UNL     1       5.992  -5.598  22.110  0.00  0.00    +0.124 A 
ATOM      8  C   UNL     1       5.617  -6.033  23.375  0.00  0.00    +0.091 A 
ATOM      9  O   UNL     1       7.710  -2.468  22.831  0.00  0.00    -0.451 OA
ATOM     10  C   UNL     1       5.952  -5.263  24.486  0.00  0.00    +0.135 A 
ATOM     11  C   UNL     1       8.019  -1.631  23.901  0.00  0.00    +0.181 A 
ENDROOT
BRANCH  11  12
ATOM     12  C   UNL     1       8.728  -0.377  23.454  0.00  0.00    +0.025 A 
ATOM     13  C   UNL     1      10.074  -0.168  23.832  0.00  0.00    +0.015 A 
ATOM     14  C   UNL     1      10.784   0.977  23.443  0.00  0.00    +0.050 A 
ATOM     15  C   UNL     1      10.153   1.934  22.672  0.00  0.00    +0.158 A 
ATOM     16  C   UNL     1       8.831   1.760  22.284  0.00  0.00    +0.159 A 
ATOM     17  C   UNL     1       8.124   0.612  22.656  0.00  0.00    +0.060 A 
BRANCH  15  18
ATOM     18  O   UNL     1      10.839   3.056  22.290  0.00  0.00    -0.503 OA
ATOM     19  H   UNL     1      10.798   3.049  21.314  0.00  0.00    +0.292 HD
ENDBRANCH  15  18
BRANCH  16  20
ATOM     20  O   UNL     1       8.258   2.751  21.532  0.00  0.00    -0.503 OA
ATOM     21  H   UNL     1       8.635   2.714  20.637  0.00  0.00    +0.292 HD
ENDBRANCH  16  20
ENDBRANCH  11  12
BRANCH   7  22
ATOM     22  O   UNL     1       5.653  -6.398  21.060  0.00  0.00    -0.507 OA
ATOM     23  H   UNL     1       6.288  -6.261  20.337  0.00  0.00    +0.292 HD
ENDBRANCH   7  22
BRANCH  10  24
ATOM     24  O   UNL     1       5.551  -5.685  25.720  0.00  0.00    -0.506 OA
ATOM     25  H   UNL     1       4.752  -6.230  25.647  0.00  0.00    +0.292 HD
ENDBRANCH  10  24
BRANCH   1  26
ATOM     26  O   UNL     1       8.119  -1.084  26.225  0.00  0.00    -0.453 OA
BRANCH  26  29
ATOM     27  C   UNL     1       6.916   2.350  26.217  0.00  0.00    +0.261 C 
ATOM     28  O   UNL     1       7.852   1.270  26.085  0.00  0.00    -0.322 OA
ATOM     29  C   UNL     1       7.266   0.028  26.515  0.00  0.00    +0.340 C 
ATOM     30  C   UNL     1       7.110   0.117  28.040  0.00  0.00    +0.214 C 
ATOM     31  C   UNL     1       6.116   1.240  28.350  0.00  0.00    +0.180 C 
ATOM     32  C   UNL     1       6.555   2.567  27.703  0.00  0.00    +0.185 C 
BRANCH  27  33
ATOM     33  C   UNL     1       7.476   3.664  25.659  0.00  0.00    +0.339 C 
ATOM     34  O   UNL     1       8.069   4.503  26.331  0.00  0.00    -0.248 OA
BRANCH  33  36
ATOM     35  C   UNL     1       5.808   3.575  24.020  0.00  0.00    +0.280 C 
ATOM     36  O   UNL     1       7.182   3.810  24.336  0.00  0.00    -0.466 OA
ENDBRANCH  33  36
ENDBRANCH  27  33
BRANCH  30  37
ATOM     37  O   UNL     1       8.373   0.431  28.675  0.00  0.00    -0.383 OA
ATOM     38  H   UNL     1       8.162   0.652  29.605  0.00  0.00    +0.210 HD
ENDBRANCH  30  37
BRANCH  31  39
ATOM     39  O   UNL     1       6.012   1.387  29.773  0.00  0.00    -0.386 OA
ATOM     40  H   UNL     1       5.541   0.594  30.094  0.00  0.00    +0.210 HD
ENDBRANCH  31  39
BRANCH  32  41
ATOM     41  O   UNL     1       5.496   3.524  27.830  0.00  0.00    -0.386 OA
ATOM     42  H   UNL     1       5.767   4.307  27.308  0.00  0.00    +0.210 HD
ENDBRANCH  32  41
ENDBRANCH  26  29
ENDBRANCH   1  26
TORSDOF 12
ENDMDL
MODEL 4
REMARK VINA RESULT:      -6.4      2.159      6.706
REMARK  Name = 
REMARK  13 active torsions:
REMARK  status: ('A' for Active; 'I' for Inactive)
REMARK    1  A    between atoms: C_1  and  O_2
REMARK    2  A    between atoms: O_2  and  C_3
REMARK    3  A    between atoms: C_3  and  C_5
REMARK    4  A    between atoms: C_7  and  O_38
REMARK    5  A    between atoms: C_9  and  O_37
REMARK    6  A    between atoms: C_10  and  O_36
REMARK    7  A    between atoms: C_11  and  O_14
REMARK    8  A    between atoms: O_14  and  C_15
REMARK    9  A    between atoms: C_16  and  C_28
REMARK   10  A    between atoms: C_20  and  O_27
REMARK   11  A    between atoms: C_22  and  O_26
REMARK   12  A    between atoms: C_30  and  O_35
REMARK   13  A    between atoms: C_31  and  O_34
REMARK                            x       y       z     vdW  Elec       q    Type
REMARK                         _______ _______ _______ _____ _____    ______ ____
ROOT
ATOM      1  C   UNL     1       5.798  -0.809  24.915  0.00  0.00    +0.214 A 
ATOM      2  C   UNL     1       5.824  -2.193  24.332  0.00  0.00    +0.238 A 
ATOM      3  O   UNL     1       5.502  -2.418  23.170  0.00  0.00    -0.283 OA
ATOM      4  C   UNL     1       6.140  -3.307  25.231  0.00  0.00    +0.109 A 
ATOM      5  C   UNL     1       6.138  -3.052  26.597  0.00  0.00    +0.147 A 
ATOM      6  C   UNL     1       6.308  -4.102  27.504  0.00  0.00    +0.092 A 
ATOM      7  C   UNL     1       6.486  -5.399  27.025  0.00  0.00    +0.124 A 
ATOM      8  C   UNL     1       6.521  -5.662  25.662  0.00  0.00    +0.091 A 
ATOM      9  O   UNL     1       5.950  -1.797  27.118  0.00  0.00    -0.451 OA
ATOM     10  C   UNL     1       6.356  -4.613  24.762  0.00  0.00    +0.135 A 
ATOM     11  C   UNL     1       5.839  -0.702  26.263  0.00  0.00    +0.181 A 
ENDROOT
BRANCH  11  12
ATOM     12  C   UNL     1       5.695   0.595  27.018  0.00  0.00    +0.025 A 
ATOM     13  C   UNL     1       4.432   1.231  27.072  0.00  0.00    +0.015 A 
ATOM     14  C   UNL     1       4.238   2.436  27.762  0.00  0.00    +0.050 A 
ATOM     15  C   UNL     1       5.310   3.026  28.405  0.00  0.00    +0.158 A 
ATOM     16  C   UNL     1       6.563   2.429  28.371  0.00  0.00    +0.159 A 
ATOM     17  C   UNL     1       6.757   1.218  27.698  0.00  0.00    +0.060 A 
BRANCH  15  18
ATOM     18  O   UNL     1       5.129   4.205  29.078  0.00  0.00    -0.503 OA
ATOM     19  H   UNL     1       4.190   4.191  29.351  0.00  0.00    +0.292 HD
ENDBRANCH  15  18
BRANCH  16  20
ATOM     20  O   UNL     1       7.586   3.071  29.016  0.00  0.00    -0.503 OA
ATOM     21  H   UNL     1       8.359   2.480  29.029  0.00  0.00    +0.292 HD
ENDBRANCH  16  20
ENDBRANCH  11  12
BRANCH   7  22
ATOM     22  O   UNL     1       6.636  -6.465  27.861  0.00  0.00    -0.507 OA
ATOM     23  H   UNL     1       5.836  -7.016  27.820  0.00  0.00    +0.292 HD
ENDBRANCH   7  22
BRANCH  10  24
ATOM     24  O   UNL     1       6.423  -4.879  23.425  0.00  0.00    -0.506 OA
ATOM     25  H   UNL     1       7.065  -4.292  22.996  0.00  0.00    +0.292 HD
ENDBRANCH  10  24
BRANCH   1  26
ATOM     26  O   UNL     1       5.663   0.315  24.107  0.00  0.00    -0.453 OA
BRANCH  26  29
ATOM     27  C   UNL     1       9.078   0.472  22.860  0.00  0.00    +0.261 C 
ATOM     28  O   UNL     1       8.015   0.238  23.795  0.00  0.00    -0.322 OA
ATOM     29  C   UNL     1       6.757   0.698  23.269  0.00  0.00    +0.340 C 
ATOM     30  C   UNL     1       6.820   2.232  23.248  0.00  0.00    +0.214 C 
ATOM     31  C   UNL     1       7.922   2.649  22.270  0.00  0.00    +0.180 C 
ATOM     32  C   UNL     1       9.265   1.988  22.631  0.00  0.00    +0.185 C 
BRANCH  27  33
ATOM     33  C   UNL     1      10.408  -0.112  23.349  0.00  0.00    +0.339 C 
ATOM     34  O   UNL     1      11.221   0.502  24.036  0.00  0.00    -0.248 OA
BRANCH  33  36
ATOM     35  C   UNL     1       9.993  -2.391  23.680  0.00  0.00    +0.280 C 
ATOM     36  O   UNL     1      10.603  -1.376  22.879  0.00  0.00    -0.466 OA
ENDBRANCH  33  36
ENDBRANCH  27  33
BRANCH  30  37
ATOM     37  O   UNL     1       7.143   2.757  24.558  0.00  0.00    -0.383 OA
ATOM     38  H   UNL     1       7.062   3.730  24.489  0.00  0.00    +0.210 HD
ENDBRANCH  30  37
BRANCH  31  39
ATOM     39  O   UNL     1       8.044   4.078  22.291  0.00  0.00    -0.386 OA
ATOM     40  H   UNL     1       8.812   4.276  22.862  0.00  0.00    +0.210 HD
ENDBRANCH  31  39
BRANCH  32  41
ATOM     41  O   UNL     1      10.203   2.224  21.574  0.00  0.00    -0.386 OA
ATOM     42  H   UNL     1      10.888   2.821  21.940  0.00  0.00    +0.210 HD
ENDBRANCH  32  41
ENDBRANCH  26  29
ENDBRANCH   1  26
TORSDOF 12
ENDMDL
MODEL 5
REMARK VINA RESULT:      -6.3      2.189      3.220
REMARK  Name = 
REMARK  13 active torsions:
REMARK  status: ('A' for Active; 'I' for Inactive)
REMARK    1  A    between atoms: C_1  and  O_2
REMARK    2  A    between atoms: O_2  and  C_3
REMARK    3  A    between atoms: C_3  and  C_5
REMARK    4  A    between atoms: C_7  and  O_38
REMARK    5  A    between atoms: C_9  and  O_37
REMARK    6  A    between atoms: C_10  and  O_36
REMARK    7  A    between atoms: C_11  and  O_14
REMARK    8  A    between atoms: O_14  and  C_15
REMARK    9  A    between atoms: C_16  and  C_28
REMARK   10  A    between atoms: C_20  and  O_27
REMARK   11  A    between atoms: C_22  and  O_26
REMARK   12  A    between atoms: C_30  and  O_35
REMARK   13  A    between atoms: C_31  and  O_34
REMARK                            x       y       z     vdW  Elec       q    Type
REMARK                         _______ _______ _______ _____ _____    ______ ____
ROOT
ATOM      1  C   UNL     1       7.510  -0.150  25.004  0.00  0.00    +0.214 A 
ATOM      2  C   UNL     1       8.205   0.802  24.075  0.00  0.00    +0.238 A 
ATOM      3  O   UNL     1       9.418   0.769  23.893  0.00  0.00    -0.283 OA
ATOM      4  C   UNL     1       7.404   1.867  23.463  0.00  0.00    +0.109 A 
ATOM      5  C   UNL     1       6.131   2.088  23.974  0.00  0.00    +0.147 A 
ATOM      6  C   UNL     1       5.372   3.169  23.514  0.00  0.00    +0.092 A 
ATOM      7  C   UNL     1       5.901   4.012  22.539  0.00  0.00    +0.124 A 
ATOM      8  C   UNL     1       7.160   3.784  21.999  0.00  0.00    +0.091 A 
ATOM      9  O   UNL     1       5.572   1.297  24.945  0.00  0.00    -0.451 OA
ATOM     10  C   UNL     1       7.910   2.703  22.455  0.00  0.00    +0.135 A 
ATOM     11  C   UNL     1       6.255   0.169  25.396  0.00  0.00    +0.181 A 
ENDROOT
BRANCH  11  12
ATOM     12  C   UNL     1       5.461  -0.603  26.419  0.00  0.00    +0.025 A 
ATOM     13  C   UNL     1       5.364  -0.109  27.740  0.00  0.00    +0.015 A 
ATOM     14  C   UNL     1       4.637  -0.782  28.732  0.00  0.00    +0.050 A 
ATOM     15  C   UNL     1       3.999  -1.966  28.416  0.00  0.00    +0.158 A 
ATOM     16  C   UNL     1       4.074  -2.480  27.128  0.00  0.00    +0.159 A 
ATOM     17  C   UNL     1       4.784  -1.804  26.131  0.00  0.00    +0.060 A 
BRANCH  15  18
ATOM     18  O   UNL     1       3.289  -2.631  29.380  0.00  0.00    -0.503 OA
ATOM     19  H   UNL     1       3.944  -2.824  30.079  0.00  0.00    +0.292 HD
ENDBRANCH  15  18
BRANCH  16  20
ATOM     20  O   UNL     1       3.432  -3.664  26.882  0.00  0.00    -0.503 OA
ATOM     21  H   UNL     1       2.473  -3.505  26.910  0.00  0.00    +0.292 HD
ENDBRANCH  16  20
ENDBRANCH  11  12
BRANCH   7  22
ATOM     22  O   UNL     1       5.218   5.093  22.068  0.00  0.00    -0.507 OA
ATOM     23  H   UNL     1       5.209   5.066  21.097  0.00  0.00    +0.292 HD
ENDBRANCH   7  22
BRANCH  10  24
ATOM     24  O   UNL     1       9.133   2.471  21.895  0.00  0.00    -0.506 OA
ATOM     25  H   UNL     1       9.233   2.986  21.078  0.00  0.00    +0.292 HD
ENDBRANCH  10  24
BRANCH   1  26
ATOM     26  O   UNL     1       8.155  -1.277  25.502  0.00  0.00    -0.453 OA
BRANCH  26  29
ATOM     27  C   UNL     1       7.306  -3.794  23.015  0.00  0.00    +0.261 C 
ATOM     28  O   UNL     1       7.088  -2.773  24.000  0.00  0.00    -0.322 OA
ATOM     29  C   UNL     1       8.321  -2.412  24.647  0.00  0.00    +0.340 C 
ATOM     30  C   UNL     1       8.728  -3.606  25.523  0.00  0.00    +0.214 C 
ATOM     31  C   UNL     1       9.009  -4.797  24.601  0.00  0.00    +0.180 C 
ATOM     32  C   UNL     1       7.803  -5.091  23.689  0.00  0.00    +0.185 C 
BRANCH  27  33
ATOM     33  C   UNL     1       6.028  -4.115  22.231  0.00  0.00    +0.339 C 
ATOM     34  O   UNL     1       6.007  -4.714  21.159  0.00  0.00    -0.248 OA
BRANCH  33  36
ATOM     35  C   UNL     1       4.064  -4.594  23.409  0.00  0.00    +0.280 C 
ATOM     36  O   UNL     1       4.924  -3.602  22.843  0.00  0.00    -0.466 OA
ENDBRANCH  33  36
ENDBRANCH  27  33
BRANCH  30  37
ATOM     37  O   UNL     1       7.662  -3.969  26.434  0.00  0.00    -0.383 OA
ATOM     38  H   UNL     1       7.598  -3.238  27.081  0.00  0.00    +0.210 HD
ENDBRANCH  30  37
BRANCH  31  39
ATOM     39  O   UNL     1       9.321  -5.942  25.406  0.00  0.00    -0.386 OA
ATOM     40  H   UNL     1      10.280  -5.897  25.584  0.00  0.00    +0.210 HD
ENDBRANCH  31  39
BRANCH  32  41
ATOM     41  O   UNL     1       8.188  -6.056  22.702  0.00  0.00    -0.386 OA
ATOM     42  H   UNL     1       8.988  -6.502  23.048  0.00  0.00    +0.210 HD
ENDBRANCH  32  41
ENDBRANCH  26  29
ENDBRANCH   1  26
TORSDOF 12
ENDMDL
MODEL 6
REMARK VINA RESULT:      -6.3      1.808      6.655
REMARK  Name = 
REMARK  13 active torsions:
REMARK  status: ('A' for Active; 'I' for Inactive)
REMARK    1  A    between atoms: C_1  and  O_2
REMARK    2  A    between atoms: O_2  and  C_3
REMARK    3  A    between atoms: C_3  and  C_5
REMARK    4  A    between atoms: C_7  and  O_38
REMARK    5  A    between atoms: C_9  and  O_37
REMARK    6  A    between atoms: C_10  and  O_36
REMARK    7  A    between atoms: C_11  and  O_14
REMARK    8  A    between atoms: O_14  and  C_15
REMARK    9  A    between atoms: C_16  and  C_28
REMARK   10  A    between atoms: C_20  and  O_27
REMARK   11  A    between atoms: C_22  and  O_26
REMARK   12  A    between atoms: C_30  and  O_35
REMARK   13  A    between atoms: C_31  and  O_34
REMARK                            x       y       z     vdW  Elec       q    Type
REMARK                         _______ _______ _______ _____ _____    ______ ____
ROOT
ATOM      1  C   UNL     1       8.067  -2.200  25.214  0.00  0.00    +0.214 A 
ATOM      2  C   UNL     1       7.498  -3.573  25.429  0.00  0.00    +0.238 A 
ATOM      3  O   UNL     1       7.634  -4.179  26.487  0.00  0.00    -0.283 OA
ATOM      4  C   UNL     1       6.860  -4.235  24.286  0.00  0.00    +0.109 A 
ATOM      5  C   UNL     1       7.049  -3.672  23.030  0.00  0.00    +0.147 A 
ATOM      6  C   UNL     1       6.571  -4.328  21.891  0.00  0.00    +0.092 A 
ATOM      7  C   UNL     1       5.899  -5.541  22.032  0.00  0.00    +0.124 A 
ATOM      8  C   UNL     1       5.677  -6.098  23.285  0.00  0.00    +0.091 A 
ATOM      9  O   UNL     1       7.717  -2.490  22.838  0.00  0.00    -0.451 OA
ATOM     10  C   UNL     1       6.150  -5.439  24.416  0.00  0.00    +0.135 A 
ATOM     11  C   UNL     1       8.161  -1.759  23.939  0.00  0.00    +0.181 A 
ENDROOT
BRANCH  11  12
ATOM     12  C   UNL     1       8.820  -0.466  23.532  0.00  0.00    +0.025 A 
ATOM     13  C   UNL     1      10.086  -0.133  24.068  0.00  0.00    +0.015 A 
ATOM     14  C   UNL     1      10.748   1.055  23.724  0.00  0.00    +0.050 A 
ATOM     15  C   UNL     1      10.148   1.931  22.840  0.00  0.00    +0.158 A 
ATOM     16  C   UNL     1       8.905   1.634  22.296  0.00  0.00    +0.159 A 
ATOM     17  C   UNL     1       8.249   0.444  22.623  0.00  0.00    +0.060 A 
BRANCH  15  18
ATOM     18  O   UNL     1      10.787   3.093  22.501  0.00  0.00    -0.503 OA
ATOM     19  H   UNL     1      10.083   3.662  22.132  0.00  0.00    +0.292 HD
ENDBRANCH  15  18
BRANCH  16  20
ATOM     20  O   UNL     1       8.357   2.550  21.437  0.00  0.00    -0.503 OA
ATOM     21  H   UNL     1       8.462   2.219  20.528  0.00  0.00    +0.292 HD
ENDBRANCH  16  20
ENDBRANCH  11  12
BRANCH   7  22
ATOM     22  O   UNL     1       5.429  -6.237  20.958  0.00  0.00    -0.507 OA
ATOM     23  H   UNL     1       5.560  -7.187  21.112  0.00  0.00    +0.292 HD
ENDBRANCH   7  22
BRANCH  10  24
ATOM     24  O   UNL     1       5.899  -5.981  25.643  0.00  0.00    -0.506 OA
ATOM     25  H   UNL     1       5.561  -5.301  26.248  0.00  0.00    +0.292 HD
ENDBRANCH  10  24
BRANCH   1  26
ATOM     26  O   UNL     1       8.547  -1.441  26.275  0.00  0.00    -0.453 OA
BRANCH  26  29
ATOM     27  C   UNL     1       5.325  -0.453  27.649  0.00  0.00    +0.261 C 
ATOM     28  O   UNL     1       6.276  -0.861  26.655  0.00  0.00    -0.322 OA
ATOM     29  C   UNL     1       7.611  -0.869  27.194  0.00  0.00    +0.340 C 
ATOM     30  C   UNL     1       8.006   0.597  27.419  0.00  0.00    +0.214 C 
ATOM     31  C   UNL     1       7.071   1.184  28.481  0.00  0.00    +0.180 C 
ATOM     32  C   UNL     1       5.594   1.004  28.082  0.00  0.00    +0.185 C 
BRANCH  27  33
ATOM     33  C   UNL     1       3.884  -0.546  27.133  0.00  0.00    +0.339 C 
ATOM     34  O   UNL     1       3.295   0.367  26.561  0.00  0.00    -0.248 OA
BRANCH  33  36
ATOM     35  C   UNL     1       2.371  -2.205  26.472  0.00  0.00    +0.280 C 
ATOM     36  O   UNL     1       3.319  -1.748  27.440  0.00  0.00    -0.466 OA
ENDBRANCH  33  36
ENDBRANCH  27  33
BRANCH  30  37
ATOM     37  O   UNL     1       7.862   1.367  26.201  0.00  0.00    -0.383 OA
ATOM     38  H   UNL     1       8.768   1.623  25.932  0.00  0.00    +0.210 HD
ENDBRANCH  30  37
BRANCH  31  39
ATOM     39  O   UNL     1       7.379   2.574  28.651  0.00  0.00    -0.386 OA
ATOM     40  H   UNL     1       6.538   3.013  28.882  0.00  0.00    +0.210 HD
ENDBRANCH  31  39
BRANCH  32  41
ATOM     41  O   UNL     1       4.762   1.361  29.193  0.00  0.00    -0.386 OA
ATOM     42  H   UNL     1       4.731   0.576  29.778  0.00  0.00    +0.210 HD
ENDBRANCH  32  41
ENDBRANCH  26  29
ENDBRANCH   1  26
TORSDOF 12
ENDMDL
MODEL 7
REMARK VINA RESULT:      -6.2      2.187      7.596
REMARK  Name = 
REMARK  13 active torsions:
REMARK  status: ('A' for Active; 'I' for Inactive)
REMARK    1  A    between atoms: C_1  and  O_2
REMARK    2  A    between atoms: O_2  and  C_3
REMARK    3  A    between atoms: C_3  and  C_5
REMARK    4  A    between atoms: C_7  and  O_38
REMARK    5  A    between atoms: C_9  and  O_37
REMARK    6  A    between atoms: C_10  and  O_36
REMARK    7  A    between atoms: C_11  and  O_14
REMARK    8  A    between atoms: O_14  and  C_15
REMARK    9  A    between atoms: C_16  and  C_28
REMARK   10  A    between atoms: C_20  and  O_27
REMARK   11  A    between atoms: C_22  and  O_26
REMARK   12  A    between atoms: C_30  and  O_35
REMARK   13  A    between atoms: C_31  and  O_34
REMARK                            x       y       z     vdW  Elec       q    Type
REMARK                         _______ _______ _______ _____ _____    ______ ____
ROOT
ATOM      1  C   UNL     1       7.231  -2.913  25.817  0.00  0.00    +0.214 A 
ATOM      2  C   UNL     1       6.683  -4.054  26.625  0.00  0.00    +0.238 A 
ATOM      3  O   UNL     1       7.018  -4.250  27.789  0.00  0.00    -0.283 OA
ATOM      4  C   UNL     1       5.807  -5.014  25.945  0.00  0.00    +0.109 A 
ATOM      5  C   UNL     1       5.750  -4.961  24.558  0.00  0.00    +0.147 A 
ATOM      6  C   UNL     1       5.031  -5.931  23.852  0.00  0.00    +0.092 A 
ATOM      7  C   UNL     1       4.371  -6.939  24.551  0.00  0.00    +0.124 A 
ATOM      8  C   UNL     1       4.396  -6.985  25.940  0.00  0.00    +0.091 A 
ATOM      9  O   UNL     1       6.395  -4.000  23.824  0.00  0.00    -0.451 OA
ATOM     10  C   UNL     1       5.109  -6.015  26.639  0.00  0.00    +0.135 A 
ATOM     11  C   UNL     1       7.073  -2.971  24.474  0.00  0.00    +0.181 A 
ENDROOT
BRANCH  11  12
ATOM     12  C   UNL     1       7.668  -1.982  23.505  0.00  0.00    +0.025 A 
ATOM     13  C   UNL     1       6.909  -0.856  23.107  0.00  0.00    +0.015 A 
ATOM     14  C   UNL     1       7.412   0.098  22.211  0.00  0.00    +0.050 A 
ATOM     15  C   UNL     1       8.684  -0.063  21.695  0.00  0.00    +0.158 A 
ATOM     16  C   UNL     1       9.455  -1.157  22.065  0.00  0.00    +0.159 A 
ATOM     17  C   UNL     1       8.965  -2.103  22.971  0.00  0.00    +0.060 A 
BRANCH  15  18
ATOM     18  O   UNL     1       9.181   0.863  20.818  0.00  0.00    -0.503 OA
ATOM     19  H   UNL     1       9.489   0.338  20.054  0.00  0.00    +0.292 HD
ENDBRANCH  15  18
BRANCH  16  20
ATOM     20  O   UNL     1      10.702  -1.268  21.508  0.00  0.00    -0.503 OA
ATOM     21  H   UNL     1      10.611  -1.683  20.633  0.00  0.00    +0.292 HD
ENDBRANCH  16  20
ENDBRANCH  11  12
BRANCH   7  22
ATOM     22  O   UNL     1       3.673  -7.923  23.917  0.00  0.00    -0.507 OA
ATOM     23  H   UNL     1       3.281  -8.514  24.581  0.00  0.00    +0.292 HD
ENDBRANCH   7  22
BRANCH  10  24
ATOM     24  O   UNL     1       5.100  -6.052  28.004  0.00  0.00    -0.506 OA
ATOM     25  H   UNL     1       4.485  -5.389  28.354  0.00  0.00    +0.292 HD
ENDBRANCH  10  24
BRANCH   1  26
ATOM     26  O   UNL     1       7.938  -1.875  26.414  0.00  0.00    -0.453 OA
BRANCH  26  29
ATOM     27  C   UNL     1       7.666   1.643  25.524  0.00  0.00    +0.261 C 
ATOM     28  O   UNL     1       8.294   0.368  25.724  0.00  0.00    -0.322 OA
ATOM     29  C   UNL     1       7.394  -0.553  26.367  0.00  0.00    +0.340 C 
ATOM     30  C   UNL     1       7.218  -0.063  27.812  0.00  0.00    +0.214 C 
ATOM     31  C   UNL     1       6.540   1.309  27.769  0.00  0.00    +0.180 C 
ATOM     32  C   UNL     1       7.328   2.292  26.884  0.00  0.00    +0.185 C 
BRANCH  27  33
ATOM     33  C   UNL     1       8.564   2.605  24.738  0.00  0.00    +0.339 C 
ATOM     34  O   UNL     1       8.225   3.729  24.379  0.00  0.00    -0.248 OA
BRANCH  33  36
ATOM     35  C   UNL     1      10.548   2.794  23.512  0.00  0.00    +0.280 C 
ATOM     36  O   UNL     1       9.765   2.035  24.437  0.00  0.00    -0.466 OA
ENDBRANCH  33  36
ENDBRANCH  27  33
BRANCH  30  37
ATOM     37  O   UNL     1       8.500   0.075  28.473  0.00  0.00    -0.383 OA
ATOM     38  H   UNL     1       8.754   1.016  28.378  0.00  0.00    +0.210 HD
ENDBRANCH  30  37
BRANCH  31  39
ATOM     39  O   UNL     1       6.433   1.815  29.108  0.00  0.00    -0.386 OA
ATOM     40  H   UNL     1       6.682   2.758  29.063  0.00  0.00    +0.210 HD
ENDBRANCH  31  39
BRANCH  32  41
ATOM     41  O   UNL     1       6.549   3.480  26.694  0.00  0.00    -0.386 OA
ATOM     42  H   UNL     1       5.627   3.185  26.548  0.00  0.00    +0.210 HD
ENDBRANCH  32  41
ENDBRANCH  26  29
ENDBRANCH   1  26
TORSDOF 12
ENDMDL
MODEL 8
REMARK VINA RESULT:      -6.1      1.493      3.308
REMARK  Name = 
REMARK  13 active torsions:
REMARK  status: ('A' for Active; 'I' for Inactive)
REMARK    1  A    between atoms: C_1  and  O_2
REMARK    2  A    between atoms: O_2  and  C_3
REMARK    3  A    between atoms: C_3  and  C_5
REMARK    4  A    between atoms: C_7  and  O_38
REMARK    5  A    between atoms: C_9  and  O_37
REMARK    6  A    between atoms: C_10  and  O_36
REMARK    7  A    between atoms: C_11  and  O_14
REMARK    8  A    between atoms: O_14  and  C_15
REMARK    9  A    between atoms: C_16  and  C_28
REMARK   10  A    between atoms: C_20  and  O_27
REMARK   11  A    between atoms: C_22  and  O_26
REMARK   12  A    between atoms: C_30  and  O_35
REMARK   13  A    between atoms: C_31  and  O_34
REMARK                            x       y       z     vdW  Elec       q    Type
REMARK                         _______ _______ _______ _____ _____    ______ ____
ROOT
ATOM      1  C   UNL     1       7.765  -1.886  25.942  0.00  0.00    +0.214 A 
ATOM      2  C   UNL     1       8.792  -1.932  24.847  0.00  0.00    +0.238 A 
ATOM      3  O   UNL     1       9.729  -2.723  24.863  0.00  0.00    -0.283 OA
ATOM      4  C   UNL     1       8.713  -0.915  23.794  0.00  0.00    +0.109 A 
ATOM      5  C   UNL     1       7.870   0.169  24.008  0.00  0.00    +0.147 A 
ATOM      6  C   UNL     1       7.850   1.230  23.097  0.00  0.00    +0.092 A 
ATOM      7  C   UNL     1       8.675   1.183  21.974  0.00  0.00    +0.124 A 
ATOM      8  C   UNL     1       9.500   0.092  21.734  0.00  0.00    +0.091 A 
ATOM      9  O   UNL     1       7.052   0.269  25.104  0.00  0.00    -0.451 OA
ATOM     10  C   UNL     1       9.513  -0.964  22.641  0.00  0.00    +0.135 A 
ATOM     11  C   UNL     1       6.982  -0.785  26.013  0.00  0.00    +0.181 A 
ENDROOT
BRANCH  11  12
ATOM     12  C   UNL     1       5.991  -0.517  27.117  0.00  0.00    +0.025 A 
ATOM     13  C   UNL     1       4.680  -1.038  27.017  0.00  0.00    +0.015 A 
ATOM     14  C   UNL     1       3.718  -0.824  28.014  0.00  0.00    +0.050 A 
ATOM     15  C   UNL     1       4.054  -0.078  29.127  0.00  0.00    +0.158 A 
ATOM     16  C   UNL     1       5.332   0.449  29.257  0.00  0.00    +0.159 A 
ATOM     17  C   UNL     1       6.300   0.224  28.274  0.00  0.00    +0.060 A 
BRANCH  15  18
ATOM     18  O   UNL     1       3.119   0.138  30.104  0.00  0.00    -0.503 OA
ATOM     19  H   UNL     1       3.012   1.109  30.132  0.00  0.00    +0.292 HD
ENDBRANCH  15  18
BRANCH  16  20
ATOM     20  O   UNL     1       5.598   1.191  30.378  0.00  0.00    -0.503 OA
ATOM     21  H   UNL     1       6.471   1.607  30.270  0.00  0.00    +0.292 HD
ENDBRANCH  16  20
ENDBRANCH  11  12
BRANCH   7  22
ATOM     22  O   UNL     1       8.715   2.196  21.063  0.00  0.00    -0.507 OA
ATOM     23  H   UNL     1       8.285   2.981  21.441  0.00  0.00    +0.292 HD
ENDBRANCH   7  22
BRANCH  10  24
ATOM     24  O   UNL     1      10.304  -2.045  22.377  0.00  0.00    -0.506 OA
ATOM     25  H   UNL     1       9.926  -2.844  22.777  0.00  0.00    +0.292 HD
ENDBRANCH  10  24
BRANCH   1  26
ATOM     26  O   UNL     1       7.670  -2.900  26.889  0.00  0.00    -0.453 OA
BRANCH  26  29
ATOM     27  C   UNL     1       5.558  -5.732  27.763  0.00  0.00    +0.261 C 
ATOM     28  O   UNL     1       6.727  -4.900  27.754  0.00  0.00    -0.322 OA
ATOM     29  C   UNL     1       6.595  -3.840  26.789  0.00  0.00    +0.340 C 
ATOM     30  C   UNL     1       6.669  -4.493  25.401  0.00  0.00    +0.214 C 
ATOM     31  C   UNL     1       5.461  -5.423  25.250  0.00  0.00    +0.180 C 
ATOM     32  C   UNL     1       5.396  -6.443  26.402  0.00  0.00    +0.185 C 
BRANCH  27  33
ATOM     33  C   UNL     1       5.626  -6.800  28.862  0.00  0.00    +0.339 C 
ATOM     34  O   UNL     1       6.669  -7.290  29.285  0.00  0.00    -0.248 OA
BRANCH  33  36
ATOM     35  C   UNL     1       3.958  -6.557  30.485  0.00  0.00    +0.280 C 
ATOM     36  O   UNL     1       4.381  -7.178  29.269  0.00  0.00    -0.466 OA
ENDBRANCH  33  36
ENDBRANCH  27  33
BRANCH  30  37
ATOM     37  O   UNL     1       7.877  -5.279  25.260  0.00  0.00    -0.383 OA
ATOM     38  H   UNL     1       7.621  -6.083  24.762  0.00  0.00    +0.210 HD
ENDBRANCH  30  37
BRANCH  31  39
ATOM     39  O   UNL     1       5.551  -6.097  23.987  0.00  0.00    -0.386 OA
ATOM     40  H   UNL     1       5.617  -5.398  23.309  0.00  0.00    +0.210 HD
ENDBRANCH  31  39
BRANCH  32  41
ATOM     41  O   UNL     1       4.144  -7.138  26.343  0.00  0.00    -0.386 OA
ATOM     42  H   UNL     1       4.165  -7.806  27.058  0.00  0.00    +0.210 HD
ENDBRANCH  32  41
ENDBRANCH  26  29
ENDBRANCH   1  26
TORSDOF 12
ENDMDL
MODEL 9
REMARK VINA RESULT:      -6.1      1.813      7.200
REMARK  Name = 
REMARK  13 active torsions:
REMARK  status: ('A' for Active; 'I' for Inactive)
REMARK    1  A    between atoms: C_1  and  O_2
REMARK    2  A    between atoms: O_2  and  C_3
REMARK    3  A    between atoms: C_3  and  C_5
REMARK    4  A    between atoms: C_7  and  O_38
REMARK    5  A    between atoms: C_9  and  O_37
REMARK    6  A    between atoms: C_10  and  O_36
REMARK    7  A    between atoms: C_11  and  O_14
REMARK    8  A    between atoms: O_14  and  C_15
REMARK    9  A    between atoms: C_16  and  C_28
REMARK   10  A    between atoms: C_20  and  O_27
REMARK   11  A    between atoms: C_22  and  O_26
REMARK   12  A    between atoms: C_30  and  O_35
REMARK   13  A    between atoms: C_31  and  O_34
REMARK                            x       y       z     vdW  Elec       q    Type
REMARK                         _______ _______ _______ _____ _____    ______ ____
ROOT
ATOM      1  C   UNL     1       6.850  -1.420  25.984  0.00  0.00    +0.214 A 
ATOM      2  C   UNL     1       6.735  -0.421  27.100  0.00  0.00    +0.238 A 
ATOM      3  O   UNL     1       7.715  -0.014  27.716  0.00  0.00    -0.283 OA
ATOM      4  C   UNL     1       5.389  -0.020  27.521  0.00  0.00    +0.109 A 
ATOM      5  C   UNL     1       4.318  -0.770  27.051  0.00  0.00    +0.147 A 
ATOM      6  C   UNL     1       3.025  -0.512  27.519  0.00  0.00    +0.092 A 
ATOM      7  C   UNL     1       2.825   0.506  28.450  0.00  0.00    +0.124 A 
ATOM      8  C   UNL     1       3.884   1.282  28.905  0.00  0.00    +0.091 A 
ATOM      9  O   UNL     1       4.465  -1.791  26.148  0.00  0.00    -0.451 OA
ATOM     10  C   UNL     1       5.167   1.025  28.432  0.00  0.00    +0.135 A 
ATOM     11  C   UNL     1       5.719  -2.054  25.599  0.00  0.00    +0.181 A 
ENDROOT
BRANCH  11  12
ATOM     12  C   UNL     1       5.672  -3.171  24.587  0.00  0.00    +0.025 A 
ATOM     13  C   UNL     1       5.669  -4.513  25.034  0.00  0.00    +0.015 A 
ATOM     14  C   UNL     1       5.624  -5.592  24.139  0.00  0.00    +0.050 A 
ATOM     15  C   UNL     1       5.585  -5.342  22.781  0.00  0.00    +0.158 A 
ATOM     16  C   UNL     1       5.587  -4.036  22.309  0.00  0.00    +0.159 A 
ATOM     17  C   UNL     1       5.616  -2.957  23.197  0.00  0.00    +0.060 A 
BRANCH  15  18
ATOM     18  O   UNL     1       5.543  -6.391  21.901  0.00  0.00    -0.503 OA
ATOM     19  H   UNL     1       5.350  -5.979  21.037  0.00  0.00    +0.292 HD
ENDBRANCH  15  18
BRANCH  16  20
ATOM     20  O   UNL     1       5.563  -3.856  20.951  0.00  0.00    -0.503 OA
ATOM     21  H   UNL     1       5.319  -2.932  20.769  0.00  0.00    +0.292 HD
ENDBRANCH  16  20
ENDBRANCH  11  12
BRANCH   7  22
ATOM     22  O   UNL     1       1.593   0.790  28.958  0.00  0.00    -0.507 OA
ATOM     23  H   UNL     1       1.513   1.750  29.082  0.00  0.00    +0.292 HD
ENDBRANCH   7  22
BRANCH  10  24
ATOM     24  O   UNL     1       6.194   1.815  28.862  0.00  0.00    -0.506 OA
ATOM     25  H   UNL     1       6.966   1.708  28.283  0.00  0.00    +0.292 HD
ENDBRANCH  10  24
BRANCH   1  26
ATOM     26  O   UNL     1       8.080  -1.736  25.419  0.00  0.00    -0.453 OA
BRANCH  26  29
ATOM     27  C   UNL     1       8.437   1.177  23.266  0.00  0.00    +0.261 C 
ATOM     28  O   UNL     1       7.772   0.108  23.956  0.00  0.00    -0.322 OA
ATOM     29  C   UNL     1       8.725  -0.770  24.582  0.00  0.00    +0.340 C 
ATOM     30  C   UNL     1       9.439  -1.526  23.452  0.00  0.00    +0.214 C 
ATOM     31  C   UNL     1      10.216  -0.506  22.615  0.00  0.00    +0.180 C 
ATOM     32  C   UNL     1       9.292   0.617  22.109  0.00  0.00    +0.185 C 
BRANCH  27  33
ATOM     33  C   UNL     1       7.441   2.190  22.687  0.00  0.00    +0.339 C 
ATOM     34  O   UNL     1       6.319   1.900  22.280  0.00  0.00    -0.248 OA
BRANCH  33  36
ATOM     35  C   UNL     1       8.585   3.868  23.849  0.00  0.00    +0.280 C 
ATOM     36  O   UNL     1       7.979   3.441  22.627  0.00  0.00    -0.466 OA
ENDBRANCH  33  36
ENDBRANCH  27  33
BRANCH  30  37
ATOM     37  O   UNL     1       8.486  -2.198  22.594  0.00  0.00    -0.383 OA
ATOM     38  H   UNL     1       7.729  -2.441  23.166  0.00  0.00    +0.210 HD
ENDBRANCH  30  37
BRANCH  31  39
ATOM     39  O   UNL     1      10.831  -1.185  21.512  0.00  0.00    -0.386 OA
ATOM     40  H   UNL     1      11.711  -1.470  21.824  0.00  0.00    +0.210 HD
ENDBRANCH  31  39
BRANCH  32  41
ATOM     41  O   UNL     1      10.091   1.654  21.526  0.00  0.00    -0.386 OA
ATOM     42  H   UNL     1      10.854   1.210  21.103  0.00  0.00    +0.210 HD
ENDBRANCH  32  41
ENDBRANCH  26  29
ENDBRANCH   1  26
TORSDOF 12
ENDMDL
