MODEL 1
REMARK VINA RESULT:      -7.4      0.000      0.000
REMARK  Name = 
REMARK  12 active torsions:
REMARK  status: ('A' for Active; 'I' for Inactive)
REMARK    1  A    between atoms: C_3  and  O_39
REMARK    2  A    between atoms: C_4  and  O_38
REMARK    3  A    between atoms: C_6  and  C_7
REMARK    4  A    between atoms: C_8  and  O_37
REMARK    5  A    between atoms: C_12  and  O_36
REMARK    6  A    between atoms: C_14  and  O_18
REMARK    7  A    between atoms: O_18  and  C_19
REMARK    8  A    between atoms: C_21  and  O_35
REMARK    9  A    between atoms: C_23  and  O_34
REMARK   10  A    between atoms: C_25  and  O_33
REMARK   11  A    between atoms: C_27  and  C_30
REMARK   12  A    between atoms: C_30  and  O_32
REMARK                            x       y       z     vdW  Elec       q    Type
REMARK                         _______ _______ _______ _____ _____    ______ ____
ROOT
ATOM      1  C   UNL     1       7.009  -4.059  24.282  0.00  0.00    +0.181 A 
ATOM      2  O   UNL     1       6.373  -2.813  24.111  0.00  0.00    -0.451 OA
ATOM      3  C   UNL     1       7.142  -1.706  23.788  0.00  0.00    +0.147 A 
ATOM      4  C   UNL     1       8.530  -1.771  23.758  0.00  0.00    +0.109 A 
ATOM      5  C   UNL     1       9.287  -0.628  23.508  0.00  0.00    +0.135 A 
ATOM      6  C   UNL     1       8.663   0.579  23.258  0.00  0.00    +0.092 A 
ATOM      7  C   UNL     1       7.272   0.645  23.116  0.00  0.00    +0.131 A 
ATOM      8  C   UNL     1       9.195  -3.056  23.933  0.00  0.00    +0.238 A 
ATOM      9  O   UNL     1      10.422  -3.131  23.860  0.00  0.00    -0.283 OA
ATOM     10  C   UNL     1       6.504  -0.490  23.453  0.00  0.00    +0.093 A 
ATOM     11  C   UNL     1       8.341  -4.239  24.137  0.00  0.00    +0.208 A 
ENDROOT
BRANCH   1  13
ATOM     12  C   UNL     1       5.229  -5.749  23.605  0.00  0.00    +0.015 A 
ATOM     13  C   UNL     1       6.095  -5.206  24.588  0.00  0.00    +0.025 A 
ATOM     14  C   UNL     1       6.037  -5.762  25.873  0.00  0.00    +0.060 A 
ATOM     15  C   UNL     1       5.084  -6.736  26.168  0.00  0.00    +0.159 A 
ATOM     16  C   UNL     1       4.175  -7.178  25.211  0.00  0.00    +0.158 A 
ATOM     17  C   UNL     1       4.248  -6.698  23.917  0.00  0.00    +0.050 A 
BRANCH  15  18
ATOM     18  O   UNL     1       5.028  -7.250  27.434  0.00  0.00    -0.503 OA
ATOM     19  H   UNL     1       4.316  -6.744  27.875  0.00  0.00    +0.292 HD
ENDBRANCH  15  18
BRANCH  16  20
ATOM     20  O   UNL     1       3.225  -8.083  25.596  0.00  0.00    -0.503 OA
ATOM     21  H   UNL     1       3.552  -8.978  25.393  0.00  0.00    +0.292 HD
ENDBRANCH  16  20
ENDBRANCH   1  13
BRANCH   5  22
ATOM     22  O   UNL     1      10.653  -0.623  23.439  0.00  0.00    -0.506 OA
ATOM     23  H   UNL     1      10.913  -0.406  22.514  0.00  0.00    +0.292 HD
ENDBRANCH   5  22
BRANCH  11  24
ATOM     24  O   UNL     1       8.998  -5.456  24.137  0.00  0.00    -0.501 OA
ATOM     25  H   UNL     1       8.853  -5.880  23.275  0.00  0.00    +0.292 HD
ENDBRANCH  11  24
BRANCH   7  26
ATOM     26  O   UNL     1       6.626   1.768  22.611  0.00  0.00    -0.461 OA
BRANCH  26  27
ATOM     27  C   UNL     1       7.034   3.015  23.233  0.00  0.00    +0.340 C 
ATOM     28  O   UNL     1       6.541   3.079  24.574  0.00  0.00    -0.322 OA
ATOM     29  C   UNL     1       5.438   3.939  24.862  0.00  0.00    +0.261 C 
ATOM     30  C   UNL     1       5.567   5.313  24.208  0.00  0.00    +0.185 C 
ATOM     31  C   UNL     1       5.700   5.183  22.687  0.00  0.00    +0.180 C 
ATOM     32  C   UNL     1       6.865   4.263  22.323  0.00  0.00    +0.214 C 
BRANCH  29  33
ATOM     33  C   UNL     1       4.077   3.290  24.604  0.00  0.00    +0.337 C 
ATOM     34  O   UNL     1       3.009   3.888  24.544  0.00  0.00    -0.248 OA
BRANCH  33  35
ATOM     35  O   UNL     1       4.166   1.946  24.468  0.00  0.00    -0.479 OA
ATOM     36  H   UNL     1       5.103   1.650  24.507  0.00  0.00    +0.295 HD
ENDBRANCH  33  35
ENDBRANCH  29  33
BRANCH  30  37
ATOM     37  O   UNL     1       6.759   5.944  24.727  0.00  0.00    -0.386 OA
ATOM     38  H   UNL     1       7.260   5.261  25.214  0.00  0.00    +0.210 HD
ENDBRANCH  30  37
BRANCH  31  39
ATOM     39  O   UNL     1       4.480   4.820  22.059  0.00  0.00    -0.386 OA
ATOM     40  H   UNL     1       4.455   3.870  21.836  0.00  0.00    +0.210 HD
ENDBRANCH  31  39
BRANCH  32  41
ATOM     41  O   UNL     1       8.072   5.064  22.450  0.00  0.00    -0.383 OA
ATOM     42  H   UNL     1       7.834   5.979  22.184  0.00  0.00    +0.210 HD
ENDBRANCH  32  41
ENDBRANCH  26  27
ENDBRANCH   7  26
TORSDOF 12
ENDMDL
MODEL 2
REMARK VINA RESULT:      -7.2      1.432      1.964
REMARK  Name = 
REMARK  12 active torsions:
REMARK  status: ('A' for Active; 'I' for Inactive)
REMARK    1  A    between atoms: C_3  and  O_39
REMARK    2  A    between atoms: C_4  and  O_38
REMARK    3  A    between atoms: C_6  and  C_7
REMARK    4  A    between atoms: C_8  and  O_37
REMARK    5  A    between atoms: C_12  and  O_36
REMARK    6  A    between atoms: C_14  and  O_18
REMARK    7  A    between atoms: O_18  and  C_19
REMARK    8  A    between atoms: C_21  and  O_35
REMARK    9  A    between atoms: C_23  and  O_34
REMARK   10  A    between atoms: C_25  and  O_33
REMARK   11  A    between atoms: C_27  and  C_30
REMARK   12  A    between atoms: C_30  and  O_32
REMARK                            x       y       z     vdW  Elec       q    Type
REMARK                         _______ _______ _______ _____ _____    ______ ____
ROOT
ATOM      1  C   UNL     1       6.882  -3.828  24.790  0.00  0.00    +0.181 A 
ATOM      2  O   UNL     1       6.437  -2.540  25.149  0.00  0.00    -0.451 OA
ATOM      3  C   UNL     1       7.306  -1.468  25.015  0.00  0.00    +0.147 A 
ATOM      4  C   UNL     1       8.637  -1.654  24.661  0.00  0.00    +0.109 A 
ATOM      5  C   UNL     1       9.512  -0.572  24.608  0.00  0.00    +0.135 A 
ATOM      6  C   UNL     1       9.057   0.706  24.879  0.00  0.00    +0.092 A 
ATOM      7  C   UNL     1       7.693   0.949  25.074  0.00  0.00    +0.131 A 
ATOM      8  C   UNL     1       9.105  -2.982  24.288  0.00  0.00    +0.238 A 
ATOM      9  O   UNL     1      10.270  -3.148  23.927  0.00  0.00    -0.283 OA
ATOM     10  C   UNL     1       6.823  -0.154  25.212  0.00  0.00    +0.093 A 
ATOM     11  C   UNL     1       8.120  -4.078  24.308  0.00  0.00    +0.208 A 
ENDROOT
BRANCH   1  13
ATOM     12  C   UNL     1       5.701  -5.632  26.143  0.00  0.00    +0.015 A 
ATOM     13  C   UNL     1       5.864  -4.918  24.928  0.00  0.00    +0.025 A 
ATOM     14  C   UNL     1       5.058  -5.299  23.847  0.00  0.00    +0.060 A 
ATOM     15  C   UNL     1       4.216  -6.403  23.959  0.00  0.00    +0.159 A 
ATOM     16  C   UNL     1       4.151  -7.152  25.131  0.00  0.00    +0.158 A 
ATOM     17  C   UNL     1       4.883  -6.765  26.238  0.00  0.00    +0.050 A 
BRANCH  15  18
ATOM     18  O   UNL     1       3.455  -6.773  22.886  0.00  0.00    -0.503 OA
ATOM     19  H   UNL     1       2.896  -7.504  23.218  0.00  0.00    +0.292 HD
ENDBRANCH  15  18
BRANCH  16  20
ATOM     20  O   UNL     1       3.355  -8.264  25.141  0.00  0.00    -0.503 OA
ATOM     21  H   UNL     1       3.464  -8.728  24.292  0.00  0.00    +0.292 HD
ENDBRANCH  16  20
ENDBRANCH   1  13
BRANCH   5  22
ATOM     22  O   UNL     1      10.827  -0.676  24.245  0.00  0.00    -0.506 OA
ATOM     23  H   UNL     1      10.935  -0.256  23.360  0.00  0.00    +0.292 HD
ENDBRANCH   5  22
BRANCH  11  24
ATOM     24  O   UNL     1       8.560  -5.284  23.794  0.00  0.00    -0.501 OA
ATOM     25  H   UNL     1       9.298  -5.597  24.342  0.00  0.00    +0.292 HD
ENDBRANCH  11  24
BRANCH   7  26
ATOM     26  O   UNL     1       7.158   2.232  25.088  0.00  0.00    -0.461 OA
BRANCH  26  27
ATOM     27  C   UNL     1       7.963   3.216  24.387  0.00  0.00    +0.340 C 
ATOM     28  O   UNL     1       7.808   4.501  24.995  0.00  0.00    -0.322 OA
ATOM     29  C   UNL     1       7.019   5.487  24.331  0.00  0.00    +0.261 C 
ATOM     30  C   UNL     1       7.303   5.568  22.832  0.00  0.00    +0.185 C 
ATOM     31  C   UNL     1       7.061   4.214  22.157  0.00  0.00    +0.180 C 
ATOM     32  C   UNL     1       7.880   3.117  22.838  0.00  0.00    +0.214 C 
BRANCH  29  33
ATOM     33  C   UNL     1       5.525   5.381  24.642  0.00  0.00    +0.337 C 
ATOM     34  O   UNL     1       4.631   5.935  24.012  0.00  0.00    -0.248 OA
BRANCH  33  35
ATOM     35  O   UNL     1       5.279   4.611  25.727  0.00  0.00    -0.479 OA
ATOM     36  H   UNL     1       4.495   4.034  25.579  0.00  0.00    +0.295 HD
ENDBRANCH  33  35
ENDBRANCH  29  33
BRANCH  30  37
ATOM     37  O   UNL     1       8.691   5.932  22.661  0.00  0.00    -0.386 OA
ATOM     38  H   UNL     1       8.710   6.824  22.262  0.00  0.00    +0.210 HD
ENDBRANCH  30  37
BRANCH  31  39
ATOM     39  O   UNL     1       5.683   3.896  22.043  0.00  0.00    -0.386 OA
ATOM     40  H   UNL     1       5.215   3.991  22.894  0.00  0.00    +0.210 HD
ENDBRANCH  31  39
BRANCH  32  41
ATOM     41  O   UNL     1       9.233   3.236  22.318  0.00  0.00    -0.383 OA
ATOM     42  H   UNL     1       9.387   4.190  22.143  0.00  0.00    +0.210 HD
ENDBRANCH  32  41
ENDBRANCH  26  27
ENDBRANCH   7  26
TORSDOF 12
ENDMDL
MODEL 3
REMARK VINA RESULT:      -7.2      2.214      8.794
REMARK  Name = 
REMARK  12 active torsions:
REMARK  status: ('A' for Active; 'I' for Inactive)
REMARK    1  A    between atoms: C_3  and  O_39
REMARK    2  A    between atoms: C_4  and  O_38
REMARK    3  A    between atoms: C_6  and  C_7
REMARK    4  A    between atoms: C_8  and  O_37
REMARK    5  A    between atoms: C_12  and  O_36
REMARK    6  A    between atoms: C_14  and  O_18
REMARK    7  A    between atoms: O_18  and  C_19
REMARK    8  A    between atoms: C_21  and  O_35
REMARK    9  A    between atoms: C_23  and  O_34
REMARK   10  A    between atoms: C_25  and  O_33
REMARK   11  A    between atoms: C_27  and  C_30
REMARK   12  A    between atoms: C_30  and  O_32
REMARK                            x       y       z     vdW  Elec       q    Type
REMARK                         _______ _______ _______ _____ _____    ______ ____
ROOT
ATOM      1  C   UNL     1       7.865  -0.652  23.136  0.00  0.00    +0.181 A 
ATOM      2  O   UNL     1       6.718  -1.333  22.682  0.00  0.00    -0.451 OA
ATOM      3  C   UNL     1       6.656  -2.710  22.820  0.00  0.00    +0.147 A 
ATOM      4  C   UNL     1       7.746  -3.443  23.272  0.00  0.00    +0.109 A 
ATOM      5  C   UNL     1       7.689  -4.834  23.330  0.00  0.00    +0.135 A 
ATOM      6  C   UNL     1       6.534  -5.499  22.963  0.00  0.00    +0.092 A 
ATOM      7  C   UNL     1       5.367  -4.787  22.663  0.00  0.00    +0.131 A 
ATOM      8  C   UNL     1       8.936  -2.748  23.745  0.00  0.00    +0.238 A 
ATOM      9  O   UNL     1       9.889  -3.387  24.193  0.00  0.00    -0.283 OA
ATOM     10  C   UNL     1       5.449  -3.385  22.523  0.00  0.00    +0.093 A 
ATOM     11  C   UNL     1       8.917  -1.275  23.714  0.00  0.00    +0.208 A 
ENDROOT
BRANCH   1  13
ATOM     12  C   UNL     1       6.643   1.515  22.596  0.00  0.00    +0.015 A 
ATOM     13  C   UNL     1       7.827   0.838  22.984  0.00  0.00    +0.025 A 
ATOM     14  C   UNL     1       8.975   1.615  23.186  0.00  0.00    +0.060 A 
ATOM     15  C   UNL     1       8.950   2.981  22.908  0.00  0.00    +0.159 A 
ATOM     16  C   UNL     1       7.801   3.604  22.427  0.00  0.00    +0.158 A 
ATOM     17  C   UNL     1       6.634   2.879  22.279  0.00  0.00    +0.050 A 
BRANCH  15  18
ATOM     18  O   UNL     1      10.086   3.719  23.089  0.00  0.00    -0.503 OA
ATOM     19  H   UNL     1      10.750   3.298  22.505  0.00  0.00    +0.292 HD
ENDBRANCH  15  18
BRANCH  16  20
ATOM     20  O   UNL     1       7.875   4.932  22.109  0.00  0.00    -0.503 OA
ATOM     21  H   UNL     1       7.382   5.437  22.781  0.00  0.00    +0.292 HD
ENDBRANCH  16  20
ENDBRANCH   1  13
BRANCH   5  22
ATOM     22  O   UNL     1       8.713  -5.618  23.787  0.00  0.00    -0.506 OA
ATOM     23  H   UNL     1       8.482  -5.927  24.693  0.00  0.00    +0.292 HD
ENDBRANCH   5  22
BRANCH  11  24
ATOM     24  O   UNL     1       9.994  -0.652  24.317  0.00  0.00    -0.501 OA
ATOM     25  H   UNL     1       9.916   0.304  24.168  0.00  0.00    +0.292 HD
ENDBRANCH  11  24
BRANCH   7  26
ATOM     26  O   UNL     1       4.126  -5.402  22.547  0.00  0.00    -0.461 OA
BRANCH  26  27
ATOM     27  C   UNL     1       3.136  -4.921  23.493  0.00  0.00    +0.340 C 
ATOM     28  O   UNL     1       3.722  -4.787  24.792  0.00  0.00    -0.322 OA
ATOM     29  C   UNL     1       3.403  -5.751  25.794  0.00  0.00    +0.261 C 
ATOM     30  C   UNL     1       1.914  -6.089  25.845  0.00  0.00    +0.185 C 
ATOM     31  C   UNL     1       1.428  -6.615  24.491  0.00  0.00    +0.180 C 
ATOM     32  C   UNL     1       1.753  -5.620  23.376  0.00  0.00    +0.214 C 
BRANCH  29  33
ATOM     33  C   UNL     1       4.288  -6.998  25.743  0.00  0.00    +0.337 C 
ATOM     34  O   UNL     1       4.514  -7.662  24.738  0.00  0.00    -0.248 OA
BRANCH  33  35
ATOM     35  O   UNL     1       4.795  -7.320  26.956  0.00  0.00    -0.479 OA
ATOM     36  H   UNL     1       5.588  -6.775  27.161  0.00  0.00    +0.295 HD
ENDBRANCH  33  35
ENDBRANCH  29  33
BRANCH  30  37
ATOM     37  O   UNL     1       1.193  -4.877  26.160  0.00  0.00    -0.386 OA
ATOM     38  H   UNL     1       0.625  -5.069  26.931  0.00  0.00    +0.210 HD
ENDBRANCH  30  37
BRANCH  31  39
ATOM     39  O   UNL     1       1.882  -7.931  24.218  0.00  0.00    -0.386 OA
ATOM     40  H   UNL     1       2.250  -8.011  23.317  0.00  0.00    +0.210 HD
ENDBRANCH  31  39
BRANCH  32  41
ATOM     41  O   UNL     1       0.733  -4.586  23.442  0.00  0.00    -0.383 OA
ATOM     42  H   UNL     1       0.957  -4.014  24.208  0.00  0.00    +0.210 HD
ENDBRANCH  32  41
ENDBRANCH  26  27
ENDBRANCH   7  26
TORSDOF 12
ENDMDL
MODEL 4
REMARK VINA RESULT:      -7.2      1.097      1.836
REMARK  Name = 
REMARK  12 active torsions:
REMARK  status: ('A' for Active; 'I' for Inactive)
REMARK    1  A    between atoms: C_3  and  O_39
REMARK    2  A    between atoms: C_4  and  O_38
REMARK    3  A    between atoms: C_6  and  C_7
REMARK    4  A    between atoms: C_8  and  O_37
REMARK    5  A    between atoms: C_12  and  O_36
REMARK    6  A    between atoms: C_14  and  O_18
REMARK    7  A    between atoms: O_18  and  C_19
REMARK    8  A    between atoms: C_21  and  O_35
REMARK    9  A    between atoms: C_23  and  O_34
REMARK   10  A    between atoms: C_25  and  O_33
REMARK   11  A    between atoms: C_27  and  C_30
REMARK   12  A    between atoms: C_30  and  O_32
REMARK                            x       y       z     vdW  Elec       q    Type
REMARK                         _______ _______ _______ _____ _____    ______ ____
ROOT
ATOM      1  C   UNL     1       6.817  -3.793  24.368  0.00  0.00    +0.181 A 
ATOM      2  O   UNL     1       6.281  -2.491  24.316  0.00  0.00    -0.451 OA
ATOM      3  C   UNL     1       7.125  -1.429  24.031  0.00  0.00    +0.147 A 
ATOM      4  C   UNL     1       8.500  -1.604  23.927  0.00  0.00    +0.109 A 
ATOM      5  C   UNL     1       9.338  -0.510  23.718  0.00  0.00    +0.135 A 
ATOM      6  C   UNL     1       8.806   0.759  23.584  0.00  0.00    +0.092 A 
ATOM      7  C   UNL     1       7.421   0.947  23.517  0.00  0.00    +0.131 A 
ATOM      8  C   UNL     1       9.062  -2.947  23.979  0.00  0.00    +0.238 A 
ATOM      9  O   UNL     1      10.274  -3.116  23.839  0.00  0.00    -0.283 OA
ATOM     10  C   UNL     1       6.576  -0.144  23.813  0.00  0.00    +0.093 A 
ATOM     11  C   UNL     1       8.121  -4.069  24.144  0.00  0.00    +0.208 A 
ENDROOT
BRANCH   1  13
ATOM     12  C   UNL     1       5.762  -5.532  25.900  0.00  0.00    +0.015 A 
ATOM     13  C   UNL     1       5.825  -4.883  24.640  0.00  0.00    +0.025 A 
ATOM     14  C   UNL     1       4.945  -5.326  23.644  0.00  0.00    +0.060 A 
ATOM     15  C   UNL     1       4.126  -6.430  23.879  0.00  0.00    +0.159 A 
ATOM     16  C   UNL     1       4.159  -7.116  25.090  0.00  0.00    +0.158 A 
ATOM     17  C   UNL     1       4.968  -6.664  26.116  0.00  0.00    +0.050 A 
BRANCH  15  18
ATOM     18  O   UNL     1       3.291  -6.862  22.887  0.00  0.00    -0.503 OA
ATOM     19  H   UNL     1       3.145  -7.810  23.081  0.00  0.00    +0.292 HD
ENDBRANCH  15  18
BRANCH  16  20
ATOM     20  O   UNL     1       3.379  -8.231  25.219  0.00  0.00    -0.503 OA
ATOM     21  H   UNL     1       3.132  -8.328  26.156  0.00  0.00    +0.292 HD
ENDBRANCH  16  20
ENDBRANCH   1  13
BRANCH   5  22
ATOM     22  O   UNL     1      10.696  -0.610  23.581  0.00  0.00    -0.506 OA
ATOM     23  H   UNL     1      10.907  -0.622  22.619  0.00  0.00    +0.292 HD
ENDBRANCH   5  22
BRANCH  11  24
ATOM     24  O   UNL     1       8.673  -5.331  24.027  0.00  0.00    -0.501 OA
ATOM     25  H   UNL     1       8.808  -5.519  23.084  0.00  0.00    +0.292 HD
ENDBRANCH  11  24
BRANCH   7  26
ATOM     26  O   UNL     1       6.850   2.151  23.124  0.00  0.00    -0.461 OA
BRANCH  26  27
ATOM     27  C   UNL     1       7.160   3.267  23.999  0.00  0.00    +0.340 C 
ATOM     28  O   UNL     1       5.953   3.836  24.516  0.00  0.00    -0.322 OA
ATOM     29  C   UNL     1       5.505   5.088  23.996  0.00  0.00    +0.261 C 
ATOM     30  C   UNL     1       6.630   6.110  23.847  0.00  0.00    +0.185 C 
ATOM     31  C   UNL     1       7.739   5.572  22.937  0.00  0.00    +0.180 C 
ATOM     32  C   UNL     1       8.251   4.225  23.446  0.00  0.00    +0.214 C 
BRANCH  29  33
ATOM     33  C   UNL     1       4.663   4.952  22.726  0.00  0.00    +0.337 C 
ATOM     34  O   UNL     1       4.166   3.909  22.316  0.00  0.00    -0.248 OA
BRANCH  33  35
ATOM     35  O   UNL     1       4.533   6.126  22.067  0.00  0.00    -0.479 OA
ATOM     36  H   UNL     1       3.590   6.302  21.845  0.00  0.00    +0.295 HD
ENDBRANCH  33  35
ENDBRANCH  29  33
BRANCH  30  37
ATOM     37  O   UNL     1       7.184   6.356  25.159  0.00  0.00    -0.386 OA
ATOM     38  H   UNL     1       6.482   6.769  25.698  0.00  0.00    +0.210 HD
ENDBRANCH  30  37
BRANCH  31  39
ATOM     39  O   UNL     1       7.362   5.549  21.569  0.00  0.00    -0.386 OA
ATOM     40  H   UNL     1       7.888   4.906  21.057  0.00  0.00    +0.210 HD
ENDBRANCH  31  39
BRANCH  32  41
ATOM     41  O   UNL     1       9.167   4.523  24.536  0.00  0.00    -0.383 OA
ATOM     42  H   UNL     1       9.622   3.682  24.761  0.00  0.00    +0.210 HD
ENDBRANCH  32  41
ENDBRANCH  26  27
ENDBRANCH   7  26
TORSDOF 12
ENDMDL
MODEL 5
REMARK VINA RESULT:      -7.2      1.032      2.423
REMARK  Name = 
REMARK  12 active torsions:
REMARK  status: ('A' for Active; 'I' for Inactive)
REMARK    1  A    between atoms: C_3  and  O_39
REMARK    2  A    between atoms: C_4  and  O_38
REMARK    3  A    between atoms: C_6  and  C_7
REMARK    4  A    between atoms: C_8  and  O_37
REMARK    5  A    between atoms: C_12  and  O_36
REMARK    6  A    between atoms: C_14  and  O_18
REMARK    7  A    between atoms: O_18  and  C_19
REMARK    8  A    between atoms: C_21  and  O_35
REMARK    9  A    between atoms: C_23  and  O_34
REMARK   10  A    between atoms: C_25  and  O_33
REMARK   11  A    between atoms: C_27  and  C_30
REMARK   12  A    between atoms: C_30  and  O_32
REMARK                            x       y       z     vdW  Elec       q    Type
REMARK                         _______ _______ _______ _____ _____    ______ ____
ROOT
ATOM      1  C   UNL     1       6.992  -4.010  24.833  0.00  0.00    +0.181 A 
ATOM      2  O   UNL     1       6.448  -2.776  25.242  0.00  0.00    -0.451 OA
ATOM      3  C   UNL     1       7.208  -1.627  25.097  0.00  0.00    +0.147 A 
ATOM      4  C   UNL     1       8.534  -1.682  24.683  0.00  0.00    +0.109 A 
ATOM      5  C   UNL     1       9.304  -0.522  24.620  0.00  0.00    +0.135 A 
ATOM      6  C   UNL     1       8.747   0.702  24.941  0.00  0.00    +0.092 A 
ATOM      7  C   UNL     1       7.376   0.814  25.200  0.00  0.00    +0.131 A 
ATOM      8  C   UNL     1       9.104  -2.953  24.258  0.00  0.00    +0.238 A 
ATOM      9  O   UNL     1      10.263  -3.003  23.843  0.00  0.00    -0.283 OA
ATOM     10  C   UNL     1       6.617  -0.366  25.348  0.00  0.00    +0.093 A 
ATOM     11  C   UNL     1       8.225  -4.135  24.292  0.00  0.00    +0.208 A 
ENDROOT
BRANCH   1  13
ATOM     12  C   UNL     1       5.315  -5.685  23.903  0.00  0.00    +0.015 A 
ATOM     13  C   UNL     1       6.085  -5.192  24.988  0.00  0.00    +0.025 A 
ATOM     14  C   UNL     1       5.936  -5.834  26.224  0.00  0.00    +0.060 A 
ATOM     15  C   UNL     1       4.986  -6.843  26.376  0.00  0.00    +0.159 A 
ATOM     16  C   UNL     1       4.169  -7.237  25.320  0.00  0.00    +0.158 A 
ATOM     17  C   UNL     1       4.335  -6.670  24.071  0.00  0.00    +0.050 A 
BRANCH  15  18
ATOM     18  O   UNL     1       4.839  -7.441  27.597  0.00  0.00    -0.503 OA
ATOM     19  H   UNL     1       3.896  -7.698  27.634  0.00  0.00    +0.292 HD
ENDBRANCH  15  18
BRANCH  16  20
ATOM     20  O   UNL     1       3.213  -8.184  25.566  0.00  0.00    -0.503 OA
ATOM     21  H   UNL     1       3.649  -8.974  25.933  0.00  0.00    +0.292 HD
ENDBRANCH  16  20
ENDBRANCH   1  13
BRANCH   5  22
ATOM     22  O   UNL     1      10.605  -0.497  24.198  0.00  0.00    -0.506 OA
ATOM     23  H   UNL     1      10.992  -1.391  24.343  0.00  0.00    +0.292 HD
ENDBRANCH   5  22
BRANCH  11  24
ATOM     24  O   UNL     1       8.750  -5.285  23.731  0.00  0.00    -0.501 OA
ATOM     25  H   UNL     1       8.086  -5.990  23.804  0.00  0.00    +0.292 HD
ENDBRANCH  11  24
BRANCH   7  26
ATOM     26  O   UNL     1       6.728   2.042  25.268  0.00  0.00    -0.461 OA
BRANCH  26  27
ATOM     27  C   UNL     1       5.655   2.199  24.302  0.00  0.00    +0.340 C 
ATOM     28  O   UNL     1       6.182   2.162  22.973  0.00  0.00    -0.322 OA
ATOM     29  C   UNL     1       6.277   3.381  22.235  0.00  0.00    +0.261 C 
ATOM     30  C   UNL     1       5.027   4.251  22.357  0.00  0.00    +0.185 C 
ATOM     31  C   UNL     1       4.740   4.589  23.823  0.00  0.00    +0.180 C 
ATOM     32  C   UNL     1       4.635   3.315  24.661  0.00  0.00    +0.214 C 
BRANCH  29  33
ATOM     33  C   UNL     1       7.565   4.158  22.510  0.00  0.00    +0.337 C 
ATOM     34  O   UNL     1       8.491   3.766  23.210  0.00  0.00    -0.248 OA
BRANCH  33  35
ATOM     35  O   UNL     1       7.574   5.369  21.906  0.00  0.00    -0.479 OA
ATOM     36  H   UNL     1       6.714   5.831  22.031  0.00  0.00    +0.295 HD
ENDBRANCH  33  35
ENDBRANCH  29  33
BRANCH  30  37
ATOM     37  O   UNL     1       3.911   3.504  21.824  0.00  0.00    -0.386 OA
ATOM     38  H   UNL     1       3.317   3.296  22.571  0.00  0.00    +0.210 HD
ENDBRANCH  30  37
BRANCH  31  39
ATOM     39  O   UNL     1       5.649   5.539  24.356  0.00  0.00    -0.386 OA
ATOM     40  H   UNL     1       5.614   5.570  25.331  0.00  0.00    +0.210 HD
ENDBRANCH  31  39
BRANCH  32  41
ATOM     41  O   UNL     1       3.302   2.782  24.429  0.00  0.00    -0.383 OA
ATOM     42  H   UNL     1       3.338   1.825  24.644  0.00  0.00    +0.210 HD
ENDBRANCH  32  41
ENDBRANCH  26  27
ENDBRANCH   7  26
TORSDOF 12
ENDMDL
MODEL 6
REMARK VINA RESULT:      -7.1      1.643      8.754
REMARK  Name = 
REMARK  12 active torsions:
REMARK  status: ('A' for Active; 'I' for Inactive)
REMARK    1  A    between atoms: C_3  and  O_39
REMARK    2  A    between atoms: C_4  and  O_38
REMARK    3  A    between atoms: C_6  and  C_7
REMARK    4  A    between atoms: C_8  and  O_37
REMARK    5  A    between atoms: C_12  and  O_36
REMARK    6  A    between atoms: C_14  and  O_18
REMARK    7  A    between atoms: O_18  and  C_19
REMARK    8  A    between atoms: C_21  and  O_35
REMARK    9  A    between atoms: C_23  and  O_34
REMARK   10  A    between atoms: C_25  and  O_33
REMARK   11  A    between atoms: C_27  and  C_30
REMARK   12  A    between atoms: C_30  and  O_32
REMARK                            x       y       z     vdW  Elec       q    Type
REMARK                         _______ _______ _______ _____ _____    ______ ____
ROOT
ATOM      1  C   UNL     1       7.396   0.905  23.402  0.00  0.00    +0.181 A 
ATOM      2  O   UNL     1       6.615  -0.197  22.998  0.00  0.00    -0.451 OA
ATOM      3  C   UNL     1       7.117  -1.476  23.175  0.00  0.00    +0.147 A 
ATOM      4  C   UNL     1       8.417  -1.690  23.616  0.00  0.00    +0.109 A 
ATOM      5  C   UNL     1       8.928  -2.983  23.712  0.00  0.00    +0.135 A 
ATOM      6  C   UNL     1       8.135  -4.070  23.396  0.00  0.00    +0.092 A 
ATOM      7  C   UNL     1       6.776  -3.900  23.110  0.00  0.00    +0.131 A 
ATOM      8  C   UNL     1       9.232  -0.557  24.036  0.00  0.00    +0.238 A 
ATOM      9  O   UNL     1      10.368  -0.741  24.474  0.00  0.00    -0.283 OA
ATOM     10  C   UNL     1       6.282  -2.591  22.930  0.00  0.00    +0.093 A 
ATOM     11  C   UNL     1       8.618   0.781  23.966  0.00  0.00    +0.208 A 
ENDROOT
BRANCH   1  13
ATOM     12  C   UNL     1       5.442   2.514  23.671  0.00  0.00    +0.015 A 
ATOM     13  C   UNL     1       6.757   2.246  23.211  0.00  0.00    +0.025 A 
ATOM     14  C   UNL     1       7.424   3.277  22.537  0.00  0.00    +0.060 A 
ATOM     15  C   UNL     1       6.759   4.470  22.253  0.00  0.00    +0.159 A 
ATOM     16  C   UNL     1       5.432   4.668  22.625  0.00  0.00    +0.158 A 
ATOM     17  C   UNL     1       4.766   3.697  23.349  0.00  0.00    +0.050 A 
BRANCH  15  18
ATOM     18  O   UNL     1       7.420   5.455  21.574  0.00  0.00    -0.503 OA
ATOM     19  H   UNL     1       6.914   5.565  20.743  0.00  0.00    +0.292 HD
ENDBRANCH  15  18
BRANCH  16  20
ATOM     20  O   UNL     1       4.827   5.835  22.248  0.00  0.00    -0.503 OA
ATOM     21  H   UNL     1       4.537   6.304  23.051  0.00  0.00    +0.292 HD
ENDBRANCH  16  20
ENDBRANCH   1  13
BRANCH   5  22
ATOM     22  O   UNL     1      10.188  -3.269  24.162  0.00  0.00    -0.506 OA
ATOM     23  H   UNL     1      10.306  -2.839  25.040  0.00  0.00    +0.292 HD
ENDBRANCH   5  22
BRANCH  11  24
ATOM     24  O   UNL     1       9.360   1.807  24.523  0.00  0.00    -0.501 OA
ATOM     25  H   UNL     1       9.571   2.445  23.822  0.00  0.00    +0.292 HD
ENDBRANCH  11  24
BRANCH   7  26
ATOM     26  O   UNL     1       5.888  -4.968  23.046  0.00  0.00    -0.461 OA
BRANCH  26  27
ATOM     27  C   UNL     1       4.576  -4.681  23.598  0.00  0.00    +0.340 C 
ATOM     28  O   UNL     1       4.697  -4.266  24.961  0.00  0.00    -0.322 OA
ATOM     29  C   UNL     1       4.322  -5.176  25.994  0.00  0.00    +0.261 C 
ATOM     30  C   UNL     1       3.006  -5.897  25.705  0.00  0.00    +0.185 C 
ATOM     31  C   UNL     1       3.085  -6.666  24.383  0.00  0.00    +0.180 C 
ATOM     32  C   UNL     1       3.492  -5.735  23.240  0.00  0.00    +0.214 C 
BRANCH  29  33
ATOM     33  C   UNL     1       5.443  -6.136  26.396  0.00  0.00    +0.337 C 
ATOM     34  O   UNL     1       5.296  -7.156  27.059  0.00  0.00    -0.248 OA
BRANCH  33  35
ATOM     35  O   UNL     1       6.655  -5.726  25.953  0.00  0.00    -0.479 OA
ATOM     36  H   UNL     1       6.583  -5.319  25.060  0.00  0.00    +0.295 HD
ENDBRANCH  33  35
ENDBRANCH  29  33
BRANCH  30  37
ATOM     37  O   UNL     1       1.965  -4.900  25.603  0.00  0.00    -0.386 OA
ATOM     38  H   UNL     1       2.112  -4.252  26.320  0.00  0.00    +0.210 HD
ENDBRANCH  30  37
BRANCH  31  39
ATOM     39  O   UNL     1       3.890  -7.831  24.472  0.00  0.00    -0.386 OA
ATOM     40  H   UNL     1       3.376  -8.643  24.304  0.00  0.00    +0.210 HD
ENDBRANCH  31  39
BRANCH  32  41
ATOM     41  O   UNL     1       2.290  -5.014  22.853  0.00  0.00    -0.383 OA
ATOM     42  H   UNL     1       2.580  -4.250  22.310  0.00  0.00    +0.210 HD
ENDBRANCH  32  41
ENDBRANCH  26  27
ENDBRANCH   7  26
TORSDOF 12
ENDMDL
MODEL 7
REMARK VINA RESULT:      -7.0      1.940      8.583
REMARK  Name = 
REMARK  12 active torsions:
REMARK  status: ('A' for Active; 'I' for Inactive)
REMARK    1  A    between atoms: C_3  and  O_39
REMARK    2  A    between atoms: C_4  and  O_38
REMARK    3  A    between atoms: C_6  and  C_7
REMARK    4  A    between atoms: C_8  and  O_37
REMARK    5  A    between atoms: C_12  and  O_36
REMARK    6  A    between atoms: C_14  and  O_18
REMARK    7  A    between atoms: O_18  and  C_19
REMARK    8  A    between atoms: C_21  and  O_35
REMARK    9  A    between atoms: C_23  and  O_34
REMARK   10  A    between atoms: C_25  and  O_33
REMARK   11  A    between atoms: C_27  and  C_30
REMARK   12  A    between atoms: C_30  and  O_32
REMARK                            x       y       z     vdW  Elec       q    Type
REMARK                         _______ _______ _______ _____ _____    ______ ____
ROOT
ATOM      1  C   UNL     1       7.339   2.304  23.154  0.00  0.00    +0.181 A 
ATOM      2  O   UNL     1       6.566   1.129  23.238  0.00  0.00    -0.451 OA
ATOM      3  C   UNL     1       7.152  -0.085  22.913  0.00  0.00    +0.147 A 
ATOM      4  C   UNL     1       8.435  -0.151  22.384  0.00  0.00    +0.109 A 
ATOM      5  C   UNL     1       8.976  -1.373  21.990  0.00  0.00    +0.135 A 
ATOM      6  C   UNL     1       8.250  -2.539  22.149  0.00  0.00    +0.092 A 
ATOM      7  C   UNL     1       7.027  -2.529  22.830  0.00  0.00    +0.131 A 
ATOM      8  C   UNL     1       9.241   1.059  22.294  0.00  0.00    +0.238 A 
ATOM      9  O   UNL     1      10.397   1.003  21.871  0.00  0.00    -0.283 OA
ATOM     10  C   UNL     1       6.443  -1.285  23.150  0.00  0.00    +0.093 A 
ATOM     11  C   UNL     1       8.637   2.313  22.778  0.00  0.00    +0.208 A 
ENDROOT
BRANCH   1  13
ATOM     12  C   UNL     1       6.453   3.898  24.931  0.00  0.00    +0.015 A 
ATOM     13  C   UNL     1       6.636   3.562  23.565  0.00  0.00    +0.025 A 
ATOM     14  C   UNL     1       6.101   4.437  22.610  0.00  0.00    +0.060 A 
ATOM     15  C   UNL     1       5.336   5.529  23.017  0.00  0.00    +0.159 A 
ATOM     16  C   UNL     1       5.082   5.778  24.363  0.00  0.00    +0.158 A 
ATOM     17  C   UNL     1       5.649   4.973  25.332  0.00  0.00    +0.050 A 
BRANCH  15  18
ATOM     18  O   UNL     1       4.803   6.358  22.070  0.00  0.00    -0.503 OA
ATOM     19  H   UNL     1       5.108   5.988  21.217  0.00  0.00    +0.292 HD
ENDBRANCH  15  18
BRANCH  16  20
ATOM     20  O   UNL     1       4.264   6.827  24.679  0.00  0.00    -0.503 OA
ATOM     21  H   UNL     1       3.479   6.789  24.104  0.00  0.00    +0.292 HD
ENDBRANCH  16  20
ENDBRANCH   1  13
BRANCH   5  22
ATOM     22  O   UNL     1      10.239  -1.517  21.485  0.00  0.00    -0.506 OA
ATOM     23  H   UNL     1      10.343  -0.889  20.733  0.00  0.00    +0.292 HD
ENDBRANCH   5  22
BRANCH  11  24
ATOM     24  O   UNL     1       9.486   3.404  22.827  0.00  0.00    -0.501 OA
ATOM     25  H   UNL     1      10.362   3.122  22.516  0.00  0.00    +0.292 HD
ENDBRANCH  11  24
BRANCH   7  26
ATOM     26  O   UNL     1       6.393  -3.695  23.242  0.00  0.00    -0.461 OA
BRANCH  26  27
ATOM     27  C   UNL     1       7.212  -4.547  24.086  0.00  0.00    +0.340 C 
ATOM     28  O   UNL     1       6.393  -5.516  24.746  0.00  0.00    -0.322 OA
ATOM     29  C   UNL     1       6.113  -5.349  26.136  0.00  0.00    +0.261 C 
ATOM     30  C   UNL     1       7.345  -4.956  26.949  0.00  0.00    +0.185 C 
ATOM     31  C   UNL     1       7.958  -3.658  26.416  0.00  0.00    +0.180 C 
ATOM     32  C   UNL     1       8.271  -3.781  24.925  0.00  0.00    +0.214 C 
BRANCH  29  33
ATOM     33  C   UNL     1       4.913  -4.442  26.410  0.00  0.00    +0.337 C 
ATOM     34  O   UNL     1       4.621  -3.966  27.501  0.00  0.00    -0.248 OA
BRANCH  33  35
ATOM     35  O   UNL     1       4.167  -4.226  25.301  0.00  0.00    -0.479 OA
ATOM     36  H   UNL     1       3.222  -4.446  25.465  0.00  0.00    +0.295 HD
ENDBRANCH  33  35
ENDBRANCH  29  33
BRANCH  30  37
ATOM     37  O   UNL     1       8.318  -6.017  26.825  0.00  0.00    -0.386 OA
ATOM     38  H   UNL     1       7.826  -6.846  26.669  0.00  0.00    +0.210 HD
ENDBRANCH  30  37
BRANCH  31  39
ATOM     39  O   UNL     1       7.183  -2.513  26.735  0.00  0.00    -0.386 OA
ATOM     40  H   UNL     1       6.711  -2.164  25.956  0.00  0.00    +0.210 HD
ENDBRANCH  31  39
BRANCH  32  41
ATOM     41  O   UNL     1       9.522  -4.517  24.830  0.00  0.00    -0.383 OA
ATOM     42  H   UNL     1      10.215  -3.866  24.583  0.00  0.00    +0.210 HD
ENDBRANCH  32  41
ENDBRANCH  26  27
ENDBRANCH   7  26
TORSDOF 12
ENDMDL
MODEL 8
REMARK VINA RESULT:      -7.0      1.275      1.784
REMARK  Name = 
REMARK  12 active torsions:
REMARK  status: ('A' for Active; 'I' for Inactive)
REMARK    1  A    between atoms: C_3  and  O_39
REMARK    2  A    between atoms: C_4  and  O_38
REMARK    3  A    between atoms: C_6  and  C_7
REMARK    4  A    between atoms: C_8  and  O_37
REMARK    5  A    between atoms: C_12  and  O_36
REMARK    6  A    between atoms: C_14  and  O_18
REMARK    7  A    between atoms: O_18  and  C_19
REMARK    8  A    between atoms: C_21  and  O_35
REMARK    9  A    between atoms: C_23  and  O_34
REMARK   10  A    between atoms: C_25  and  O_33
REMARK   11  A    between atoms: C_27  and  C_30
REMARK   12  A    between atoms: C_30  and  O_32
REMARK                            x       y       z     vdW  Elec       q    Type
REMARK                         _______ _______ _______ _____ _____    ______ ____
ROOT
ATOM      1  C   UNL     1       7.146  -3.759  25.082  0.00  0.00    +0.181 A 
ATOM      2  O   UNL     1       6.766  -2.509  25.608  0.00  0.00    -0.451 OA
ATOM      3  C   UNL     1       7.600  -1.418  25.414  0.00  0.00    +0.147 A 
ATOM      4  C   UNL     1       8.853  -1.559  24.831  0.00  0.00    +0.109 A 
ATOM      5  C   UNL     1       9.707  -0.463  24.717  0.00  0.00    +0.135 A 
ATOM      6  C   UNL     1       9.303   0.783  25.157  0.00  0.00    +0.092 A 
ATOM      7  C   UNL     1       7.990   0.993  25.594  0.00  0.00    +0.131 A 
ATOM      8  C   UNL     1       9.254  -2.848  24.284  0.00  0.00    +0.238 A 
ATOM      9  O   UNL     1      10.343  -2.970  23.723  0.00  0.00    -0.283 OA
ATOM     10  C   UNL     1       7.156  -0.129  25.789  0.00  0.00    +0.093 A 
ATOM     11  C   UNL     1       8.286  -3.955  24.383  0.00  0.00    +0.208 A 
ENDROOT
BRANCH   1  13
ATOM     12  C   UNL     1       5.131  -5.144  24.372  0.00  0.00    +0.015 A 
ATOM     13  C   UNL     1       6.166  -4.871  25.303  0.00  0.00    +0.025 A 
ATOM     14  C   UNL     1       6.214  -5.659  26.460  0.00  0.00    +0.060 A 
ATOM     15  C   UNL     1       5.212  -6.596  26.708  0.00  0.00    +0.159 A 
ATOM     16  C   UNL     1       4.148  -6.773  25.827  0.00  0.00    +0.158 A 
ATOM     17  C   UNL     1       4.105  -6.057  24.645  0.00  0.00    +0.050 A 
BRANCH  15  18
ATOM     18  O   UNL     1       5.263  -7.339  27.854  0.00  0.00    -0.503 OA
ATOM     19  H   UNL     1       5.932  -8.030  27.670  0.00  0.00    +0.292 HD
ENDBRANCH  15  18
BRANCH  16  20
ATOM     20  O   UNL     1       3.166  -7.659  26.174  0.00  0.00    -0.503 OA
ATOM     21  H   UNL     1       3.573  -8.536  26.295  0.00  0.00    +0.292 HD
ENDBRANCH  16  20
ENDBRANCH   1  13
BRANCH   5  22
ATOM     22  O   UNL     1      10.943  -0.522  24.133  0.00  0.00    -0.506 OA
ATOM     23  H   UNL     1      11.620  -0.549  24.849  0.00  0.00    +0.292 HD
ENDBRANCH   5  22
BRANCH  11  24
ATOM     24  O   UNL     1       8.636  -5.113  23.712  0.00  0.00    -0.501 OA
ATOM     25  H   UNL     1       9.350  -4.901  23.089  0.00  0.00    +0.292 HD
ENDBRANCH  11  24
BRANCH   7  26
ATOM     26  O   UNL     1       7.464   2.263  25.795  0.00  0.00    -0.461 OA
BRANCH  26  27
ATOM     27  C   UNL     1       7.584   3.142  24.646  0.00  0.00    +0.340 C 
ATOM     28  O   UNL     1       6.503   4.079  24.628  0.00  0.00    -0.322 OA
ATOM     29  C   UNL     1       5.450   3.897  23.682  0.00  0.00    +0.261 C 
ATOM     30  C   UNL     1       5.958   3.547  22.284  0.00  0.00    +0.185 C 
ATOM     31  C   UNL     1       6.809   2.274  22.317  0.00  0.00    +0.180 C 
ATOM     32  C   UNL     1       7.951   2.413  23.324  0.00  0.00    +0.214 C 
BRANCH  29  33
ATOM     33  C   UNL     1       4.355   2.945  24.166  0.00  0.00    +0.337 C 
ATOM     34  O   UNL     1       4.271   2.483  25.298  0.00  0.00    -0.248 OA
BRANCH  33  35
ATOM     35  O   UNL     1       3.473   2.634  23.187  0.00  0.00    -0.479 OA
ATOM     36  H   UNL     1       3.043   3.444  22.832  0.00  0.00    +0.295 HD
ENDBRANCH  33  35
ENDBRANCH  29  33
BRANCH  30  37
ATOM     37  O   UNL     1       6.776   4.643  21.820  0.00  0.00    -0.386 OA
ATOM     38  H   UNL     1       7.214   4.351  20.997  0.00  0.00    +0.210 HD
ENDBRANCH  30  37
BRANCH  31  39
ATOM     39  O   UNL     1       6.034   1.100  22.505  0.00  0.00    -0.386 OA
ATOM     40  H   UNL     1       5.287   1.251  23.114  0.00  0.00    +0.210 HD
ENDBRANCH  31  39
BRANCH  32  41
ATOM     41  O   UNL     1       8.984   3.195  22.663  0.00  0.00    -0.383 OA
ATOM     42  H   UNL     1       9.605   2.555  22.252  0.00  0.00    +0.210 HD
ENDBRANCH  32  41
ENDBRANCH  26  27
ENDBRANCH   7  26
TORSDOF 12
ENDMDL
MODEL 9
REMARK VINA RESULT:      -7.0      2.570      8.937
REMARK  Name = 
REMARK  12 active torsions:
REMARK  status: ('A' for Active; 'I' for Inactive)
REMARK    1  A    between atoms: C_3  and  O_39
REMARK    2  A    between atoms: C_4  and  O_38
REMARK    3  A    between atoms: C_6  and  C_7
REMARK    4  A    between atoms: C_8  and  O_37
REMARK    5  A    between atoms: C_12  and  O_36
REMARK    6  A    between atoms: C_14  and  O_18
REMARK    7  A    between atoms: O_18  and  C_19
REMARK    8  A    between atoms: C_21  and  O_35
REMARK    9  A    between atoms: C_23  and  O_34
REMARK   10  A    between atoms: C_25  and  O_33
REMARK   11  A    between atoms: C_27  and  C_30
REMARK   12  A    between atoms: C_30  and  O_32
REMARK                            x       y       z     vdW  Elec       q    Type
REMARK                         _______ _______ _______ _____ _____    ______ ____
ROOT
ATOM      1  C   UNL     1       8.475  -0.167  23.935  0.00  0.00    +0.181 A 
ATOM      2  O   UNL     1       7.556  -0.740  24.836  0.00  0.00    -0.451 OA
ATOM      3  C   UNL     1       7.760  -2.042  25.266  0.00  0.00    +0.147 A 
ATOM      4  C   UNL     1       8.770  -2.832  24.731  0.00  0.00    +0.109 A 
ATOM      5  C   UNL     1       8.908  -4.163  25.120  0.00  0.00    +0.135 A 
ATOM      6  C   UNL     1       8.058  -4.703  26.067  0.00  0.00    +0.092 A 
ATOM      7  C   UNL     1       7.141  -3.892  26.746  0.00  0.00    +0.131 A 
ATOM      8  C   UNL     1       9.725  -2.248  23.799  0.00  0.00    +0.238 A 
ATOM      9  O   UNL     1      10.652  -2.927  23.357  0.00  0.00    -0.283 OA
ATOM     10  C   UNL     1       6.943  -2.571  26.292  0.00  0.00    +0.093 A 
ATOM     11  C   UNL     1       9.563  -0.821  23.469  0.00  0.00    +0.208 A 
ENDROOT
BRANCH   1  13
ATOM     12  C   UNL     1       7.369   1.584  22.454  0.00  0.00    +0.015 A 
ATOM     13  C   UNL     1       8.199   1.256  23.557  0.00  0.00    +0.025 A 
ATOM     14  C   UNL     1       8.782   2.318  24.260  0.00  0.00    +0.060 A 
ATOM     15  C   UNL     1       8.620   3.627  23.808  0.00  0.00    +0.159 A 
ATOM     16  C   UNL     1       7.885   3.913  22.660  0.00  0.00    +0.158 A 
ATOM     17  C   UNL     1       7.243   2.895  21.980  0.00  0.00    +0.050 A 
BRANCH  15  18
ATOM     18  O   UNL     1       9.216   4.648  24.494  0.00  0.00    -0.503 OA
ATOM     19  H   UNL     1      10.020   4.248  24.883  0.00  0.00    +0.292 HD
ENDBRANCH  15  18
BRANCH  16  20
ATOM     20  O   UNL     1       7.831   5.213  22.240  0.00  0.00    -0.503 OA
ATOM     21  H   UNL     1       8.704   5.457  21.882  0.00  0.00    +0.292 HD
ENDBRANCH  16  20
ENDBRANCH   1  13
BRANCH   5  22
ATOM     22  O   UNL     1       9.892  -4.992  24.655  0.00  0.00    -0.506 OA
ATOM     23  H   UNL     1      10.728  -4.473  24.598  0.00  0.00    +0.292 HD
ENDBRANCH   5  22
BRANCH  11  24
ATOM     24  O   UNL     1      10.579  -0.265  22.712  0.00  0.00    -0.501 OA
ATOM     25  H   UNL     1      10.240   0.543  22.295  0.00  0.00    +0.292 HD
ENDBRANCH  11  24
BRANCH   7  26
ATOM     26  O   UNL     1       6.456  -4.324  27.875  0.00  0.00    -0.461 OA
BRANCH  26  27
ATOM     27  C   UNL     1       5.671  -5.528  27.667  0.00  0.00    +0.340 C 
ATOM     28  O   UNL     1       4.535  -5.238  26.848  0.00  0.00    -0.322 OA
ATOM     29  C   UNL     1       3.246  -5.169  27.457  0.00  0.00    +0.261 C 
ATOM     30  C   UNL     1       2.993  -6.304  28.447  0.00  0.00    +0.185 C 
ATOM     31  C   UNL     1       4.054  -6.312  29.551  0.00  0.00    +0.180 C 
ATOM     32  C   UNL     1       5.458  -6.378  28.950  0.00  0.00    +0.214 C 
BRANCH  29  33
ATOM     33  C   UNL     1       2.924  -3.793  28.044  0.00  0.00    +0.337 C 
ATOM     34  O   UNL     1       2.016  -3.557  28.831  0.00  0.00    -0.248 OA
BRANCH  33  35
ATOM     35  O   UNL     1       3.751  -2.828  27.577  0.00  0.00    -0.479 OA
ATOM     36  H   UNL     1       3.319  -2.312  26.860  0.00  0.00    +0.295 HD
ENDBRANCH  33  35
ENDBRANCH  29  33
BRANCH  30  37
ATOM     37  O   UNL     1       3.066  -7.552  27.722  0.00  0.00    -0.386 OA
ATOM     38  H   UNL     1       2.766  -8.257  28.327  0.00  0.00    +0.210 HD
ENDBRANCH  30  37
BRANCH  31  39
ATOM     39  O   UNL     1       3.889  -5.250  30.479  0.00  0.00    -0.386 OA
ATOM     40  H   UNL     1       3.012  -5.272  30.904  0.00  0.00    +0.210 HD
ENDBRANCH  31  39
BRANCH  32  41
ATOM     41  O   UNL     1       5.686  -7.770  28.598  0.00  0.00    -0.383 OA
ATOM     42  H   UNL     1       5.177  -8.312  29.239  0.00  0.00    +0.210 HD
ENDBRANCH  32  41
ENDBRANCH  26  27
ENDBRANCH   7  26
TORSDOF 12
ENDMDL
