MODEL 1
REMARK VINA RESULT:      -7.8      0.000      0.000
REMARK  Name = 
REMARK  18 active torsions:
REMARK  status: ('A' for Active; 'I' for Inactive)
REMARK    1  A    between atoms: C_3  and  O_53
REMARK    2  A    between atoms: C_4  and  O_52
REMARK    3  A    between atoms: C_6  and  C_7
REMARK    4  A    between atoms: C_8  and  O_20
REMARK    5  A    between atoms: C_12  and  O_19
REMARK    6  A    between atoms: C_14  and  O_18
REMARK    7  A    between atoms: O_20  and  C_21
REMARK    8  A    between atoms: C_22  and  O_51
REMARK    9  A    between atoms: C_24  and  O_50
REMARK   10  A    between atoms: C_26  and  O_49
REMARK   11  A    between atoms: C_28  and  C_31
REMARK   12  A    between atoms: C_31  and  O_32
REMARK   13  A    between atoms: O_32  and  C_33
REMARK   14  A    between atoms: C_35  and  O_48
REMARK   15  A    between atoms: C_37  and  O_47
REMARK   16  A    between atoms: C_39  and  O_46
REMARK   17  A    between atoms: C_41  and  C_44
REMARK   18  A    between atoms: C_44  and  O_45
REMARK                            x       y       z     vdW  Elec       q    Type
REMARK                         _______ _______ _______ _____ _____    ______ ____
ROOT
ATOM      1  C   UNL     1       5.542  -3.046  23.385  0.00  0.00    +0.340 C 
ATOM      2  O   UNL     1       4.554  -4.068  23.629  0.00  0.00    -0.331 OA
ATOM      3  C   UNL     1       4.699  -5.422  23.127  0.00  0.00    +0.179 C 
ATOM      4  C   UNL     1       5.959  -5.854  22.338  0.00  0.00    +0.177 C 
ATOM      5  C   UNL     1       7.044  -4.812  22.472  0.00  0.00    +0.180 C 
ATOM      6  C   UNL     1       6.375  -3.464  22.170  0.00  0.00    +0.214 C 
ENDROOT
BRANCH   6   7
ATOM      7  O   UNL     1       5.565  -3.496  20.969  0.00  0.00    -0.383 OA
ATOM      8  H   UNL     1       6.142  -3.309  20.201  0.00  0.00    +0.210 HD
ENDBRANCH   6   7
BRANCH   5   9
ATOM      9  O   UNL     1       7.658  -4.919  23.758  0.00  0.00    -0.386 OA
ATOM     10  H   UNL     1       8.323  -4.215  23.887  0.00  0.00    +0.210 HD
ENDBRANCH   5   9
BRANCH   4  11
ATOM     11  O   UNL     1       5.612  -6.037  20.949  0.00  0.00    -0.386 OA
ATOM     12  H   UNL     1       6.444  -6.069  20.424  0.00  0.00    +0.210 HD
ENDBRANCH   4  11
BRANCH   3  13
ATOM     13  C   UNL     1       4.491  -6.366  24.321  0.00  0.00    +0.197 C 
BRANCH  13  14
ATOM     14  O   UNL     1       4.718  -5.747  25.601  0.00  0.00    -0.346 OA
BRANCH  14  15
ATOM     15  C   UNL     1       5.779  -6.319  26.370  0.00  0.00    +0.282 C 
ATOM     16  O   UNL     1       5.274  -7.185  27.389  0.00  0.00    -0.341 OA
ATOM     17  C   UNL     1       4.538  -6.568  28.450  0.00  0.00    +0.178 C 
ATOM     18  C   UNL     1       5.244  -5.327  29.047  0.00  0.00    +0.177 C 
ATOM     19  C   UNL     1       5.895  -4.416  27.993  0.00  0.00    +0.179 C 
ATOM     20  C   UNL     1       6.697  -5.247  26.980  0.00  0.00    +0.201 C 
BRANCH  20  21
ATOM     21  O   UNL     1       7.835  -5.863  27.596  0.00  0.00    -0.384 OA
ATOM     22  H   UNL     1       8.198  -6.499  26.942  0.00  0.00    +0.210 HD
ENDBRANCH  20  21
BRANCH  19  23
ATOM     23  O   UNL     1       4.921  -3.568  27.378  0.00  0.00    -0.386 OA
ATOM     24  H   UNL     1       5.183  -3.405  26.453  0.00  0.00    +0.210 HD
ENDBRANCH  19  23
BRANCH  18  25
ATOM     25  O   UNL     1       6.300  -5.804  29.907  0.00  0.00    -0.386 OA
ATOM     26  H   UNL     1       6.493  -6.721  29.638  0.00  0.00    +0.210 HD
ENDBRANCH  18  25
BRANCH  17  27
ATOM     27  C   UNL     1       3.071  -6.362  28.052  0.00  0.00    +0.190 C 
BRANCH  27  28
ATOM     28  O   UNL     1       2.621  -7.404  27.192  0.00  0.00    -0.392 OA
ATOM     29  H   UNL     1       2.483  -7.018  26.311  0.00  0.00    +0.210 HD
ENDBRANCH  27  28
ENDBRANCH  17  27
ENDBRANCH  14  15
ENDBRANCH  13  14
ENDBRANCH   3  13
BRANCH   1  30
ATOM     30  O   UNL     1       6.313  -2.785  24.591  0.00  0.00    -0.453 OA
BRANCH  30  41
ATOM     31  C   UNL     1       6.742  -0.460  25.336  0.00  0.00    +0.181 A 
ATOM     32  O   UNL     1       7.498   0.740  25.165  0.00  0.00    -0.451 OA
ATOM     33  C   UNL     1       8.350   0.851  24.086  0.00  0.00    +0.147 A 
ATOM     34  C   UNL     1       8.702  -0.268  23.356  0.00  0.00    +0.109 A 
ATOM     35  C   UNL     1       9.557  -0.229  22.255  0.00  0.00    +0.135 A 
ATOM     36  C   UNL     1      10.160   0.971  21.929  0.00  0.00    +0.091 A 
ATOM     37  C   UNL     1       9.899   2.089  22.722  0.00  0.00    +0.124 A 
ATOM     38  C   UNL     1       8.355  -1.489  24.034  0.00  0.00    +0.238 A 
ATOM     39  O   UNL     1       9.244  -2.292  24.254  0.00  0.00    -0.283 OA
ATOM     40  C   UNL     1       8.970   2.054  23.775  0.00  0.00    +0.092 A 
ATOM     41  C   UNL     1       6.995  -1.574  24.597  0.00  0.00    +0.214 A 
BRANCH  31  43
ATOM     42  C   UNL     1       4.408  -0.490  26.283  0.00  0.00    +0.015 A 
ATOM     43  C   UNL     1       5.802  -0.373  26.501  0.00  0.00    +0.025 A 
ATOM     44  C   UNL     1       6.214   0.030  27.778  0.00  0.00    +0.060 A 
ATOM     45  C   UNL     1       5.272   0.370  28.758  0.00  0.00    +0.159 A 
ATOM     46  C   UNL     1       3.909   0.313  28.493  0.00  0.00    +0.158 A 
ATOM     47  C   UNL     1       3.466  -0.144  27.265  0.00  0.00    +0.050 A 
BRANCH  46  48
ATOM     48  O   UNL     1       3.051   0.751  29.463  0.00  0.00    -0.503 OA
ATOM     49  H   UNL     1       3.038   1.723  29.439  0.00  0.00    +0.292 HD
ENDBRANCH  46  48
BRANCH  45  50
ATOM     50  O   UNL     1       5.704   0.808  29.976  0.00  0.00    -0.503 OA
ATOM     51  H   UNL     1       6.065   0.008  30.413  0.00  0.00    +0.292 HD
ENDBRANCH  45  50
ENDBRANCH  31  43
BRANCH  37  52
ATOM     52  O   UNL     1      10.584   3.250  22.513  0.00  0.00    -0.507 OA
ATOM     53  H   UNL     1      11.291   3.077  21.866  0.00  0.00    +0.292 HD
ENDBRANCH  37  52
BRANCH  35  54
ATOM     54  O   UNL     1       9.860  -1.310  21.479  0.00  0.00    -0.506 OA
ATOM     55  H   UNL     1      10.728  -1.192  21.054  0.00  0.00    +0.292 HD
ENDBRANCH  35  54
ENDBRANCH  30  41
ENDBRANCH   1  30
TORSDOF 18
ENDMDL
MODEL 2
REMARK VINA RESULT:      -7.5      2.712      9.158
REMARK  Name = 
REMARK  18 active torsions:
REMARK  status: ('A' for Active; 'I' for Inactive)
REMARK    1  A    between atoms: C_3  and  O_53
REMARK    2  A    between atoms: C_4  and  O_52
REMARK    3  A    between atoms: C_6  and  C_7
REMARK    4  A    between atoms: C_8  and  O_20
REMARK    5  A    between atoms: C_12  and  O_19
REMARK    6  A    between atoms: C_14  and  O_18
REMARK    7  A    between atoms: O_20  and  C_21
REMARK    8  A    between atoms: C_22  and  O_51
REMARK    9  A    between atoms: C_24  and  O_50
REMARK   10  A    between atoms: C_26  and  O_49
REMARK   11  A    between atoms: C_28  and  C_31
REMARK   12  A    between atoms: C_31  and  O_32
REMARK   13  A    between atoms: O_32  and  C_33
REMARK   14  A    between atoms: C_35  and  O_48
REMARK   15  A    between atoms: C_37  and  O_47
REMARK   16  A    between atoms: C_39  and  O_46
REMARK   17  A    between atoms: C_41  and  C_44
REMARK   18  A    between atoms: C_44  and  O_45
REMARK                            x       y       z     vdW  Elec       q    Type
REMARK                         _______ _______ _______ _____ _____    ______ ____
ROOT
ATOM      1  C   UNL     1       6.214  -0.060  26.368  0.00  0.00    +0.340 C 
ATOM      2  O   UNL     1       6.454   1.168  25.651  0.00  0.00    -0.331 OA
ATOM      3  C   UNL     1       6.577   2.447  26.325  0.00  0.00    +0.179 C 
ATOM      4  C   UNL     1       6.504   2.551  27.867  0.00  0.00    +0.177 C 
ATOM      5  C   UNL     1       6.616   1.180  28.491  0.00  0.00    +0.180 C 
ATOM      6  C   UNL     1       5.619   0.290  27.735  0.00  0.00    +0.214 C 
ENDROOT
BRANCH   6   7
ATOM      7  O   UNL     1       4.314   0.902  27.594  0.00  0.00    -0.383 OA
ATOM      8  H   UNL     1       4.425   1.777  27.171  0.00  0.00    +0.210 HD
ENDBRANCH   6   7
BRANCH   5   9
ATOM      9  O   UNL     1       7.976   0.746  28.458  0.00  0.00    -0.386 OA
ATOM     10  H   UNL     1       8.217   0.418  27.569  0.00  0.00    +0.210 HD
ENDBRANCH   5   9
BRANCH   4  11
ATOM     11  O   UNL     1       5.257   3.171  28.246  0.00  0.00    -0.386 OA
ATOM     12  H   UNL     1       5.456   3.931  28.839  0.00  0.00    +0.210 HD
ENDBRANCH   4  11
BRANCH   3  13
ATOM     13  C   UNL     1       7.879   3.092  25.826  0.00  0.00    +0.197 C 
BRANCH  13  14
ATOM     14  O   UNL     1       7.680   4.300  25.069  0.00  0.00    -0.346 OA
BRANCH  14  15
ATOM     15  C   UNL     1       7.454   4.107  23.670  0.00  0.00    +0.282 C 
ATOM     16  O   UNL     1       8.480   4.722  22.888  0.00  0.00    -0.341 OA
ATOM     17  C   UNL     1       8.534   6.152  22.909  0.00  0.00    +0.178 C 
ATOM     18  C   UNL     1       7.157   6.823  22.684  0.00  0.00    +0.177 C 
ATOM     19  C   UNL     1       6.001   6.131  23.425  0.00  0.00    +0.179 C 
ATOM     20  C   UNL     1       6.068   4.608  23.232  0.00  0.00    +0.201 C 
BRANCH  20  21
ATOM     21  O   UNL     1       5.819   4.244  21.868  0.00  0.00    -0.384 OA
ATOM     22  H   UNL     1       6.685   4.284  21.405  0.00  0.00    +0.210 HD
ENDBRANCH  20  21
BRANCH  19  23
ATOM     23  O   UNL     1       5.968   6.523  24.800  0.00  0.00    -0.386 OA
ATOM     24  H   UNL     1       5.461   5.859  25.305  0.00  0.00    +0.210 HD
ENDBRANCH  19  23
BRANCH  18  25
ATOM     25  O   UNL     1       6.866   6.743  21.272  0.00  0.00    -0.386 OA
ATOM     26  H   UNL     1       7.336   5.961  20.929  0.00  0.00    +0.210 HD
ENDBRANCH  18  25
BRANCH  17  27
ATOM     27  C   UNL     1       9.316   6.653  24.130  0.00  0.00    +0.190 C 
BRANCH  27  28
ATOM     28  O   UNL     1      10.390   5.773  24.448  0.00  0.00    -0.392 OA
ATOM     29  H   UNL     1      10.003   4.948  24.787  0.00  0.00    +0.210 HD
ENDBRANCH  27  28
ENDBRANCH  17  27
ENDBRANCH  14  15
ENDBRANCH  13  14
ENDBRANCH   3  13
BRANCH   1  30
ATOM     30  O   UNL     1       7.425  -0.865  26.419  0.00  0.00    -0.453 OA
BRANCH  30  41
ATOM     31  C   UNL     1       8.177  -1.663  24.195  0.00  0.00    +0.181 A 
ATOM     32  O   UNL     1       8.147  -2.702  23.215  0.00  0.00    -0.451 OA
ATOM     33  C   UNL     1       7.290  -3.768  23.388  0.00  0.00    +0.147 A 
ATOM     34  C   UNL     1       6.696  -3.993  24.616  0.00  0.00    +0.109 A 
ATOM     35  C   UNL     1       5.820  -5.050  24.862  0.00  0.00    +0.135 A 
ATOM     36  C   UNL     1       5.604  -5.976  23.860  0.00  0.00    +0.091 A 
ATOM     37  C   UNL     1       6.281  -5.823  22.649  0.00  0.00    +0.124 A 
ATOM     38  C   UNL     1       7.313  -3.227  25.666  0.00  0.00    +0.238 A 
ATOM     39  O   UNL     1       7.756  -3.830  26.626  0.00  0.00    -0.283 OA
ATOM     40  C   UNL     1       7.093  -4.708  22.387  0.00  0.00    +0.092 A 
ATOM     41  C   UNL     1       7.551  -1.798  25.395  0.00  0.00    +0.214 A 
BRANCH  31  43
ATOM     42  C   UNL     1      10.084  -0.100  24.710  0.00  0.00    +0.015 A 
ATOM     43  C   UNL     1       9.092  -0.542  23.801  0.00  0.00    +0.025 A 
ATOM     44  C   UNL     1       8.884   0.239  22.657  0.00  0.00    +0.060 A 
ATOM     45  C   UNL     1       9.583   1.441  22.476  0.00  0.00    +0.159 A 
ATOM     46  C   UNL     1      10.500   1.886  23.421  0.00  0.00    +0.158 A 
ATOM     47  C   UNL     1      10.778   1.107  24.529  0.00  0.00    +0.050 A 
BRANCH  46  48
ATOM     48  O   UNL     1      11.071   3.112  23.226  0.00  0.00    -0.503 OA
ATOM     49  H   UNL     1      11.302   3.480  24.096  0.00  0.00    +0.292 HD
ENDBRANCH  46  48
BRANCH  45  50
ATOM     50  O   UNL     1       9.321   2.206  21.378  0.00  0.00    -0.503 OA
ATOM     51  H   UNL     1       9.268   1.565  20.637  0.00  0.00    +0.292 HD
ENDBRANCH  45  50
ENDBRANCH  31  43
BRANCH  37  52
ATOM     52  O   UNL     1       6.198  -6.794  21.694  0.00  0.00    -0.507 OA
ATOM     53  H   UNL     1       6.933  -6.670  21.067  0.00  0.00    +0.292 HD
ENDBRANCH  37  52
BRANCH  35  54
ATOM     54  O   UNL     1       5.167  -5.246  26.045  0.00  0.00    -0.506 OA
ATOM     55  H   UNL     1       5.789  -5.552  26.729  0.00  0.00    +0.292 HD
ENDBRANCH  35  54
ENDBRANCH  30  41
ENDBRANCH   1  30
TORSDOF 18
ENDMDL
MODEL 3
REMARK VINA RESULT:      -7.5      2.081      5.635
REMARK  Name = 
REMARK  18 active torsions:
REMARK  status: ('A' for Active; 'I' for Inactive)
REMARK    1  A    between atoms: C_3  and  O_53
REMARK    2  A    between atoms: C_4  and  O_52
REMARK    3  A    between atoms: C_6  and  C_7
REMARK    4  A    between atoms: C_8  and  O_20
REMARK    5  A    between atoms: C_12  and  O_19
REMARK    6  A    between atoms: C_14  and  O_18
REMARK    7  A    between atoms: O_20  and  C_21
REMARK    8  A    between atoms: C_22  and  O_51
REMARK    9  A    between atoms: C_24  and  O_50
REMARK   10  A    between atoms: C_26  and  O_49
REMARK   11  A    between atoms: C_28  and  C_31
REMARK   12  A    between atoms: C_31  and  O_32
REMARK   13  A    between atoms: O_32  and  C_33
REMARK   14  A    between atoms: C_35  and  O_48
REMARK   15  A    between atoms: C_37  and  O_47
REMARK   16  A    between atoms: C_39  and  O_46
REMARK   17  A    between atoms: C_41  and  C_44
REMARK   18  A    between atoms: C_44  and  O_45
REMARK                            x       y       z     vdW  Elec       q    Type
REMARK                         _______ _______ _______ _____ _____    ______ ____
ROOT
ATOM      1  C   UNL     1       6.903   1.911  26.140  0.00  0.00    +0.340 C 
ATOM      2  O   UNL     1       7.640   0.758  26.592  0.00  0.00    -0.331 OA
ATOM      3  C   UNL     1       6.983  -0.431  27.101  0.00  0.00    +0.179 C 
ATOM      4  C   UNL     1       5.440  -0.541  27.138  0.00  0.00    +0.177 C 
ATOM      5  C   UNL     1       4.816   0.562  26.316  0.00  0.00    +0.180 C 
ATOM      6  C   UNL     1       5.504   1.860  26.760  0.00  0.00    +0.214 C 
ENDROOT
BRANCH   6   7
ATOM      7  O   UNL     1       5.567   1.998  28.201  0.00  0.00    -0.383 OA
ATOM      8  H   UNL     1       4.698   2.311  28.521  0.00  0.00    +0.210 HD
ENDBRANCH   6   7
BRANCH   5   9
ATOM      9  O   UNL     1       4.930   0.249  24.927  0.00  0.00    -0.386 OA
ATOM     10  H   UNL     1       5.865   0.124  24.673  0.00  0.00    +0.210 HD
ENDBRANCH   5   9
BRANCH   4  11
ATOM     11  O   UNL     1       4.989  -0.458  28.507  0.00  0.00    -0.386 OA
ATOM     12  H   UNL     1       5.245   0.422  28.864  0.00  0.00    +0.210 HD
ENDBRANCH   4  11
BRANCH   3  13
ATOM     13  C   UNL     1       7.565  -1.627  26.332  0.00  0.00    +0.197 C 
BRANCH  13  14
ATOM     14  O   UNL     1       6.614  -2.677  26.077  0.00  0.00    -0.346 OA
BRANCH  14  15
ATOM     15  C   UNL     1       7.151  -4.001  26.110  0.00  0.00    +0.282 C 
ATOM     16  O   UNL     1       6.555  -4.829  25.108  0.00  0.00    -0.341 OA
ATOM     17  C   UNL     1       5.171  -5.146  25.277  0.00  0.00    +0.178 C 
ATOM     18  C   UNL     1       4.819  -5.628  26.705  0.00  0.00    +0.177 C 
ATOM     19  C   UNL     1       5.519  -4.832  27.818  0.00  0.00    +0.179 C 
ATOM     20  C   UNL     1       7.011  -4.649  27.497  0.00  0.00    +0.201 C 
BRANCH  20  21
ATOM     21  O   UNL     1       7.708  -5.901  27.531  0.00  0.00    -0.384 OA
ATOM     22  H   UNL     1       7.120  -6.561  27.102  0.00  0.00    +0.210 HD
ENDBRANCH  20  21
BRANCH  19  23
ATOM     23  O   UNL     1       4.842  -3.597  28.067  0.00  0.00    -0.386 OA
ATOM     24  H   UNL     1       4.838  -3.069  27.247  0.00  0.00    +0.210 HD
ENDBRANCH  19  23
BRANCH  18  25
ATOM     25  O   UNL     1       5.261  -6.998  26.818  0.00  0.00    -0.386 OA
ATOM     26  H   UNL     1       4.540  -7.558  26.477  0.00  0.00    +0.210 HD
ENDBRANCH  18  25
BRANCH  17  27
ATOM     27  C   UNL     1       4.281  -4.026  24.724  0.00  0.00    +0.190 C 
BRANCH  27  28
ATOM     28  O   UNL     1       4.897  -3.381  23.614  0.00  0.00    -0.392 OA
ATOM     29  H   UNL     1       5.148  -4.071  22.976  0.00  0.00    +0.210 HD
ENDBRANCH  27  28
ENDBRANCH  17  27
ENDBRANCH  14  15
ENDBRANCH  13  14
ENDBRANCH   3  13
BRANCH   1  30
ATOM     30  O   UNL     1       6.921   1.991  24.687  0.00  0.00    -0.453 OA
BRANCH  30  41
ATOM     31  C   UNL     1       9.097   1.617  23.558  0.00  0.00    +0.181 A 
ATOM     32  O   UNL     1      10.334   2.175  23.111  0.00  0.00    -0.451 OA
ATOM     33  C   UNL     1      10.660   3.465  23.469  0.00  0.00    +0.147 A 
ATOM     34  C   UNL     1       9.696   4.311  23.987  0.00  0.00    +0.109 A 
ATOM     35  C   UNL     1       9.955   5.626  24.370  0.00  0.00    +0.135 A 
ATOM     36  C   UNL     1      11.213   6.147  24.137  0.00  0.00    +0.091 A 
ATOM     37  C   UNL     1      12.168   5.340  23.517  0.00  0.00    +0.124 A 
ATOM     38  C   UNL     1       8.365   3.800  23.791  0.00  0.00    +0.238 A 
ATOM     39  O   UNL     1       7.568   4.500  23.193  0.00  0.00    -0.283 OA
ATOM     40  C   UNL     1      11.918   3.991  23.214  0.00  0.00    +0.092 A 
ATOM     41  C   UNL     1       8.137   2.386  24.139  0.00  0.00    +0.214 A 
BRANCH  31  43
ATOM     42  C   UNL     1       7.786  -0.235  22.464  0.00  0.00    +0.015 A 
ATOM     43  C   UNL     1       8.949   0.179  23.157  0.00  0.00    +0.025 A 
ATOM     44  C   UNL     1       9.807  -0.827  23.617  0.00  0.00    +0.060 A 
ATOM     45  C   UNL     1       9.474  -2.179  23.454  0.00  0.00    +0.159 A 
ATOM     46  C   UNL     1       8.290  -2.556  22.832  0.00  0.00    +0.158 A 
ATOM     47  C   UNL     1       7.452  -1.589  22.307  0.00  0.00    +0.050 A 
BRANCH  46  48
ATOM     48  O   UNL     1       7.985  -3.887  22.795  0.00  0.00    -0.503 OA
ATOM     49  H   UNL     1       7.046  -3.990  23.031  0.00  0.00    +0.292 HD
ENDBRANCH  46  48
BRANCH  45  50
ATOM     50  O   UNL     1      10.305  -3.136  23.959  0.00  0.00    -0.503 OA
ATOM     51  H   UNL     1      11.028  -2.634  24.389  0.00  0.00    +0.292 HD
ENDBRANCH  45  50
ENDBRANCH  31  43
BRANCH  37  52
ATOM     52  O   UNL     1      13.371   5.867  23.147  0.00  0.00    -0.507 OA
ATOM     53  H   UNL     1      14.041   5.584  23.794  0.00  0.00    +0.292 HD
ENDBRANCH  37  52
BRANCH  35  54
ATOM     54  O   UNL     1       9.035   6.452  24.949  0.00  0.00    -0.506 OA
ATOM     55  H   UNL     1       8.131   6.161  24.730  0.00  0.00    +0.292 HD
ENDBRANCH  35  54
ENDBRANCH  30  41
ENDBRANCH   1  30
TORSDOF 18
ENDMDL
MODEL 4
REMARK VINA RESULT:      -7.4      0.637      1.775
REMARK  Name = 
REMARK  18 active torsions:
REMARK  status: ('A' for Active; 'I' for Inactive)
REMARK    1  A    between atoms: C_3  and  O_53
REMARK    2  A    between atoms: C_4  and  O_52
REMARK    3  A    between atoms: C_6  and  C_7
REMARK    4  A    between atoms: C_8  and  O_20
REMARK    5  A    between atoms: C_12  and  O_19
REMARK    6  A    between atoms: C_14  and  O_18
REMARK    7  A    between atoms: O_20  and  C_21
REMARK    8  A    between atoms: C_22  and  O_51
REMARK    9  A    between atoms: C_24  and  O_50
REMARK   10  A    between atoms: C_26  and  O_49
REMARK   11  A    between atoms: C_28  and  C_31
REMARK   12  A    between atoms: C_31  and  O_32
REMARK   13  A    between atoms: O_32  and  C_33
REMARK   14  A    between atoms: C_35  and  O_48
REMARK   15  A    between atoms: C_37  and  O_47
REMARK   16  A    between atoms: C_39  and  O_46
REMARK   17  A    between atoms: C_41  and  C_44
REMARK   18  A    between atoms: C_44  and  O_45
REMARK                            x       y       z     vdW  Elec       q    Type
REMARK                         _______ _______ _______ _____ _____    ______ ____
ROOT
ATOM      1  C   UNL     1       5.556  -3.328  23.406  0.00  0.00    +0.340 C 
ATOM      2  O   UNL     1       4.544  -4.321  23.666  0.00  0.00    -0.331 OA
ATOM      3  C   UNL     1       4.689  -5.703  23.248  0.00  0.00    +0.179 C 
ATOM      4  C   UNL     1       5.974  -6.196  22.540  0.00  0.00    +0.177 C 
ATOM      5  C   UNL     1       7.069  -5.161  22.660  0.00  0.00    +0.180 C 
ATOM      6  C   UNL     1       6.433  -3.825  22.254  0.00  0.00    +0.214 C 
ENDROOT
BRANCH   6   7
ATOM      7  O   UNL     1       5.674  -3.915  21.023  0.00  0.00    -0.383 OA
ATOM      8  H   UNL     1       5.174  -4.756  21.028  0.00  0.00    +0.210 HD
ENDBRANCH   6   7
BRANCH   5   9
ATOM      9  O   UNL     1       7.627  -5.203  23.975  0.00  0.00    -0.386 OA
ATOM     10  H   UNL     1       8.072  -4.361  24.192  0.00  0.00    +0.210 HD
ENDBRANCH   5   9
BRANCH   4  11
ATOM     11  O   UNL     1       5.684  -6.454  21.150  0.00  0.00    -0.386 OA
ATOM     12  H   UNL     1       5.507  -7.417  21.045  0.00  0.00    +0.210 HD
ENDBRANCH   4  11
BRANCH   3  13
ATOM     13  C   UNL     1       4.417  -6.574  24.485  0.00  0.00    +0.197 C 
BRANCH  13  14
ATOM     14  O   UNL     1       5.009  -6.070  25.696  0.00  0.00    -0.346 OA
BRANCH  14  15
ATOM     15  C   UNL     1       4.120  -5.342  26.547  0.00  0.00    +0.282 C 
ATOM     16  O   UNL     1       4.769  -4.207  27.127  0.00  0.00    -0.341 OA
ATOM     17  C   UNL     1       5.809  -4.476  28.071  0.00  0.00    +0.178 C 
ATOM     18  C   UNL     1       5.416  -5.523  29.140  0.00  0.00    +0.177 C 
ATOM     19  C   UNL     1       4.623  -6.715  28.579  0.00  0.00    +0.179 C 
ATOM     20  C   UNL     1       3.506  -6.230  27.641  0.00  0.00    +0.201 C 
BRANCH  20  21
ATOM     21  O   UNL     1       2.501  -5.505  28.360  0.00  0.00    -0.384 OA
ATOM     22  H   UNL     1       1.786  -5.306  27.717  0.00  0.00    +0.210 HD
ENDBRANCH  20  21
BRANCH  19  23
ATOM     23  O   UNL     1       5.497  -7.667  27.967  0.00  0.00    -0.386 OA
ATOM     24  H   UNL     1       4.972  -8.251  27.388  0.00  0.00    +0.210 HD
ENDBRANCH  19  23
BRANCH  18  25
ATOM     25  O   UNL     1       4.564  -4.859  30.099  0.00  0.00    -0.386 OA
ATOM     26  H   UNL     1       3.915  -5.518  30.406  0.00  0.00    +0.210 HD
ENDBRANCH  18  25
BRANCH  17  27
ATOM     27  C   UNL     1       7.143  -4.735  27.357  0.00  0.00    +0.190 C 
BRANCH  27  28
ATOM     28  O   UNL     1       7.658  -6.022  27.683  0.00  0.00    -0.392 OA
ATOM     29  H   UNL     1       7.213  -6.319  28.495  0.00  0.00    +0.210 HD
ENDBRANCH  27  28
ENDBRANCH  17  27
ENDBRANCH  14  15
ENDBRANCH  13  14
ENDBRANCH   3  13
BRANCH   1  30
ATOM     30  O   UNL     1       6.281  -3.008  24.627  0.00  0.00    -0.453 OA
BRANCH  30  41
ATOM     31  C   UNL     1       6.732  -0.673  25.330  0.00  0.00    +0.181 A 
ATOM     32  O   UNL     1       7.486   0.522  25.124  0.00  0.00    -0.451 OA
ATOM     33  C   UNL     1       8.312   0.617  24.024  0.00  0.00    +0.147 A 
ATOM     34  C   UNL     1       8.644  -0.513  23.301  0.00  0.00    +0.109 A 
ATOM     35  C   UNL     1       9.472  -0.490  22.179  0.00  0.00    +0.135 A 
ATOM     36  C   UNL     1      10.069   0.704  21.823  0.00  0.00    +0.091 A 
ATOM     37  C   UNL     1       9.829   1.833  22.607  0.00  0.00    +0.124 A 
ATOM     38  C   UNL     1       8.311  -1.724  24.004  0.00  0.00    +0.238 A 
ATOM     39  O   UNL     1       9.203  -2.525  24.214  0.00  0.00    -0.283 OA
ATOM     40  C   UNL     1       8.926   1.814  23.682  0.00  0.00    +0.092 A 
ATOM     41  C   UNL     1       6.965  -1.798  24.601  0.00  0.00    +0.214 A 
BRANCH  31  43
ATOM     42  C   UNL     1       4.443  -0.858  26.366  0.00  0.00    +0.015 A 
ATOM     43  C   UNL     1       5.820  -0.568  26.517  0.00  0.00    +0.025 A 
ATOM     44  C   UNL     1       6.220   0.007  27.730  0.00  0.00    +0.060 A 
ATOM     45  C   UNL     1       5.272   0.342  28.707  0.00  0.00    +0.159 A 
ATOM     46  C   UNL     1       3.917   0.111  28.501  0.00  0.00    +0.158 A 
ATOM     47  C   UNL     1       3.495  -0.516  27.343  0.00  0.00    +0.050 A 
BRANCH  46  48
ATOM     48  O   UNL     1       3.044   0.551  29.455  0.00  0.00    -0.503 OA
ATOM     49  H   UNL     1       2.140   0.358  29.151  0.00  0.00    +0.292 HD
ENDBRANCH  46  48
BRANCH  45  50
ATOM     50  O   UNL     1       5.686   0.949  29.856  0.00  0.00    -0.503 OA
ATOM     51  H   UNL     1       6.151   0.244  30.355  0.00  0.00    +0.292 HD
ENDBRANCH  45  50
ENDBRANCH  31  43
BRANCH  37  52
ATOM     52  O   UNL     1      10.511   2.990  22.365  0.00  0.00    -0.507 OA
ATOM     53  H   UNL     1       9.987   3.733  22.712  0.00  0.00    +0.292 HD
ENDBRANCH  37  52
BRANCH  35  54
ATOM     54  O   UNL     1       9.754  -1.583  21.411  0.00  0.00    -0.506 OA
ATOM     55  H   UNL     1      10.625  -1.485  20.988  0.00  0.00    +0.292 HD
ENDBRANCH  35  54
ENDBRANCH  30  41
ENDBRANCH   1  30
TORSDOF 18
ENDMDL
MODEL 5
REMARK VINA RESULT:      -7.3      2.253      5.884
REMARK  Name = 
REMARK  18 active torsions:
REMARK  status: ('A' for Active; 'I' for Inactive)
REMARK    1  A    between atoms: C_3  and  O_53
REMARK    2  A    between atoms: C_4  and  O_52
REMARK    3  A    between atoms: C_6  and  C_7
REMARK    4  A    between atoms: C_8  and  O_20
REMARK    5  A    between atoms: C_12  and  O_19
REMARK    6  A    between atoms: C_14  and  O_18
REMARK    7  A    between atoms: O_20  and  C_21
REMARK    8  A    between atoms: C_22  and  O_51
REMARK    9  A    between atoms: C_24  and  O_50
REMARK   10  A    between atoms: C_26  and  O_49
REMARK   11  A    between atoms: C_28  and  C_31
REMARK   12  A    between atoms: C_31  and  O_32
REMARK   13  A    between atoms: O_32  and  C_33
REMARK   14  A    between atoms: C_35  and  O_48
REMARK   15  A    between atoms: C_37  and  O_47
REMARK   16  A    between atoms: C_39  and  O_46
REMARK   17  A    between atoms: C_41  and  C_44
REMARK   18  A    between atoms: C_44  and  O_45
REMARK                            x       y       z     vdW  Elec       q    Type
REMARK                         _______ _______ _______ _____ _____    ______ ____
ROOT
ATOM      1  C   UNL     1       7.792   0.311  23.637  0.00  0.00    +0.340 C 
ATOM      2  O   UNL     1       7.235  -0.750  22.835  0.00  0.00    -0.331 OA
ATOM      3  C   UNL     1       8.066  -1.750  22.188  0.00  0.00    +0.179 C 
ATOM      4  C   UNL     1       9.603  -1.755  22.369  0.00  0.00    +0.177 C 
ATOM      5  C   UNL     1      10.000  -0.834  23.499  0.00  0.00    +0.180 C 
ATOM      6  C   UNL     1       9.262   0.488  23.246  0.00  0.00    +0.214 C 
ENDROOT
BRANCH   6   7
ATOM      7  O   UNL     1       9.386   0.948  21.879  0.00  0.00    -0.383 OA
ATOM      8  H   UNL     1       8.521   1.302  21.591  0.00  0.00    +0.210 HD
ENDBRANCH   6   7
BRANCH   5   9
ATOM      9  O   UNL     1       9.724  -1.464  24.752  0.00  0.00    -0.386 OA
ATOM     10  H   UNL     1       9.804  -0.826  25.488  0.00  0.00    +0.210 HD
ENDBRANCH   5   9
BRANCH   4  11
ATOM     11  O   UNL     1      10.230  -1.333  21.139  0.00  0.00    -0.386 OA
ATOM     12  H   UNL     1      10.474  -0.383  21.226  0.00  0.00    +0.210 HD
ENDBRANCH   4  11
BRANCH   3  13
ATOM     13  C   UNL     1       7.497  -3.123  22.577  0.00  0.00    +0.197 C 
BRANCH  13  14
ATOM     14  O   UNL     1       7.545  -3.396  23.990  0.00  0.00    -0.346 OA
BRANCH  14  15
ATOM     15  C   UNL     1       8.048  -4.688  24.340  0.00  0.00    +0.282 C 
ATOM     16  O   UNL     1       6.995  -5.558  24.763  0.00  0.00    -0.341 OA
ATOM     17  C   UNL     1       6.348  -5.229  25.996  0.00  0.00    +0.178 C 
ATOM     18  C   UNL     1       7.336  -4.918  27.146  0.00  0.00    +0.177 C 
ATOM     19  C   UNL     1       8.543  -4.070  26.715  0.00  0.00    +0.179 C 
ATOM     20  C   UNL     1       9.149  -4.612  25.410  0.00  0.00    +0.201 C 
BRANCH  20  21
ATOM     21  O   UNL     1       9.737  -5.904  25.607  0.00  0.00    -0.384 OA
ATOM     22  H   UNL     1      10.286  -6.085  24.813  0.00  0.00    +0.210 HD
ENDBRANCH  20  21
BRANCH  19  23
ATOM     23  O   UNL     1       8.194  -2.685  26.640  0.00  0.00    -0.386 OA
ATOM     24  H   UNL     1       7.859  -2.492  25.743  0.00  0.00    +0.210 HD
ENDBRANCH  19  23
BRANCH  18  25
ATOM     25  O   UNL     1       7.851  -6.180  27.623  0.00  0.00    -0.386 OA
ATOM     26  H   UNL     1       8.299  -6.607  26.870  0.00  0.00    +0.210 HD
ENDBRANCH  18  25
BRANCH  17  27
ATOM     27  C   UNL     1       5.247  -4.185  25.776  0.00  0.00    +0.190 C 
BRANCH  27  28
ATOM     28  O   UNL     1       5.495  -3.008  26.538  0.00  0.00    -0.392 OA
ATOM     29  H   UNL     1       6.218  -3.206  27.157  0.00  0.00    +0.210 HD
ENDBRANCH  27  28
ENDBRANCH  17  27
ENDBRANCH  14  15
ENDBRANCH  13  14
ENDBRANCH   3  13
BRANCH   1  30
ATOM     30  O   UNL     1       7.564   0.053  25.051  0.00  0.00    -0.453 OA
BRANCH  30  41
ATOM     31  C   UNL     1       6.484   2.215  25.607  0.00  0.00    +0.181 A 
ATOM     32  O   UNL     1       5.469   2.900  26.341  0.00  0.00    -0.451 OA
ATOM     33  C   UNL     1       4.730   2.208  27.277  0.00  0.00    +0.147 A 
ATOM     34  C   UNL     1       4.750   0.826  27.299  0.00  0.00    +0.109 A 
ATOM     35  C   UNL     1       4.029   0.062  28.216  0.00  0.00    +0.135 A 
ATOM     36  C   UNL     1       3.177   0.710  29.090  0.00  0.00    +0.091 A 
ATOM     37  C   UNL     1       3.064   2.098  29.009  0.00  0.00    +0.124 A 
ATOM     38  C   UNL     1       5.326   0.272  26.102  0.00  0.00    +0.238 A 
ATOM     39  O   UNL     1       4.654  -0.507  25.453  0.00  0.00    -0.283 OA
ATOM     40  C   UNL     1       3.859   2.860  28.139  0.00  0.00    +0.092 A 
ATOM     41  C   UNL     1       6.599   0.860  25.644  0.00  0.00    +0.214 A 
BRANCH  31  43
ATOM     42  C   UNL     1       8.498   3.651  25.129  0.00  0.00    +0.015 A 
ATOM     43  C   UNL     1       7.249   3.137  24.705  0.00  0.00    +0.025 A 
ATOM     44  C   UNL     1       6.695   3.691  23.543  0.00  0.00    +0.060 A 
ATOM     45  C   UNL     1       7.328   4.756  22.888  0.00  0.00    +0.159 A 
ATOM     46  C   UNL     1       8.519   5.287  23.368  0.00  0.00    +0.158 A 
ATOM     47  C   UNL     1       9.128   4.721  24.474  0.00  0.00    +0.050 A 
BRANCH  46  48
ATOM     48  O   UNL     1       9.029   6.385  22.735  0.00  0.00    -0.503 OA
ATOM     49  H   UNL     1       8.871   7.161  23.299  0.00  0.00    +0.292 HD
ENDBRANCH  46  48
BRANCH  45  50
ATOM     50  O   UNL     1       6.739   5.308  21.789  0.00  0.00    -0.503 OA
ATOM     51  H   UNL     1       6.273   4.561  21.356  0.00  0.00    +0.292 HD
ENDBRANCH  45  50
ENDBRANCH  31  43
BRANCH  37  52
ATOM     52  O   UNL     1       2.130   2.752  29.760  0.00  0.00    -0.507 OA
ATOM     53  H   UNL     1       1.312   2.824  29.237  0.00  0.00    +0.292 HD
ENDBRANCH  37  52
BRANCH  35  54
ATOM     54  O   UNL     1       4.092  -1.299  28.299  0.00  0.00    -0.506 OA
ATOM     55  H   UNL     1       4.200  -1.689  27.414  0.00  0.00    +0.292 HD
ENDBRANCH  35  54
ENDBRANCH  30  41
ENDBRANCH   1  30
TORSDOF 18
ENDMDL
MODEL 6
REMARK VINA RESULT:      -7.2      1.990      5.508
REMARK  Name = 
REMARK  18 active torsions:
REMARK  status: ('A' for Active; 'I' for Inactive)
REMARK    1  A    between atoms: C_3  and  O_53
REMARK    2  A    between atoms: C_4  and  O_52
REMARK    3  A    between atoms: C_6  and  C_7
REMARK    4  A    between atoms: C_8  and  O_20
REMARK    5  A    between atoms: C_12  and  O_19
REMARK    6  A    between atoms: C_14  and  O_18
REMARK    7  A    between atoms: O_20  and  C_21
REMARK    8  A    between atoms: C_22  and  O_51
REMARK    9  A    between atoms: C_24  and  O_50
REMARK   10  A    between atoms: C_26  and  O_49
REMARK   11  A    between atoms: C_28  and  C_31
REMARK   12  A    between atoms: C_31  and  O_32
REMARK   13  A    between atoms: O_32  and  C_33
REMARK   14  A    between atoms: C_35  and  O_48
REMARK   15  A    between atoms: C_37  and  O_47
REMARK   16  A    between atoms: C_39  and  O_46
REMARK   17  A    between atoms: C_41  and  C_44
REMARK   18  A    between atoms: C_44  and  O_45
REMARK                            x       y       z     vdW  Elec       q    Type
REMARK                         _______ _______ _______ _____ _____    ______ ____
ROOT
ATOM      1  C   UNL     1       5.350  -0.829  26.818  0.00  0.00    +0.340 C 
ATOM      2  O   UNL     1       5.858  -2.158  27.048  0.00  0.00    -0.331 OA
ATOM      3  C   UNL     1       5.042  -3.211  27.624  0.00  0.00    +0.179 C 
ATOM      4  C   UNL     1       3.555  -2.970  27.979  0.00  0.00    +0.177 C 
ATOM      5  C   UNL     1       3.072  -1.678  27.361  0.00  0.00    +0.180 C 
ATOM      6  C   UNL     1       4.126  -0.621  27.715  0.00  0.00    +0.214 C 
ENDROOT
BRANCH   6   7
ATOM      7  O   UNL     1       4.497  -0.643  29.115  0.00  0.00    -0.383 OA
ATOM      8  H   UNL     1       5.201  -1.310  29.239  0.00  0.00    +0.210 HD
ENDBRANCH   6   7
BRANCH   5   9
ATOM      9  O   UNL     1       2.838  -1.872  25.965  0.00  0.00    -0.386 OA
ATOM     10  H   UNL     1       2.148  -2.548  25.817  0.00  0.00    +0.210 HD
ENDBRANCH   5   9
BRANCH   4  11
ATOM     11  O   UNL     1       3.409  -2.921  29.414  0.00  0.00    -0.386 OA
ATOM     12  H   UNL     1       2.745  -3.597  29.681  0.00  0.00    +0.210 HD
ENDBRANCH   4  11
BRANCH   3  13
ATOM     13  C   UNL     1       5.158  -4.427  26.692  0.00  0.00    +0.197 C 
BRANCH  13  14
ATOM     14  O   UNL     1       3.962  -4.703  25.941  0.00  0.00    -0.346 OA
BRANCH  14  15
ATOM     15  C   UNL     1       4.176  -5.285  24.653  0.00  0.00    +0.282 C 
ATOM     16  O   UNL     1       3.028  -5.129  23.815  0.00  0.00    -0.341 OA
ATOM     17  C   UNL     1       1.854  -5.854  24.193  0.00  0.00    +0.178 C 
ATOM     18  C   UNL     1       2.128  -7.340  24.523  0.00  0.00    +0.177 C 
ATOM     19  C   UNL     1       3.412  -7.569  25.337  0.00  0.00    +0.179 C 
ATOM     20  C   UNL     1       4.580  -6.765  24.744  0.00  0.00    +0.201 C 
BRANCH  20  21
ATOM     21  O   UNL     1       4.947  -7.258  23.449  0.00  0.00    -0.384 OA
ATOM     22  H   UNL     1       4.112  -7.521  23.003  0.00  0.00    +0.210 HD
ENDBRANCH  20  21
BRANCH  19  23
ATOM     23  O   UNL     1       3.192  -7.300  26.725  0.00  0.00    -0.386 OA
ATOM     24  H   UNL     1       3.743  -7.907  27.255  0.00  0.00    +0.210 HD
ENDBRANCH  19  23
BRANCH  18  25
ATOM     25  O   UNL     1       2.290  -8.037  23.269  0.00  0.00    -0.386 OA
ATOM     26  H   UNL     1       1.395  -8.215  22.926  0.00  0.00    +0.210 HD
ENDBRANCH  18  25
BRANCH  17  27
ATOM     27  C   UNL     1       1.051  -5.083  25.249  0.00  0.00    +0.190 C 
BRANCH  27  28
ATOM     28  O   UNL     1       1.077  -3.683  24.993  0.00  0.00    -0.392 OA
ATOM     29  H   UNL     1       1.965  -3.460  24.666  0.00  0.00    +0.210 HD
ENDBRANCH  27  28
ENDBRANCH  17  27
ENDBRANCH  14  15
ENDBRANCH  13  14
ENDBRANCH   3  13
BRANCH   1  30
ATOM     30  O   UNL     1       5.108  -0.614  25.399  0.00  0.00    -0.453 OA
BRANCH  30  41
ATOM     31  C   UNL     1       7.101  -0.874  23.947  0.00  0.00    +0.181 A 
ATOM     32  O   UNL     1       8.230  -0.256  23.329  0.00  0.00    -0.451 OA
ATOM     33  C   UNL     1       8.551   1.044  23.660  0.00  0.00    +0.147 A 
ATOM     34  C   UNL     1       7.642   1.838  24.333  0.00  0.00    +0.109 A 
ATOM     35  C   UNL     1       7.899   3.159  24.698  0.00  0.00    +0.135 A 
ATOM     36  C   UNL     1       9.084   3.739  24.287  0.00  0.00    +0.091 A 
ATOM     37  C   UNL     1       9.967   2.984  23.514  0.00  0.00    +0.124 A 
ATOM     38  C   UNL     1       6.319   1.270  24.330  0.00  0.00    +0.238 A 
ATOM     39  O   UNL     1       5.412   1.941  23.874  0.00  0.00    -0.283 OA
ATOM     40  C   UNL     1       9.733   1.629  23.227  0.00  0.00    +0.092 A 
ATOM     41  C   UNL     1       6.208  -0.157  24.682  0.00  0.00    +0.214 A 
BRANCH  31  43
ATOM     42  C   UNL     1       7.726  -3.302  24.202  0.00  0.00    +0.015 A 
ATOM     43  C   UNL     1       6.955  -2.312  23.546  0.00  0.00    +0.025 A 
ATOM     44  C   UNL     1       6.246  -2.711  22.405  0.00  0.00    +0.060 A 
ATOM     45  C   UNL     1       6.368  -4.017  21.910  0.00  0.00    +0.159 A 
ATOM     46  C   UNL     1       7.189  -4.947  22.535  0.00  0.00    +0.158 A 
ATOM     47  C   UNL     1       7.851  -4.607  23.700  0.00  0.00    +0.050 A 
BRANCH  46  48
ATOM     48  O   UNL     1       7.335  -6.170  21.941  0.00  0.00    -0.503 OA
ATOM     49  H   UNL     1       7.296  -6.045  20.977  0.00  0.00    +0.292 HD
ENDBRANCH  46  48
BRANCH  45  50
ATOM     50  O   UNL     1       5.706  -4.361  20.768  0.00  0.00    -0.503 OA
ATOM     51  H   UNL     1       5.728  -5.342  20.755  0.00  0.00    +0.292 HD
ENDBRANCH  45  50
ENDBRANCH  31  43
BRANCH  37  52
ATOM     52  O   UNL     1      11.076   3.569  22.977  0.00  0.00    -0.507 OA
ATOM     53  H   UNL     1      11.831   3.396  23.568  0.00  0.00    +0.292 HD
ENDBRANCH  37  52
BRANCH  35  54
ATOM     54  O   UNL     1       7.043   3.935  25.425  0.00  0.00    -0.506 OA
ATOM     55  H   UNL     1       6.617   3.408  26.125  0.00  0.00    +0.292 HD
ENDBRANCH  35  54
ENDBRANCH  30  41
ENDBRANCH   1  30
TORSDOF 18
ENDMDL
MODEL 7
REMARK VINA RESULT:      -7.1      2.148      5.803
REMARK  Name = 
REMARK  18 active torsions:
REMARK  status: ('A' for Active; 'I' for Inactive)
REMARK    1  A    between atoms: C_3  and  O_53
REMARK    2  A    between atoms: C_4  and  O_52
REMARK    3  A    between atoms: C_6  and  C_7
REMARK    4  A    between atoms: C_8  and  O_20
REMARK    5  A    between atoms: C_12  and  O_19
REMARK    6  A    between atoms: C_14  and  O_18
REMARK    7  A    between atoms: O_20  and  C_21
REMARK    8  A    between atoms: C_22  and  O_51
REMARK    9  A    between atoms: C_24  and  O_50
REMARK   10  A    between atoms: C_26  and  O_49
REMARK   11  A    between atoms: C_28  and  C_31
REMARK   12  A    between atoms: C_31  and  O_32
REMARK   13  A    between atoms: O_32  and  C_33
REMARK   14  A    between atoms: C_35  and  O_48
REMARK   15  A    between atoms: C_37  and  O_47
REMARK   16  A    between atoms: C_39  and  O_46
REMARK   17  A    between atoms: C_41  and  C_44
REMARK   18  A    between atoms: C_44  and  O_45
REMARK                            x       y       z     vdW  Elec       q    Type
REMARK                         _______ _______ _______ _____ _____    ______ ____
ROOT
ATOM      1  C   UNL     1       6.869   1.890  25.936  0.00  0.00    +0.340 C 
ATOM      2  O   UNL     1       6.894   0.471  26.188  0.00  0.00    -0.331 OA
ATOM      3  C   UNL     1       5.712  -0.264  26.600  0.00  0.00    +0.179 C 
ATOM      4  C   UNL     1       4.340   0.439  26.741  0.00  0.00    +0.177 C 
ATOM      5  C   UNL     1       4.385   1.810  26.107  0.00  0.00    +0.180 C 
ATOM      6  C   UNL     1       5.652   2.484  26.650  0.00  0.00    +0.214 C 
ENDROOT
BRANCH   6   7
ATOM      7  O   UNL     1       5.781   2.363  28.088  0.00  0.00    -0.383 OA
ATOM      8  H   UNL     1       5.961   1.426  28.305  0.00  0.00    +0.210 HD
ENDBRANCH   6   7
BRANCH   5   9
ATOM      9  O   UNL     1       4.316   1.684  24.686  0.00  0.00    -0.386 OA
ATOM     10  H   UNL     1       4.126   0.761  24.425  0.00  0.00    +0.210 HD
ENDBRANCH   5   9
BRANCH   4  11
ATOM     11  O   UNL     1       4.002   0.548  28.140  0.00  0.00    -0.386 OA
ATOM     12  H   UNL     1       3.938  -0.360  28.515  0.00  0.00    +0.210 HD
ENDBRANCH   4  11
BRANCH   3  13
ATOM     13  C   UNL     1       5.579  -1.464  25.650  0.00  0.00    +0.197 C 
BRANCH  13  14
ATOM     14  O   UNL     1       6.232  -2.657  26.123  0.00  0.00    -0.346 OA
BRANCH  14  15
ATOM     15  C   UNL     1       5.504  -3.397  27.106  0.00  0.00    +0.282 C 
ATOM     16  O   UNL     1       6.380  -4.169  27.930  0.00  0.00    -0.341 OA
ATOM     17  C   UNL     1       7.065  -5.255  27.298  0.00  0.00    +0.178 C 
ATOM     18  C   UNL     1       6.139  -6.152  26.443  0.00  0.00    +0.177 C 
ATOM     19  C   UNL     1       5.107  -5.369  25.616  0.00  0.00    +0.179 C 
ATOM     20  C   UNL     1       4.425  -4.294  26.477  0.00  0.00    +0.201 C 
BRANCH  20  21
ATOM     21  O   UNL     1       3.614  -4.883  27.501  0.00  0.00    -0.384 OA
ATOM     22  H   UNL     1       3.846  -4.428  28.339  0.00  0.00    +0.210 HD
ENDBRANCH  20  21
BRANCH  19  23
ATOM     23  O   UNL     1       5.698  -4.843  24.425  0.00  0.00    -0.386 OA
ATOM     24  H   UNL     1       6.293  -4.108  24.666  0.00  0.00    +0.210 HD
ENDBRANCH  19  23
BRANCH  18  25
ATOM     25  O   UNL     1       5.403  -6.999  27.351  0.00  0.00    -0.386 OA
ATOM     26  H   UNL     1       5.158  -6.449  28.118  0.00  0.00    +0.210 HD
ENDBRANCH  18  25
BRANCH  17  27
ATOM     27  C   UNL     1       8.337  -4.765  26.595  0.00  0.00    +0.190 C 
BRANCH  27  28
ATOM     28  O   UNL     1       8.529  -5.436  25.354  0.00  0.00    -0.392 OA
ATOM     29  H   UNL     1       7.721  -5.943  25.166  0.00  0.00    +0.210 HD
ENDBRANCH  27  28
ENDBRANCH  17  27
ENDBRANCH  14  15
ENDBRANCH  13  14
ENDBRANCH   3  13
BRANCH   1  30
ATOM     30  O   UNL     1       6.924   2.154  24.506  0.00  0.00    -0.453 OA
BRANCH  30  41
ATOM     31  C   UNL     1       9.141   1.614  23.535  0.00  0.00    +0.181 A 
ATOM     32  O   UNL     1      10.430   2.086  23.139  0.00  0.00    -0.451 OA
ATOM     33  C   UNL     1      10.800   3.377  23.452  0.00  0.00    +0.147 A 
ATOM     34  C   UNL     1       9.852   4.294  23.865  0.00  0.00    +0.109 A 
ATOM     35  C   UNL     1      10.156   5.614  24.197  0.00  0.00    +0.135 A 
ATOM     36  C   UNL     1      11.451   6.060  24.017  0.00  0.00    +0.091 A 
ATOM     37  C   UNL     1      12.398   5.175  23.499  0.00  0.00    +0.124 A 
ATOM     38  C   UNL     1       8.510   3.840  23.612  0.00  0.00    +0.238 A 
ATOM     39  O   UNL     1       7.789   4.545  22.931  0.00  0.00    -0.283 OA
ATOM     40  C   UNL     1      12.098   3.826  23.250  0.00  0.00    +0.092 A 
ATOM     41  C   UNL     1       8.189   2.459  24.015  0.00  0.00    +0.214 A 
BRANCH  31  43
ATOM     42  C   UNL     1       7.742  -0.245  22.569  0.00  0.00    +0.015 A 
ATOM     43  C   UNL     1       8.942   0.166  23.198  0.00  0.00    +0.025 A 
ATOM     44  C   UNL     1       9.795  -0.843  23.662  0.00  0.00    +0.060 A 
ATOM     45  C   UNL     1       9.423  -2.191  23.567  0.00  0.00    +0.159 A 
ATOM     46  C   UNL     1       8.206  -2.562  23.009  0.00  0.00    +0.158 A 
ATOM     47  C   UNL     1       7.369  -1.596  22.481  0.00  0.00    +0.050 A 
BRANCH  46  48
ATOM     48  O   UNL     1       7.868  -3.886  23.037  0.00  0.00    -0.503 OA
ATOM     49  H   UNL     1       7.492  -4.121  22.171  0.00  0.00    +0.292 HD
ENDBRANCH  46  48
BRANCH  45  50
ATOM     50  O   UNL     1      10.252  -3.149  24.075  0.00  0.00    -0.503 OA
ATOM     51  H   UNL     1      10.726  -2.702  24.808  0.00  0.00    +0.292 HD
ENDBRANCH  45  50
ENDBRANCH  31  43
BRANCH  37  52
ATOM     52  O   UNL     1      13.647   5.622  23.180  0.00  0.00    -0.507 OA
ATOM     53  H   UNL     1      13.831   5.381  22.255  0.00  0.00    +0.292 HD
ENDBRANCH  37  52
BRANCH  35  54
ATOM     54  O   UNL     1       9.247   6.514  24.675  0.00  0.00    -0.506 OA
ATOM     55  H   UNL     1       8.524   6.640  24.035  0.00  0.00    +0.292 HD
ENDBRANCH  35  54
ENDBRANCH  30  41
ENDBRANCH   1  30
TORSDOF 18
ENDMDL
MODEL 8
REMARK VINA RESULT:      -7.1      1.974      7.228
REMARK  Name = 
REMARK  18 active torsions:
REMARK  status: ('A' for Active; 'I' for Inactive)
REMARK    1  A    between atoms: C_3  and  O_53
REMARK    2  A    between atoms: C_4  and  O_52
REMARK    3  A    between atoms: C_6  and  C_7
REMARK    4  A    between atoms: C_8  and  O_20
REMARK    5  A    between atoms: C_12  and  O_19
REMARK    6  A    between atoms: C_14  and  O_18
REMARK    7  A    between atoms: O_20  and  C_21
REMARK    8  A    between atoms: C_22  and  O_51
REMARK    9  A    between atoms: C_24  and  O_50
REMARK   10  A    between atoms: C_26  and  O_49
REMARK   11  A    between atoms: C_28  and  C_31
REMARK   12  A    between atoms: C_31  and  O_32
REMARK   13  A    between atoms: O_32  and  C_33
REMARK   14  A    between atoms: C_35  and  O_48
REMARK   15  A    between atoms: C_37  and  O_47
REMARK   16  A    between atoms: C_39  and  O_46
REMARK   17  A    between atoms: C_41  and  C_44
REMARK   18  A    between atoms: C_44  and  O_45
REMARK                            x       y       z     vdW  Elec       q    Type
REMARK                         _______ _______ _______ _____ _____    ______ ____
ROOT
ATOM      1  C   UNL     1       7.468  -2.941  26.230  0.00  0.00    +0.340 C 
ATOM      2  O   UNL     1       8.608  -2.396  25.537  0.00  0.00    -0.331 OA
ATOM      3  C   UNL     1       9.422  -3.192  24.637  0.00  0.00    +0.179 C 
ATOM      4  C   UNL     1       9.072  -4.670  24.335  0.00  0.00    +0.177 C 
ATOM      5  C   UNL     1       7.681  -4.990  24.829  0.00  0.00    +0.180 C 
ATOM      6  C   UNL     1       7.613  -4.465  26.270  0.00  0.00    +0.214 C 
ENDROOT
BRANCH   6   7
ATOM      7  O   UNL     1       8.757  -4.858  27.066  0.00  0.00    -0.383 OA
ATOM      8  H   UNL     1       9.446  -4.169  26.981  0.00  0.00    +0.210 HD
ENDBRANCH   6   7
BRANCH   5   9
ATOM      9  O   UNL     1       6.714  -4.446  23.929  0.00  0.00    -0.386 OA
ATOM     10  H   UNL     1       6.016  -5.100  23.729  0.00  0.00    +0.210 HD
ENDBRANCH   5   9
BRANCH   4  11
ATOM     11  O   UNL     1      10.039  -5.529  24.976  0.00  0.00    -0.386 OA
ATOM     12  H   UNL     1       9.683  -5.794  25.854  0.00  0.00    +0.210 HD
ENDBRANCH   4  11
BRANCH   3  13
ATOM     13  C   UNL     1       9.528  -2.409  23.320  0.00  0.00    +0.197 C 
BRANCH  13  14
ATOM     14  O   UNL     1       8.784  -1.177  23.311  0.00  0.00    -0.346 OA
BRANCH  14  15
ATOM     15  C   UNL     1       9.197  -0.228  22.324  0.00  0.00    +0.282 C 
ATOM     16  O   UNL     1      10.433   0.393  22.685  0.00  0.00    -0.341 OA
ATOM     17  C   UNL     1      10.409   1.255  23.827  0.00  0.00    +0.178 C 
ATOM     18  C   UNL     1       9.240   2.268  23.808  0.00  0.00    +0.177 C 
ATOM     19  C   UNL     1       7.908   1.671  23.326  0.00  0.00    +0.179 C 
ATOM     20  C   UNL     1       8.119   0.834  22.053  0.00  0.00    +0.201 C 
BRANCH  20  21
ATOM     21  O   UNL     1       8.504   1.658  20.946  0.00  0.00    -0.384 OA
ATOM     22  H   UNL     1       9.395   2.014  21.158  0.00  0.00    +0.210 HD
ENDBRANCH  20  21
BRANCH  19  23
ATOM     23  O   UNL     1       7.263   0.945  24.375  0.00  0.00    -0.386 OA
ATOM     24  H   UNL     1       6.419   0.587  24.040  0.00  0.00    +0.210 HD
ENDBRANCH  19  23
BRANCH  18  25
ATOM     25  O   UNL     1       9.595   3.318  22.883  0.00  0.00    -0.386 OA
ATOM     26  H   UNL     1      10.393   3.751  23.237  0.00  0.00    +0.210 HD
ENDBRANCH  18  25
BRANCH  17  27
ATOM     27  C   UNL     1      10.560   0.451  25.124  0.00  0.00    +0.190 C 
BRANCH  27  28
ATOM     28  O   UNL     1       9.352   0.457  25.877  0.00  0.00    -0.392 OA
ATOM     29  H   UNL     1       9.581   0.271  26.803  0.00  0.00    +0.210 HD
ENDBRANCH  27  28
ENDBRANCH  17  27
ENDBRANCH  14  15
ENDBRANCH  13  14
ENDBRANCH   3  13
BRANCH   1  30
ATOM     30  O   UNL     1       6.231  -2.463  25.630  0.00  0.00    -0.453 OA
BRANCH  30  41
ATOM     31  C   UNL     1       4.492  -2.473  27.397  0.00  0.00    +0.181 A 
ATOM     32  O   UNL     1       3.578  -1.716  28.192  0.00  0.00    -0.451 OA
ATOM     33  C   UNL     1       3.389  -0.379  27.913  0.00  0.00    +0.147 A 
ATOM     34  C   UNL     1       4.275   0.294  27.092  0.00  0.00    +0.109 A 
ATOM     35  C   UNL     1       4.145   1.645  26.767  0.00  0.00    +0.135 A 
ATOM     36  C   UNL     1       3.137   2.375  27.367  0.00  0.00    +0.091 A 
ATOM     37  C   UNL     1       2.300   1.735  28.282  0.00  0.00    +0.124 A 
ATOM     38  C   UNL     1       5.487  -0.449  26.876  0.00  0.00    +0.238 A 
ATOM     39  O   UNL     1       6.542   0.082  27.170  0.00  0.00    -0.283 OA
ATOM     40  C   UNL     1       2.389   0.356  28.534  0.00  0.00    +0.092 A 
ATOM     41  C   UNL     1       5.340  -1.872  26.519  0.00  0.00    +0.214 A 
BRANCH  31  43
ATOM     42  C   UNL     1       5.122  -4.324  28.986  0.00  0.00    +0.015 A 
ATOM     43  C   UNL     1       4.502  -3.924  27.777  0.00  0.00    +0.025 A 
ATOM     44  C   UNL     1       4.114  -4.940  26.895  0.00  0.00    +0.060 A 
ATOM     45  C   UNL     1       4.402  -6.282  27.180  0.00  0.00    +0.159 A 
ATOM     46  C   UNL     1       5.076  -6.639  28.342  0.00  0.00    +0.158 A 
ATOM     47  C   UNL     1       5.415  -5.668  29.266  0.00  0.00    +0.050 A 
BRANCH  46  48
ATOM     48  O   UNL     1       5.409  -7.954  28.508  0.00  0.00    -0.503 OA
ATOM     49  H   UNL     1       6.210  -7.997  29.058  0.00  0.00    +0.292 HD
ENDBRANCH  46  48
BRANCH  45  50
ATOM     50  O   UNL     1       4.057  -7.245  26.278  0.00  0.00    -0.503 OA
ATOM     51  H   UNL     1       4.913  -7.605  25.961  0.00  0.00    +0.292 HD
ENDBRANCH  45  50
ENDBRANCH  31  43
BRANCH  37  52
ATOM     52  O   UNL     1       1.387   2.457  28.994  0.00  0.00    -0.507 OA
ATOM     53  H   UNL     1       1.644   3.396  28.957  0.00  0.00    +0.292 HD
ENDBRANCH  37  52
BRANCH  35  54
ATOM     54  O   UNL     1       4.967   2.308  25.902  0.00  0.00    -0.506 OA
ATOM     55  H   UNL     1       5.878   1.973  25.974  0.00  0.00    +0.292 HD
ENDBRANCH  35  54
ENDBRANCH  30  41
ENDBRANCH   1  30
TORSDOF 18
ENDMDL
MODEL 9
REMARK VINA RESULT:      -6.9      2.089      7.420
REMARK  Name = 
REMARK  18 active torsions:
REMARK  status: ('A' for Active; 'I' for Inactive)
REMARK    1  A    between atoms: C_3  and  O_53
REMARK    2  A    between atoms: C_4  and  O_52
REMARK    3  A    between atoms: C_6  and  C_7
REMARK    4  A    between atoms: C_8  and  O_20
REMARK    5  A    between atoms: C_12  and  O_19
REMARK    6  A    between atoms: C_14  and  O_18
REMARK    7  A    between atoms: O_20  and  C_21
REMARK    8  A    between atoms: C_22  and  O_51
REMARK    9  A    between atoms: C_24  and  O_50
REMARK   10  A    between atoms: C_26  and  O_49
REMARK   11  A    between atoms: C_28  and  C_31
REMARK   12  A    between atoms: C_31  and  O_32
REMARK   13  A    between atoms: O_32  and  C_33
REMARK   14  A    between atoms: C_35  and  O_48
REMARK   15  A    between atoms: C_37  and  O_47
REMARK   16  A    between atoms: C_39  and  O_46
REMARK   17  A    between atoms: C_41  and  C_44
REMARK   18  A    between atoms: C_44  and  O_45
REMARK                            x       y       z     vdW  Elec       q    Type
REMARK                         _______ _______ _______ _____ _____    ______ ____
ROOT
ATOM      1  C   UNL     1       8.652  -1.461  25.073  0.00  0.00    +0.340 C 
ATOM      2  O   UNL     1       9.595  -0.383  24.909  0.00  0.00    -0.331 OA
ATOM      3  C   UNL     1      10.156  -0.033  23.617  0.00  0.00    +0.179 C 
ATOM      4  C   UNL     1       9.727  -0.776  22.329  0.00  0.00    +0.177 C 
ATOM      5  C   UNL     1       8.494  -1.611  22.591  0.00  0.00    +0.180 C 
ATOM      6  C   UNL     1       8.786  -2.403  23.873  0.00  0.00    +0.214 C 
ENDROOT
BRANCH   6   7
ATOM      7  O   UNL     1      10.085  -3.043  23.855  0.00  0.00    -0.383 OA
ATOM      8  H   UNL     1      10.503  -2.873  22.987  0.00  0.00    +0.210 HD
ENDBRANCH   6   7
BRANCH   5   9
ATOM      9  O   UNL     1       7.343  -0.766  22.638  0.00  0.00    -0.386 OA
ATOM     10  H   UNL     1       6.934  -0.782  23.525  0.00  0.00    +0.210 HD
ENDBRANCH   5   9
BRANCH   4  11
ATOM     11  O   UNL     1      10.811  -1.617  21.879  0.00  0.00    -0.386 OA
ATOM     12  H   UNL     1      11.551  -1.037  21.587  0.00  0.00    +0.210 HD
ENDBRANCH   4  11
BRANCH   3  13
ATOM     13  C   UNL     1       9.946   1.478  23.433  0.00  0.00    +0.197 C 
BRANCH  13  14
ATOM     14  O   UNL     1       8.601   1.917  23.695  0.00  0.00    -0.346 OA
BRANCH  14  15
ATOM     15  C   UNL     1       8.457   2.792  24.816  0.00  0.00    +0.282 C 
ATOM     16  O   UNL     1       7.116   2.786  25.312  0.00  0.00    -0.341 OA
ATOM     17  C   UNL     1       6.114   3.348  24.460  0.00  0.00    +0.178 C 
ATOM     18  C   UNL     1       6.505   4.727  23.877  0.00  0.00    +0.177 C 
ATOM     19  C   UNL     1       7.971   4.817  23.425  0.00  0.00    +0.179 C 
ATOM     20  C   UNL     1       8.905   4.227  24.494  0.00  0.00    +0.201 C 
BRANCH  20  21
ATOM     21  O   UNL     1       8.903   5.025  25.684  0.00  0.00    -0.384 OA
ATOM     22  H   UNL     1       9.591   5.715  25.560  0.00  0.00    +0.210 HD
ENDBRANCH  20  21
BRANCH  19  23
ATOM     23  O   UNL     1       8.145   4.221  22.136  0.00  0.00    -0.386 OA
ATOM     24  H   UNL     1       8.219   3.254  22.243  0.00  0.00    +0.210 HD
ENDBRANCH  19  23
BRANCH  18  25
ATOM     25  O   UNL     1       6.323   5.704  24.924  0.00  0.00    -0.386 OA
ATOM     26  H   UNL     1       5.483   6.165  24.741  0.00  0.00    +0.210 HD
ENDBRANCH  18  25
BRANCH  17  27
ATOM     27  C   UNL     1       5.623   2.317  23.436  0.00  0.00    +0.190 C 
BRANCH  27  28
ATOM     28  O   UNL     1       5.579   1.012  24.002  0.00  0.00    -0.392 OA
ATOM     29  H   UNL     1       4.937   0.491  23.490  0.00  0.00    +0.210 HD
ENDBRANCH  27  28
ENDBRANCH  17  27
ENDBRANCH  14  15
ENDBRANCH  13  14
ENDBRANCH   3  13
BRANCH   1  30
ATOM     30  O   UNL     1       7.312  -0.937  25.288  0.00  0.00    -0.453 OA
BRANCH  30  41
ATOM     31  C   UNL     1       5.787  -1.695  27.091  0.00  0.00    +0.181 A 
ATOM     32  O   UNL     1       4.966  -2.740  27.614  0.00  0.00    -0.451 OA
ATOM     33  C   UNL     1       4.998  -3.983  27.019  0.00  0.00    +0.147 A 
ATOM     34  C   UNL     1       5.566  -4.145  25.769  0.00  0.00    +0.109 A 
ATOM     35  C   UNL     1       5.632  -5.371  25.109  0.00  0.00    +0.135 A 
ATOM     36  C   UNL     1       5.017  -6.466  25.686  0.00  0.00    +0.091 A 
ATOM     37  C   UNL     1       4.346  -6.296  26.897  0.00  0.00    +0.124 A 
ATOM     38  C   UNL     1       5.787  -2.887  25.107  0.00  0.00    +0.238 A 
ATOM     39  O   UNL     1       5.278  -2.721  24.013  0.00  0.00    -0.283 OA
ATOM     40  C   UNL     1       4.360  -5.075  27.591  0.00  0.00    +0.092 A 
ATOM     41  C   UNL     1       6.429  -1.822  25.898  0.00  0.00    +0.214 A 
BRANCH  31  43
ATOM     42  C   UNL     1       4.479  -0.107  28.545  0.00  0.00    +0.015 A 
ATOM     43  C   UNL     1       5.700  -0.443  27.913  0.00  0.00    +0.025 A 
ATOM     44  C   UNL     1       6.708   0.529  27.921  0.00  0.00    +0.060 A 
ATOM     45  C   UNL     1       6.472   1.798  28.469  0.00  0.00    +0.159 A 
ATOM     46  C   UNL     1       5.238   2.123  29.019  0.00  0.00    +0.158 A 
ATOM     47  C   UNL     1       4.243   1.166  29.087  0.00  0.00    +0.050 A 
BRANCH  46  48
ATOM     48  O   UNL     1       5.049   3.408  29.445  0.00  0.00    -0.503 OA
ATOM     49  H   UNL     1       4.512   3.382  30.256  0.00  0.00    +0.292 HD
ENDBRANCH  46  48
BRANCH  45  50
ATOM     50  O   UNL     1       7.457   2.741  28.415  0.00  0.00    -0.503 OA
ATOM     51  H   UNL     1       6.979   3.597  28.414  0.00  0.00    +0.292 HD
ENDBRANCH  45  50
ENDBRANCH  31  43
BRANCH  37  52
ATOM     52  O   UNL     1       3.613  -7.321  27.421  0.00  0.00    -0.507 OA
ATOM     53  H   UNL     1       3.721  -7.312  28.388  0.00  0.00    +0.292 HD
ENDBRANCH  37  52
BRANCH  35  54
ATOM     54  O   UNL     1       6.253  -5.564  23.909  0.00  0.00    -0.506 OA
ATOM     55  H   UNL     1       6.641  -6.456  23.866  0.00  0.00    +0.292 HD
ENDBRANCH  35  54
ENDBRANCH  30  41
ENDBRANCH   1  30
TORSDOF 18
ENDMDL
