MODEL 1
REMARK VINA RESULT:      -6.4      0.000      0.000
REMARK  Name = 
REMARK  28 active torsions:
REMARK  status: ('A' for Active; 'I' for Inactive)
REMARK    1  A    between atoms: C_1  and  C_2
REMARK    2  A    between atoms: C_3  and  O_76
REMARK    3  A    between atoms: C_5  and  O_75
REMARK    4  A    between atoms: C_6  and  O_74
REMARK    5  A    between atoms: C_8  and  O_11
REMARK    6  A    between atoms: O_11  and  C_12
REMARK    7  A    between atoms: C_12  and  C_13
REMARK    8  A    between atoms: C_14  and  O_73
REMARK    9  A    between atoms: C_16  and  O_72
REMARK   10  A    between atoms: C_18  and  O_71
REMARK   11  A    between atoms: C_19  and  O_22
REMARK   12  A    between atoms: O_22  and  C_23
REMARK   13  A    between atoms: C_25  and  O_70
REMARK   14  A    between atoms: C_30  and  C_62
REMARK   15  A    between atoms: C_31  and  O_34
REMARK   16  A    between atoms: O_34  and  C_35
REMARK   17  A    between atoms: C_37  and  O_61
REMARK   18  A    between atoms: C_39  and  O_60
REMARK   19  A    between atoms: C_40  and  O_45
REMARK   20  A    between atoms: C_42  and  C_44
REMARK   21  A    between atoms: O_45  and  C_46
REMARK   22  A    between atoms: C_48  and  O_59
REMARK   23  A    between atoms: C_49  and  O_58
REMARK   24  A    between atoms: C_51  and  O_57
REMARK   25  A    between atoms: C_53  and  C_55
REMARK   26  A    between atoms: C_55  and  O_56
REMARK   27  A    between atoms: C_64  and  O_69
REMARK   28  A    between atoms: C_65  and  O_68
REMARK                            x       y       z     vdW  Elec       q    Type
REMARK                         _______ _______ _______ _____ _____    ______ ____
ROOT
ATOM      1  C   UNL     1       6.625   3.271  22.919  0.00  0.00    +0.131 A 
ATOM      2  C   UNL     1       6.288   1.966  22.510  0.00  0.00    +0.093 A 
ATOM      3  C   UNL     1       7.082   0.883  22.902  0.00  0.00    +0.147 A 
ATOM      4  O   UNL     1       6.766  -0.397  22.499  0.00  0.00    -0.451 OA
ATOM      5  C   UNL     1       7.357  -1.464  23.198  0.00  0.00    +0.181 A 
ATOM      6  C   UNL     1       8.439  -1.345  24.004  0.00  0.00    +0.214 A 
ATOM      7  C   UNL     1       9.085  -0.010  23.936  0.00  0.00    +0.238 A 
ATOM      8  O   UNL     1      10.297   0.149  24.074  0.00  0.00    -0.283 OA
ATOM      9  C   UNL     1       8.211   1.119  23.671  0.00  0.00    +0.109 A 
ATOM     10  C   UNL     1       8.495   2.393  24.158  0.00  0.00    +0.135 A 
ATOM     11  C   UNL     1       7.695   3.467  23.794  0.00  0.00    +0.092 A 
ENDROOT
BRANCH   5  12
ATOM     12  C   UNL     1       6.739  -2.768  22.874  0.00  0.00    +0.025 A 
ATOM     13  C   UNL     1       5.339  -2.899  22.964  0.00  0.00    +0.015 A 
ATOM     14  C   UNL     1       4.715  -4.126  22.726  0.00  0.00    +0.050 A 
ATOM     15  C   UNL     1       5.490  -5.225  22.397  0.00  0.00    +0.158 A 
ATOM     16  C   UNL     1       6.875  -5.111  22.292  0.00  0.00    +0.159 A 
ATOM     17  C   UNL     1       7.511  -3.890  22.527  0.00  0.00    +0.060 A 
BRANCH  16  18
ATOM     18  O   UNL     1       7.577  -6.244  21.977  0.00  0.00    -0.503 OA
ATOM     19  H   UNL     1       8.349  -6.292  22.567  0.00  0.00    +0.292 HD
ENDBRANCH  16  18
BRANCH  15  20
ATOM     20  O   UNL     1       4.879  -6.429  22.188  0.00  0.00    -0.503 OA
ATOM     21  H   UNL     1       4.263  -6.271  21.447  0.00  0.00    +0.292 HD
ENDBRANCH  15  20
ENDBRANCH   5  12
BRANCH  10  22
ATOM     22  O   UNL     1       9.545   2.587  25.009  0.00  0.00    -0.506 OA
ATOM     23  H   UNL     1       9.872   3.498  24.930  0.00  0.00    +0.292 HD
ENDBRANCH  10  22
BRANCH   6  24
ATOM     24  O   UNL     1       8.931  -2.373  24.795  0.00  0.00    -0.453 OA
BRANCH  24  25
ATOM     25  C   UNL     1       8.862  -2.258  26.230  0.00  0.00    +0.339 C 
ATOM     26  O   UNL     1       8.777  -3.573  26.802  0.00  0.00    -0.334 OA
ATOM     27  C   UNL     1       7.612  -4.323  26.423  0.00  0.00    +0.151 C 
ATOM     28  C   UNL     1       7.711  -5.593  27.274  0.00  0.00    +0.041 C 
ATOM     29  C   UNL     1       6.281  -3.576  26.698  0.00  0.00    +0.181 C 
ATOM     30  C   UNL     1       6.352  -2.077  26.421  0.00  0.00    +0.180 C 
ATOM     31  C   UNL     1       7.677  -1.448  26.818  0.00  0.00    +0.214 C 
BRANCH  31  32
ATOM     32  O   UNL     1       7.566  -0.067  26.443  0.00  0.00    -0.383 OA
ATOM     33  H   UNL     1       8.461   0.235  26.168  0.00  0.00    +0.210 HD
ENDBRANCH  31  32
BRANCH  30  34
ATOM     34  O   UNL     1       5.292  -1.424  27.158  0.00  0.00    -0.386 OA
ATOM     35  H   UNL     1       4.656  -2.127  27.396  0.00  0.00    +0.210 HD
ENDBRANCH  30  34
BRANCH  29  36
ATOM     36  O   UNL     1       5.095  -4.181  26.145  0.00  0.00    -0.340 OA
BRANCH  36  37
ATOM     37  C   UNL     1       4.288  -5.081  26.923  0.00  0.00    +0.282 C 
ATOM     38  O   UNL     1       3.745  -6.198  26.215  0.00  0.00    -0.341 OA
ATOM     39  C   UNL     1       2.801  -5.890  25.162  0.00  0.00    +0.178 C 
ATOM     40  C   UNL     1       1.686  -4.888  25.547  0.00  0.00    +0.177 C 
ATOM     41  C   UNL     1       2.250  -3.714  26.350  0.00  0.00    +0.179 C 
ATOM     42  C   UNL     1       3.092  -4.293  27.508  0.00  0.00    +0.201 C 
BRANCH  42  43
ATOM     43  O   UNL     1       3.492  -3.270  28.419  0.00  0.00    -0.384 OA
ATOM     44  H   UNL     1       2.833  -3.254  29.135  0.00  0.00    +0.210 HD
ENDBRANCH  42  43
BRANCH  41  45
ATOM     45  O   UNL     1       2.960  -2.833  25.473  0.00  0.00    -0.386 OA
ATOM     46  H   UNL     1       2.376  -2.069  25.276  0.00  0.00    +0.210 HD
ENDBRANCH  41  45
BRANCH  40  47
ATOM     47  O   UNL     1       0.667  -5.531  26.325  0.00  0.00    -0.386 OA
ATOM     48  H   UNL     1      -0.174  -5.421  25.843  0.00  0.00    +0.210 HD
ENDBRANCH  40  47
BRANCH  39  49
ATOM     49  C   UNL     1       2.188  -7.224  24.681  0.00  0.00    +0.190 C 
BRANCH  49  50
ATOM     50  O   UNL     1       3.084  -7.990  23.872  0.00  0.00    -0.392 OA
ATOM     51  H   UNL     1       2.738  -8.898  23.826  0.00  0.00    +0.210 HD
ENDBRANCH  49  50
ENDBRANCH  39  49
ENDBRANCH  36  37
ENDBRANCH  29  36
ENDBRANCH  24  25
ENDBRANCH   6  24
BRANCH   1  52
ATOM     52  O   UNL     1       5.850   4.300  22.442  0.00  0.00    -0.461 OA
BRANCH  52  55
ATOM     53  C   UNL     1       2.916   3.573  24.569  0.00  0.00    +0.179 C 
ATOM     54  O   UNL     1       4.132   3.393  23.813  0.00  0.00    -0.331 OA
ATOM     55  C   UNL     1       4.644   4.588  23.188  0.00  0.00    +0.339 C 
ATOM     56  C   UNL     1       3.583   5.153  22.213  0.00  0.00    +0.214 C 
ATOM     57  C   UNL     1       2.294   5.436  23.000  0.00  0.00    +0.180 C 
ATOM     58  C   UNL     1       1.797   4.153  23.677  0.00  0.00    +0.177 C 
BRANCH  57  59
ATOM     59  O   UNL     1       1.264   5.975  22.167  0.00  0.00    -0.386 OA
ATOM     60  H   UNL     1       0.450   5.942  22.709  0.00  0.00    +0.210 HD
ENDBRANCH  57  59
BRANCH  56  61
ATOM     61  O   UNL     1       3.314   4.214  21.154  0.00  0.00    -0.383 OA
ATOM     62  H   UNL     1       3.971   4.365  20.449  0.00  0.00    +0.210 HD
ENDBRANCH  56  61
BRANCH  58  63
ATOM     63  O   UNL     1       0.580   4.452  24.368  0.00  0.00    -0.386 OA
ATOM     64  H   UNL     1      -0.065   4.765  23.706  0.00  0.00    +0.210 HD
ENDBRANCH  58  63
BRANCH  53  65
ATOM     65  C   UNL     1       3.172   4.352  25.877  0.00  0.00    +0.197 C 
BRANCH  65  66
ATOM     66  O   UNL     1       2.968   3.515  27.011  0.00  0.00    -0.346 OA
BRANCH  66  70
ATOM     67  C   UNL     1       6.048   5.276  29.490  0.00  0.00    +0.041 C 
ATOM     68  C   UNL     1       6.291   4.487  28.204  0.00  0.00    +0.149 C 
ATOM     69  O   UNL     1       5.096   4.409  27.414  0.00  0.00    -0.343 OA
ATOM     70  C   UNL     1       4.075   3.546  27.921  0.00  0.00    +0.282 C 
ATOM     71  C   UNL     1       4.592   2.103  28.125  0.00  0.00    +0.201 C 
ATOM     72  C   UNL     1       5.841   2.123  29.014  0.00  0.00    +0.179 C 
ATOM     73  C   UNL     1       6.890   3.097  28.457  0.00  0.00    +0.174 C 
BRANCH  71  74
ATOM     74  O   UNL     1       4.942   1.494  26.861  0.00  0.00    -0.384 OA
ATOM     75  H   UNL     1       4.140   1.580  26.310  0.00  0.00    +0.210 HD
ENDBRANCH  71  74
BRANCH  72  76
ATOM     76  O   UNL     1       6.396   0.799  29.074  0.00  0.00    -0.386 OA
ATOM     77  H   UNL     1       7.296   0.872  28.689  0.00  0.00    +0.210 HD
ENDBRANCH  72  76
BRANCH  73  78
ATOM     78  O   UNL     1       7.398   2.555  27.223  0.00  0.00    -0.387 OA
ATOM     79  H   UNL     1       8.131   1.944  27.468  0.00  0.00    +0.210 HD
ENDBRANCH  73  78
ENDBRANCH  66  70
ENDBRANCH  65  66
ENDBRANCH  53  65
ENDBRANCH  52  55
ENDBRANCH   1  52
TORSDOF 26
ENDMDL
MODEL 2
REMARK VINA RESULT:      -6.3      2.014      9.404
REMARK  Name = 
REMARK  28 active torsions:
REMARK  status: ('A' for Active; 'I' for Inactive)
REMARK    1  A    between atoms: C_1  and  C_2
REMARK    2  A    between atoms: C_3  and  O_76
REMARK    3  A    between atoms: C_5  and  O_75
REMARK    4  A    between atoms: C_6  and  O_74
REMARK    5  A    between atoms: C_8  and  O_11
REMARK    6  A    between atoms: O_11  and  C_12
REMARK    7  A    between atoms: C_12  and  C_13
REMARK    8  A    between atoms: C_14  and  O_73
REMARK    9  A    between atoms: C_16  and  O_72
REMARK   10  A    between atoms: C_18  and  O_71
REMARK   11  A    between atoms: C_19  and  O_22
REMARK   12  A    between atoms: O_22  and  C_23
REMARK   13  A    between atoms: C_25  and  O_70
REMARK   14  A    between atoms: C_30  and  C_62
REMARK   15  A    between atoms: C_31  and  O_34
REMARK   16  A    between atoms: O_34  and  C_35
REMARK   17  A    between atoms: C_37  and  O_61
REMARK   18  A    between atoms: C_39  and  O_60
REMARK   19  A    between atoms: C_40  and  O_45
REMARK   20  A    between atoms: C_42  and  C_44
REMARK   21  A    between atoms: O_45  and  C_46
REMARK   22  A    between atoms: C_48  and  O_59
REMARK   23  A    between atoms: C_49  and  O_58
REMARK   24  A    between atoms: C_51  and  O_57
REMARK   25  A    between atoms: C_53  and  C_55
REMARK   26  A    between atoms: C_55  and  O_56
REMARK   27  A    between atoms: C_64  and  O_69
REMARK   28  A    between atoms: C_65  and  O_68
REMARK                            x       y       z     vdW  Elec       q    Type
REMARK                         _______ _______ _______ _____ _____    ______ ____
ROOT
ATOM      1  C   UNL     1       9.432  -2.402  23.968  0.00  0.00    +0.131 A 
ATOM      2  C   UNL     1       9.061  -1.471  24.957  0.00  0.00    +0.093 A 
ATOM      3  C   UNL     1       8.982  -0.110  24.642  0.00  0.00    +0.147 A 
ATOM      4  O   UNL     1       8.629   0.811  25.605  0.00  0.00    -0.451 OA
ATOM      5  C   UNL     1       8.215   2.082  25.171  0.00  0.00    +0.181 A 
ATOM      6  C   UNL     1       8.439   2.577  23.929  0.00  0.00    +0.214 A 
ATOM      7  C   UNL     1       9.346   1.734  23.110  0.00  0.00    +0.238 A 
ATOM      8  O   UNL     1      10.117   2.206  22.276  0.00  0.00    -0.283 OA
ATOM      9  C   UNL     1       9.300   0.304  23.357  0.00  0.00    +0.109 A 
ATOM     10  C   UNL     1       9.574  -0.620  22.352  0.00  0.00    +0.135 A 
ATOM     11  C   UNL     1       9.626  -1.974  22.653  0.00  0.00    +0.092 A 
ENDROOT
BRANCH   5  12
ATOM     12  C   UNL     1       7.598   2.881  26.251  0.00  0.00    +0.025 A 
ATOM     13  C   UNL     1       6.815   2.224  27.221  0.00  0.00    +0.015 A 
ATOM     14  C   UNL     1       6.164   2.943  28.227  0.00  0.00    +0.050 A 
ATOM     15  C   UNL     1       6.296   4.321  28.265  0.00  0.00    +0.158 A 
ATOM     16  C   UNL     1       7.076   4.986  27.322  0.00  0.00    +0.159 A 
ATOM     17  C   UNL     1       7.733   4.278  26.312  0.00  0.00    +0.060 A 
BRANCH  16  18
ATOM     18  O   UNL     1       7.148   6.350  27.414  0.00  0.00    -0.503 OA
ATOM     19  H   UNL     1       6.549   6.728  26.747  0.00  0.00    +0.292 HD
ENDBRANCH  16  18
BRANCH  15  20
ATOM     20  O   UNL     1       5.640   5.024  29.235  0.00  0.00    -0.503 OA
ATOM     21  H   UNL     1       6.298   5.140  29.948  0.00  0.00    +0.292 HD
ENDBRANCH  15  20
ENDBRANCH   5  12
BRANCH  10  22
ATOM     22  O   UNL     1       9.770  -0.203  21.067  0.00  0.00    -0.506 OA
ATOM     23  H   UNL     1       9.328  -0.809  20.450  0.00  0.00    +0.292 HD
ENDBRANCH  10  22
BRANCH   6  24
ATOM     24  O   UNL     1       7.909   3.772  23.466  0.00  0.00    -0.453 OA
BRANCH  24  25
ATOM     25  C   UNL     1       7.218   3.798  22.202  0.00  0.00    +0.339 C 
ATOM     26  O   UNL     1       6.836   5.150  21.904  0.00  0.00    -0.334 OA
ATOM     27  C   UNL     1       5.929   5.744  22.847  0.00  0.00    +0.151 C 
ATOM     28  C   UNL     1       5.591   7.098  22.214  0.00  0.00    +0.041 C 
ATOM     29  C   UNL     1       4.645   4.907  23.079  0.00  0.00    +0.181 C 
ATOM     30  C   UNL     1       4.891   3.400  23.096  0.00  0.00    +0.180 C 
ATOM     31  C   UNL     1       5.928   2.943  22.083  0.00  0.00    +0.214 C 
BRANCH  31  32
ATOM     32  O   UNL     1       6.050   1.527  22.282  0.00  0.00    -0.383 OA
ATOM     33  H   UNL     1       5.392   1.269  22.966  0.00  0.00    +0.210 HD
ENDBRANCH  31  32
BRANCH  30  34
ATOM     34  O   UNL     1       3.642   2.729  22.811  0.00  0.00    -0.386 OA
ATOM     35  H   UNL     1       3.253   2.504  23.679  0.00  0.00    +0.210 HD
ENDBRANCH  30  34
BRANCH  29  36
ATOM     36  O   UNL     1       3.802   5.337  24.167  0.00  0.00    -0.340 OA
BRANCH  36  37
ATOM     37  C   UNL     1       3.965   4.799  25.490  0.00  0.00    +0.282 C 
ATOM     38  O   UNL     1       3.212   3.617  25.776  0.00  0.00    -0.341 OA
ATOM     39  C   UNL     1       1.772   3.756  25.756  0.00  0.00    +0.178 C 
ATOM     40  C   UNL     1       1.214   4.968  26.542  0.00  0.00    +0.177 C 
ATOM     41  C   UNL     1       2.045   6.226  26.282  0.00  0.00    +0.179 C 
ATOM     42  C   UNL     1       3.530   5.871  26.517  0.00  0.00    +0.201 C 
BRANCH  42  43
ATOM     43  O   UNL     1       4.352   7.037  26.487  0.00  0.00    -0.384 OA
ATOM     44  H   UNL     1       3.944   7.687  27.084  0.00  0.00    +0.210 HD
ENDBRANCH  42  43
BRANCH  41  45
ATOM     45  O   UNL     1       1.747   6.733  24.977  0.00  0.00    -0.386 OA
ATOM     46  H   UNL     1       2.416   6.373  24.355  0.00  0.00    +0.210 HD
ENDBRANCH  41  45
BRANCH  40  47
ATOM     47  O   UNL     1       1.208   4.703  27.952  0.00  0.00    -0.386 OA
ATOM     48  H   UNL     1       0.306   4.415  28.186  0.00  0.00    +0.210 HD
ENDBRANCH  40  47
BRANCH  39  49
ATOM     49  C   UNL     1       1.169   2.439  26.292  0.00  0.00    +0.190 C 
BRANCH  49  50
ATOM     50  O   UNL     1       2.119   1.371  26.344  0.00  0.00    -0.392 OA
ATOM     51  H   UNL     1       3.007   1.767  26.344  0.00  0.00    +0.210 HD
ENDBRANCH  49  50
ENDBRANCH  39  49
ENDBRANCH  36  37
ENDBRANCH  29  36
ENDBRANCH  24  25
ENDBRANCH   6  24
BRANCH   1  52
ATOM     52  O   UNL     1       9.562  -3.713  24.356  0.00  0.00    -0.461 OA
BRANCH  52  55
ATOM     53  C   UNL     1       6.049  -3.942  25.482  0.00  0.00    +0.179 C 
ATOM     54  O   UNL     1       7.291  -3.399  24.986  0.00  0.00    -0.331 OA
ATOM     55  C   UNL     1       8.360  -4.357  24.840  0.00  0.00    +0.339 C 
ATOM     56  C   UNL     1       8.663  -5.002  26.214  0.00  0.00    +0.214 C 
ATOM     57  C   UNL     1       7.381  -5.664  26.739  0.00  0.00    +0.180 C 
ATOM     58  C   UNL     1       6.258  -4.626  26.851  0.00  0.00    +0.177 C 
BRANCH  57  59
ATOM     59  O   UNL     1       7.584  -6.295  28.007  0.00  0.00    -0.386 OA
ATOM     60  H   UNL     1       7.648  -7.252  27.811  0.00  0.00    +0.210 HD
ENDBRANCH  57  59
BRANCH  56  61
ATOM     61  O   UNL     1       9.122  -4.008  27.151  0.00  0.00    -0.383 OA
ATOM     62  H   UNL     1       8.937  -3.130  26.767  0.00  0.00    +0.210 HD
ENDBRANCH  56  61
BRANCH  58  63
ATOM     63  O   UNL     1       5.096  -5.274  27.376  0.00  0.00    -0.386 OA
ATOM     64  H   UNL     1       5.398  -5.949  28.013  0.00  0.00    +0.210 HD
ENDBRANCH  58  63
BRANCH  53  65
ATOM     65  C   UNL     1       5.349  -4.818  24.420  0.00  0.00    +0.197 C 
BRANCH  65  66
ATOM     66  O   UNL     1       4.114  -4.234  24.019  0.00  0.00    -0.346 OA
BRANCH  66  70
ATOM     67  C   UNL     1       1.402  -6.261  26.716  0.00  0.00    +0.041 C 
ATOM     68  C   UNL     1       2.364  -6.947  25.747  0.00  0.00    +0.149 C 
ATOM     69  O   UNL     1       3.395  -6.046  25.318  0.00  0.00    -0.343 OA
ATOM     70  C   UNL     1       2.982  -5.023  24.410  0.00  0.00    +0.282 C 
ATOM     71  C   UNL     1       2.325  -5.613  23.140  0.00  0.00    +0.201 C 
ATOM     72  C   UNL     1       1.174  -6.543  23.540  0.00  0.00    +0.179 C 
ATOM     73  C   UNL     1       1.652  -7.596  24.552  0.00  0.00    +0.174 C 
BRANCH  71  74
ATOM     74  O   UNL     1       3.280  -6.375  22.368  0.00  0.00    -0.384 OA
ATOM     75  H   UNL     1       3.451  -5.834  21.573  0.00  0.00    +0.210 HD
ENDBRANCH  71  74
BRANCH  72  76
ATOM     76  O   UNL     1       0.670  -7.198  22.366  0.00  0.00    -0.386 OA
ATOM     77  H   UNL     1       0.488  -6.482  21.720  0.00  0.00    +0.210 HD
ENDBRANCH  72  76
BRANCH  73  78
ATOM     78  O   UNL     1       2.554  -8.493  23.877  0.00  0.00    -0.387 OA
ATOM     79  H   UNL     1       2.621  -9.298  24.440  0.00  0.00    +0.210 HD
ENDBRANCH  73  78
ENDBRANCH  66  70
ENDBRANCH  65  66
ENDBRANCH  53  65
ENDBRANCH  52  55
ENDBRANCH   1  52
TORSDOF 26
ENDMDL
MODEL 3
REMARK VINA RESULT:      -6.0      2.395      5.418
REMARK  Name = 
REMARK  28 active torsions:
REMARK  status: ('A' for Active; 'I' for Inactive)
REMARK    1  A    between atoms: C_1  and  C_2
REMARK    2  A    between atoms: C_3  and  O_76
REMARK    3  A    between atoms: C_5  and  O_75
REMARK    4  A    between atoms: C_6  and  O_74
REMARK    5  A    between atoms: C_8  and  O_11
REMARK    6  A    between atoms: O_11  and  C_12
REMARK    7  A    between atoms: C_12  and  C_13
REMARK    8  A    between atoms: C_14  and  O_73
REMARK    9  A    between atoms: C_16  and  O_72
REMARK   10  A    between atoms: C_18  and  O_71
REMARK   11  A    between atoms: C_19  and  O_22
REMARK   12  A    between atoms: O_22  and  C_23
REMARK   13  A    between atoms: C_25  and  O_70
REMARK   14  A    between atoms: C_30  and  C_62
REMARK   15  A    between atoms: C_31  and  O_34
REMARK   16  A    between atoms: O_34  and  C_35
REMARK   17  A    between atoms: C_37  and  O_61
REMARK   18  A    between atoms: C_39  and  O_60
REMARK   19  A    between atoms: C_40  and  O_45
REMARK   20  A    between atoms: C_42  and  C_44
REMARK   21  A    between atoms: O_45  and  C_46
REMARK   22  A    between atoms: C_48  and  O_59
REMARK   23  A    between atoms: C_49  and  O_58
REMARK   24  A    between atoms: C_51  and  O_57
REMARK   25  A    between atoms: C_53  and  C_55
REMARK   26  A    between atoms: C_55  and  O_56
REMARK   27  A    between atoms: C_64  and  O_69
REMARK   28  A    between atoms: C_65  and  O_68
REMARK                            x       y       z     vdW  Elec       q    Type
REMARK                         _______ _______ _______ _____ _____    ______ ____
ROOT
ATOM      1  C   UNL     1       9.786   1.144  22.488  0.00  0.00    +0.131 A 
ATOM      2  C   UNL     1       8.776   1.201  23.467  0.00  0.00    +0.093 A 
ATOM      3  C   UNL     1       7.896   0.125  23.628  0.00  0.00    +0.147 A 
ATOM      4  O   UNL     1       6.897   0.176  24.577  0.00  0.00    -0.451 OA
ATOM      5  C   UNL     1       6.289  -1.036  24.947  0.00  0.00    +0.181 A 
ATOM      6  C   UNL     1       6.370  -2.184  24.230  0.00  0.00    +0.214 A 
ATOM      7  C   UNL     1       7.000  -2.007  22.898  0.00  0.00    +0.238 A 
ATOM      8  O   UNL     1       6.677  -2.674  21.916  0.00  0.00    -0.283 OA
ATOM      9  C   UNL     1       8.019  -0.977  22.795  0.00  0.00    +0.109 A 
ATOM     10  C   UNL     1       9.074  -1.080  21.892  0.00  0.00    +0.135 A 
ATOM     11  C   UNL     1       9.966  -0.027  21.747  0.00  0.00    +0.092 A 
ENDROOT
BRANCH   5  12
ATOM     12  C   UNL     1       5.446  -0.906  26.155  0.00  0.00    +0.025 A 
ATOM     13  C   UNL     1       5.656  -1.793  27.229  0.00  0.00    +0.015 A 
ATOM     14  C   UNL     1       4.847  -1.749  28.367  0.00  0.00    +0.050 A 
ATOM     15  C   UNL     1       3.826  -0.815  28.433  0.00  0.00    +0.158 A 
ATOM     16  C   UNL     1       3.612   0.078  27.386  0.00  0.00    +0.159 A 
ATOM     17  C   UNL     1       4.415   0.044  26.243  0.00  0.00    +0.060 A 
BRANCH  16  18
ATOM     18  O   UNL     1       2.575   0.963  27.515  0.00  0.00    -0.503 OA
ATOM     19  H   UNL     1       1.789   0.567  27.101  0.00  0.00    +0.292 HD
ENDBRANCH  16  18
BRANCH  15  20
ATOM     20  O   UNL     1       3.021  -0.788  29.537  0.00  0.00    -0.503 OA
ATOM     21  H   UNL     1       2.290  -0.185  29.299  0.00  0.00    +0.292 HD
ENDBRANCH  15  20
ENDBRANCH   5  12
BRANCH  10  22
ATOM     22  O   UNL     1       9.248  -2.221  21.163  0.00  0.00    -0.506 OA
ATOM     23  H   UNL     1       9.046  -2.998  21.709  0.00  0.00    +0.292 HD
ENDBRANCH  10  22
BRANCH   6  24
ATOM     24  O   UNL     1       5.884  -3.406  24.669  0.00  0.00    -0.453 OA
BRANCH  24  25
ATOM     25  C   UNL     1       6.679  -4.593  24.485  0.00  0.00    +0.339 C 
ATOM     26  O   UNL     1       5.814  -5.691  24.151  0.00  0.00    -0.334 OA
ATOM     27  C   UNL     1       4.851  -6.030  25.161  0.00  0.00    +0.151 C 
ATOM     28  C   UNL     1       4.182  -7.293  24.608  0.00  0.00    +0.041 C 
ATOM     29  C   UNL     1       5.484  -6.303  26.550  0.00  0.00    +0.181 C 
ATOM     30  C   UNL     1       6.651  -5.378  26.883  0.00  0.00    +0.180 C 
ATOM     31  C   UNL     1       7.537  -5.064  25.689  0.00  0.00    +0.214 C 
BRANCH  31  32
ATOM     32  O   UNL     1       8.534  -4.159  26.187  0.00  0.00    -0.383 OA
ATOM     33  H   UNL     1       8.925  -3.698  25.411  0.00  0.00    +0.210 HD
ENDBRANCH  31  32
BRANCH  30  34
ATOM     34  O   UNL     1       7.460  -6.010  27.903  0.00  0.00    -0.386 OA
ATOM     35  H   UNL     1       8.233  -5.427  28.034  0.00  0.00    +0.210 HD
ENDBRANCH  30  34
BRANCH  29  36
ATOM     36  O   UNL     1       4.558  -6.436  27.647  0.00  0.00    -0.340 OA
BRANCH  36  37
ATOM     37  C   UNL     1       3.149  -6.602  27.414  0.00  0.00    +0.282 C 
ATOM     38  O   UNL     1       2.482  -5.482  26.825  0.00  0.00    -0.341 OA
ATOM     39  C   UNL     1       2.446  -4.271  27.616  0.00  0.00    +0.178 C 
ATOM     40  C   UNL     1       2.013  -4.457  29.091  0.00  0.00    +0.177 C 
ATOM     41  C   UNL     1       2.684  -5.684  29.714  0.00  0.00    +0.179 C 
ATOM     42  C   UNL     1       2.454  -6.882  28.767  0.00  0.00    +0.201 C 
BRANCH  42  43
ATOM     43  O   UNL     1       2.877  -8.105  29.368  0.00  0.00    -0.384 OA
ATOM     44  H   UNL     1       3.658  -8.408  28.874  0.00  0.00    +0.210 HD
ENDBRANCH  42  43
BRANCH  41  45
ATOM     45  O   UNL     1       4.057  -5.389  29.988  0.00  0.00    -0.386 OA
ATOM     46  H   UNL     1       4.091  -4.839  30.800  0.00  0.00    +0.210 HD
ENDBRANCH  41  45
BRANCH  40  47
ATOM     47  O   UNL     1       0.591  -4.610  29.190  0.00  0.00    -0.386 OA
ATOM     48  H   UNL     1       0.424  -5.398  29.741  0.00  0.00    +0.210 HD
ENDBRANCH  40  47
BRANCH  39  49
ATOM     49  C   UNL     1       1.511  -3.273  26.899  0.00  0.00    +0.190 C 
BRANCH  49  50
ATOM     50  O   UNL     1       2.108  -2.681  25.742  0.00  0.00    -0.392 OA
ATOM     51  H   UNL     1       2.451  -3.402  25.187  0.00  0.00    +0.210 HD
ENDBRANCH  49  50
ENDBRANCH  39  49
ENDBRANCH  36  37
ENDBRANCH  29  36
ENDBRANCH  24  25
ENDBRANCH   6  24
BRANCH   1  52
ATOM     52  O   UNL     1      10.571   2.260  22.328  0.00  0.00    -0.461 OA
BRANCH  52  55
ATOM     53  C   UNL     1       9.144   5.207  24.042  0.00  0.00    +0.179 C 
ATOM     54  O   UNL     1       9.336   4.146  23.082  0.00  0.00    -0.331 OA
ATOM     55  C   UNL     1      10.453   3.274  23.353  0.00  0.00    +0.339 C 
ATOM     56  C   UNL     1      11.759   4.104  23.379  0.00  0.00    +0.214 C 
ATOM     57  C   UNL     1      11.624   5.197  24.450  0.00  0.00    +0.180 C 
ATOM     58  C   UNL     1      10.410   6.084  24.150  0.00  0.00    +0.177 C 
BRANCH  57  59
ATOM     59  O   UNL     1      12.802   6.004  24.545  0.00  0.00    -0.386 OA
ATOM     60  H   UNL     1      12.949   6.352  23.641  0.00  0.00    +0.210 HD
ENDBRANCH  57  59
BRANCH  56  61
ATOM     61  O   UNL     1      12.004   4.706  22.093  0.00  0.00    -0.383 OA
ATOM     62  H   UNL     1      11.315   4.389  21.480  0.00  0.00    +0.210 HD
ENDBRANCH  56  61
BRANCH  58  63
ATOM     63  O   UNL     1      10.342   7.107  25.149  0.00  0.00    -0.386 OA
ATOM     64  H   UNL     1       9.771   7.819  24.803  0.00  0.00    +0.210 HD
ENDBRANCH  58  63
BRANCH  53  65
ATOM     65  C   UNL     1       8.614   4.665  25.388  0.00  0.00    +0.197 C 
BRANCH  65  66
ATOM     66  O   UNL     1       7.430   5.353  25.778  0.00  0.00    -0.346 OA
BRANCH  66  70
ATOM     67  C   UNL     1       4.001   6.388  23.348  0.00  0.00    +0.041 C 
ATOM     68  C   UNL     1       3.967   5.512  24.599  0.00  0.00    +0.149 C 
ATOM     69  O   UNL     1       5.145   5.703  25.395  0.00  0.00    -0.343 OA
ATOM     70  C   UNL     1       6.348   5.143  24.862  0.00  0.00    +0.282 C 
ATOM     71  C   UNL     1       6.207   3.626  24.598  0.00  0.00    +0.201 C 
ATOM     72  C   UNL     1       4.990   3.369  23.701  0.00  0.00    +0.179 C 
ATOM     73  C   UNL     1       3.732   4.028  24.288  0.00  0.00    +0.174 C 
BRANCH  71  74
ATOM     74  O   UNL     1       6.023   2.899  25.833  0.00  0.00    -0.384 OA
ATOM     75  H   UNL     1       5.642   3.550  26.455  0.00  0.00    +0.210 HD
ENDBRANCH  71  74
BRANCH  72  76
ATOM     76  O   UNL     1       4.782   1.953  23.585  0.00  0.00    -0.386 OA
ATOM     77  H   UNL     1       5.039   1.721  22.666  0.00  0.00    +0.210 HD
ENDBRANCH  72  76
BRANCH  73  78
ATOM     78  O   UNL     1       3.379   3.327  25.495  0.00  0.00    -0.387 OA
ATOM     79  H   UNL     1       2.926   2.498  25.214  0.00  0.00    +0.210 HD
ENDBRANCH  73  78
ENDBRANCH  66  70
ENDBRANCH  65  66
ENDBRANCH  53  65
ENDBRANCH  52  55
ENDBRANCH   1  52
TORSDOF 26
ENDMDL
MODEL 4
REMARK VINA RESULT:      -5.8      2.178      5.411
REMARK  Name = 
REMARK  28 active torsions:
REMARK  status: ('A' for Active; 'I' for Inactive)
REMARK    1  A    between atoms: C_1  and  C_2
REMARK    2  A    between atoms: C_3  and  O_76
REMARK    3  A    between atoms: C_5  and  O_75
REMARK    4  A    between atoms: C_6  and  O_74
REMARK    5  A    between atoms: C_8  and  O_11
REMARK    6  A    between atoms: O_11  and  C_12
REMARK    7  A    between atoms: C_12  and  C_13
REMARK    8  A    between atoms: C_14  and  O_73
REMARK    9  A    between atoms: C_16  and  O_72
REMARK   10  A    between atoms: C_18  and  O_71
REMARK   11  A    between atoms: C_19  and  O_22
REMARK   12  A    between atoms: O_22  and  C_23
REMARK   13  A    between atoms: C_25  and  O_70
REMARK   14  A    between atoms: C_30  and  C_62
REMARK   15  A    between atoms: C_31  and  O_34
REMARK   16  A    between atoms: O_34  and  C_35
REMARK   17  A    between atoms: C_37  and  O_61
REMARK   18  A    between atoms: C_39  and  O_60
REMARK   19  A    between atoms: C_40  and  O_45
REMARK   20  A    between atoms: C_42  and  C_44
REMARK   21  A    between atoms: O_45  and  C_46
REMARK   22  A    between atoms: C_48  and  O_59
REMARK   23  A    between atoms: C_49  and  O_58
REMARK   24  A    between atoms: C_51  and  O_57
REMARK   25  A    between atoms: C_53  and  C_55
REMARK   26  A    between atoms: C_55  and  O_56
REMARK   27  A    between atoms: C_64  and  O_69
REMARK   28  A    between atoms: C_65  and  O_68
REMARK                            x       y       z     vdW  Elec       q    Type
REMARK                         _______ _______ _______ _____ _____    ______ ____
ROOT
ATOM      1  C   UNL     1       5.307   3.623  27.281  0.00  0.00    +0.131 A 
ATOM      2  C   UNL     1       5.783   2.471  26.627  0.00  0.00    +0.093 A 
ATOM      3  C   UNL     1       5.483   1.203  27.137  0.00  0.00    +0.147 A 
ATOM      4  O   UNL     1       5.953   0.069  26.510  0.00  0.00    -0.451 OA
ATOM      5  C   UNL     1       5.340  -1.154  26.831  0.00  0.00    +0.181 A 
ATOM      6  C   UNL     1       4.563  -1.357  27.923  0.00  0.00    +0.214 A 
ATOM      7  C   UNL     1       4.570  -0.219  28.875  0.00  0.00    +0.238 A 
ATOM      8  O   UNL     1       4.461  -0.371  30.091  0.00  0.00    -0.283 OA
ATOM      9  C   UNL     1       4.737   1.104  28.301  0.00  0.00    +0.109 A 
ATOM     10  C   UNL     1       4.183   2.234  28.897  0.00  0.00    +0.135 A 
ATOM     11  C   UNL     1       4.455   3.493  28.380  0.00  0.00    +0.092 A 
ENDROOT
BRANCH   5  12
ATOM     12  C   UNL     1       5.722  -2.244  25.907  0.00  0.00    +0.025 A 
ATOM     13  C   UNL     1       6.802  -3.080  26.252  0.00  0.00    +0.015 A 
ATOM     14  C   UNL     1       7.239  -4.086  25.385  0.00  0.00    +0.050 A 
ATOM     15  C   UNL     1       6.594  -4.257  24.171  0.00  0.00    +0.158 A 
ATOM     16  C   UNL     1       5.516  -3.447  23.819  0.00  0.00    +0.159 A 
ATOM     17  C   UNL     1       5.070  -2.439  24.678  0.00  0.00    +0.060 A 
BRANCH  16  18
ATOM     18  O   UNL     1       4.938  -3.665  22.597  0.00  0.00    -0.503 OA
ATOM     19  H   UNL     1       4.718  -2.800  22.211  0.00  0.00    +0.292 HD
ENDBRANCH  16  18
BRANCH  15  20
ATOM     20  O   UNL     1       7.037  -5.225  23.316  0.00  0.00    -0.503 OA
ATOM     21  H   UNL     1       7.779  -5.653  23.786  0.00  0.00    +0.292 HD
ENDBRANCH  15  20
ENDBRANCH   5  12
BRANCH  10  22
ATOM     22  O   UNL     1       3.356   2.109  29.976  0.00  0.00    -0.506 OA
ATOM     23  H   UNL     1       3.782   2.480  30.766  0.00  0.00    +0.292 HD
ENDBRANCH  10  22
BRANCH   6  24
ATOM     24  O   UNL     1       3.852  -2.525  28.159  0.00  0.00    -0.453 OA
BRANCH  24  25
ATOM     25  C   UNL     1       2.456  -2.446  28.508  0.00  0.00    +0.339 C 
ATOM     26  O   UNL     1       2.018  -3.729  28.984  0.00  0.00    -0.334 OA
ATOM     27  C   UNL     1       2.112  -4.794  28.024  0.00  0.00    +0.151 C 
ATOM     28  C   UNL     1       1.458  -5.980  28.740  0.00  0.00    +0.041 C 
ATOM     29  C   UNL     1       1.386  -4.486  26.689  0.00  0.00    +0.181 C 
ATOM     30  C   UNL     1       1.520  -3.034  26.239  0.00  0.00    +0.180 C 
ATOM     31  C   UNL     1       1.468  -2.036  27.384  0.00  0.00    +0.214 C 
BRANCH  31  32
ATOM     32  O   UNL     1       1.654  -0.751  26.773  0.00  0.00    -0.383 OA
ATOM     33  H   UNL     1       2.217  -0.883  25.977  0.00  0.00    +0.210 HD
ENDBRANCH  31  32
BRANCH  30  34
ATOM     34  O   UNL     1       0.444  -2.738  25.319  0.00  0.00    -0.386 OA
ATOM     35  H   UNL     1      -0.218  -2.232  25.832  0.00  0.00    +0.210 HD
ENDBRANCH  30  34
BRANCH  29  36
ATOM     36  O   UNL     1       1.624  -5.418  25.615  0.00  0.00    -0.340 OA
BRANCH  36  37
ATOM     37  C   UNL     1       0.536  -6.091  24.959  0.00  0.00    +0.282 C 
ATOM     38  O   UNL     1       0.443  -7.498  25.195  0.00  0.00    -0.341 OA
ATOM     39  C   UNL     1       1.543  -8.302  24.705  0.00  0.00    +0.178 C 
ATOM     40  C   UNL     1       1.971  -8.015  23.245  0.00  0.00    +0.177 C 
ATOM     41  C   UNL     1       2.023  -6.510  22.969  0.00  0.00    +0.179 C 
ATOM     42  C   UNL     1       0.683  -5.897  23.432  0.00  0.00    +0.201 C 
BRANCH  42  43
ATOM     43  O   UNL     1       0.573  -4.533  23.030  0.00  0.00    -0.384 OA
ATOM     44  H   UNL     1      -0.287  -4.211  23.351  0.00  0.00    +0.210 HD
ENDBRANCH  42  43
BRANCH  41  45
ATOM     45  O   UNL     1       3.186  -5.952  23.589  0.00  0.00    -0.386 OA
ATOM     46  H   UNL     1       2.904  -5.164  24.103  0.00  0.00    +0.210 HD
ENDBRANCH  41  45
BRANCH  40  47
ATOM     47  O   UNL     1       1.062  -8.623  22.318  0.00  0.00    -0.386 OA
ATOM     48  H   UNL     1       1.595  -8.952  21.569  0.00  0.00    +0.210 HD
ENDBRANCH  40  47
BRANCH  39  49
ATOM     49  C   UNL     1       1.146  -9.785  24.872  0.00  0.00    +0.190 C 
BRANCH  49  50
ATOM     50  O   UNL     1       1.603 -10.350  26.104  0.00  0.00    -0.392 OA
ATOM     51  H   UNL     1       2.535 -10.602  25.984  0.00  0.00    +0.210 HD
ENDBRANCH  49  50
ENDBRANCH  39  49
ENDBRANCH  36  37
ENDBRANCH  29  36
ENDBRANCH  24  25
ENDBRANCH   6  24
BRANCH   1  52
ATOM     52  O   UNL     1       5.695   4.840  26.774  0.00  0.00    -0.461 OA
BRANCH  52  55
ATOM     53  C   UNL     1       8.209   5.922  24.290  0.00  0.00    +0.179 C 
ATOM     54  O   UNL     1       7.423   5.860  25.499  0.00  0.00    -0.331 OA
ATOM     55  C   UNL     1       6.440   4.805  25.534  0.00  0.00    +0.339 C 
ATOM     56  C   UNL     1       5.450   4.987  24.358  0.00  0.00    +0.214 C 
ATOM     57  C   UNL     1       6.243   4.975  23.043  0.00  0.00    +0.180 C 
ATOM     58  C   UNL     1       7.300   6.086  23.053  0.00  0.00    +0.177 C 
BRANCH  57  59
ATOM     59  O   UNL     1       5.392   5.127  21.902  0.00  0.00    -0.386 OA
ATOM     60  H   UNL     1       4.550   4.693  22.150  0.00  0.00    +0.210 HD
ENDBRANCH  57  59
BRANCH  56  61
ATOM     61  O   UNL     1       4.731   6.229  24.486  0.00  0.00    -0.383 OA
ATOM     62  H   UNL     1       3.784   6.016  24.579  0.00  0.00    +0.210 HD
ENDBRANCH  56  61
BRANCH  58  63
ATOM     63  O   UNL     1       7.989   6.063  21.799  0.00  0.00    -0.386 OA
ATOM     64  H   UNL     1       8.388   5.178  21.699  0.00  0.00    +0.210 HD
ENDBRANCH  58  63
BRANCH  53  65
ATOM     65  C   UNL     1       9.213   4.751  24.206  0.00  0.00    +0.197 C 
BRANCH  65  66
ATOM     66  O   UNL     1       8.870   3.868  23.142  0.00  0.00    -0.346 OA
BRANCH  66  70
ATOM     67  C   UNL     1      10.804   0.349  24.760  0.00  0.00    +0.041 C 
ATOM     68  C   UNL     1      10.514   0.598  23.281  0.00  0.00    +0.149 C 
ATOM     69  O   UNL     1      10.266   1.989  23.031  0.00  0.00    -0.343 OA
ATOM     70  C   UNL     1       9.015   2.489  23.508  0.00  0.00    +0.282 C 
ATOM     71  C   UNL     1       7.821   1.694  22.930  0.00  0.00    +0.201 C 
ATOM     72  C   UNL     1       8.007   0.200  23.221  0.00  0.00    +0.179 C 
ATOM     73  C   UNL     1       9.382  -0.282  22.735  0.00  0.00    +0.174 C 
BRANCH  71  74
ATOM     74  O   UNL     1       7.724   1.871  21.499  0.00  0.00    -0.384 OA
ATOM     75  H   UNL     1       7.093   1.186  21.203  0.00  0.00    +0.210 HD
ENDBRANCH  71  74
BRANCH  72  76
ATOM     76  O   UNL     1       6.973  -0.541  22.554  0.00  0.00    -0.386 OA
ATOM     77  H   UNL     1       6.154  -0.011  22.664  0.00  0.00    +0.210 HD
ENDBRANCH  72  76
BRANCH  73  78
ATOM     78  O   UNL     1       9.388  -0.245  21.295  0.00  0.00    -0.387 OA
ATOM     79  H   UNL     1       9.858   0.583  21.040  0.00  0.00    +0.210 HD
ENDBRANCH  73  78
ENDBRANCH  66  70
ENDBRANCH  65  66
ENDBRANCH  53  65
ENDBRANCH  52  55
ENDBRANCH   1  52
TORSDOF 26
ENDMDL
MODEL 5
REMARK VINA RESULT:      -5.5      2.110      9.561
REMARK  Name = 
REMARK  28 active torsions:
REMARK  status: ('A' for Active; 'I' for Inactive)
REMARK    1  A    between atoms: C_1  and  C_2
REMARK    2  A    between atoms: C_3  and  O_76
REMARK    3  A    between atoms: C_5  and  O_75
REMARK    4  A    between atoms: C_6  and  O_74
REMARK    5  A    between atoms: C_8  and  O_11
REMARK    6  A    between atoms: O_11  and  C_12
REMARK    7  A    between atoms: C_12  and  C_13
REMARK    8  A    between atoms: C_14  and  O_73
REMARK    9  A    between atoms: C_16  and  O_72
REMARK   10  A    between atoms: C_18  and  O_71
REMARK   11  A    between atoms: C_19  and  O_22
REMARK   12  A    between atoms: O_22  and  C_23
REMARK   13  A    between atoms: C_25  and  O_70
REMARK   14  A    between atoms: C_30  and  C_62
REMARK   15  A    between atoms: C_31  and  O_34
REMARK   16  A    between atoms: O_34  and  C_35
REMARK   17  A    between atoms: C_37  and  O_61
REMARK   18  A    between atoms: C_39  and  O_60
REMARK   19  A    between atoms: C_40  and  O_45
REMARK   20  A    between atoms: C_42  and  C_44
REMARK   21  A    between atoms: O_45  and  C_46
REMARK   22  A    between atoms: C_48  and  O_59
REMARK   23  A    between atoms: C_49  and  O_58
REMARK   24  A    between atoms: C_51  and  O_57
REMARK   25  A    between atoms: C_53  and  C_55
REMARK   26  A    between atoms: C_55  and  O_56
REMARK   27  A    between atoms: C_64  and  O_69
REMARK   28  A    between atoms: C_65  and  O_68
REMARK                            x       y       z     vdW  Elec       q    Type
REMARK                         _______ _______ _______ _____ _____    ______ ____
ROOT
ATOM      1  C   UNL     1       3.160  -1.898  26.618  0.00  0.00    +0.131 A 
ATOM      2  C   UNL     1       2.740  -0.755  27.325  0.00  0.00    +0.093 A 
ATOM      3  C   UNL     1       3.628   0.306  27.530  0.00  0.00    +0.147 A 
ATOM      4  O   UNL     1       3.230   1.425  28.229  0.00  0.00    -0.451 OA
ATOM      5  C   UNL     1       4.010   2.587  28.097  0.00  0.00    +0.181 A 
ATOM      6  C   UNL     1       5.274   2.610  27.610  0.00  0.00    +0.214 A 
ATOM      7  C   UNL     1       5.855   1.259  27.407  0.00  0.00    +0.238 A 
ATOM      8  O   UNL     1       7.054   1.024  27.548  0.00  0.00    -0.283 OA
ATOM      9  C   UNL     1       4.925   0.202  27.050  0.00  0.00    +0.109 A 
ATOM     10  C   UNL     1       5.317  -0.882  26.268  0.00  0.00    +0.135 A 
ATOM     11  C   UNL     1       4.431  -1.925  26.039  0.00  0.00    +0.092 A 
ENDROOT
BRANCH   5  12
ATOM     12  C   UNL     1       3.345   3.786  28.653  0.00  0.00    +0.025 A 
ATOM     13  C   UNL     1       3.787   4.296  29.890  0.00  0.00    +0.015 A 
ATOM     14  C   UNL     1       3.152   5.389  30.485  0.00  0.00    +0.050 A 
ATOM     15  C   UNL     1       2.075   5.976  29.842  0.00  0.00    +0.158 A 
ATOM     16  C   UNL     1       1.633   5.494  28.612  0.00  0.00    +0.159 A 
ATOM     17  C   UNL     1       2.260   4.401  28.007  0.00  0.00    +0.060 A 
BRANCH  16  18
ATOM     18  O   UNL     1       0.553   6.115  28.043  0.00  0.00    -0.503 OA
ATOM     19  H   UNL     1       0.224   5.547  27.326  0.00  0.00    +0.292 HD
ENDBRANCH  16  18
BRANCH  15  20
ATOM     20  O   UNL     1       1.442   7.031  30.436  0.00  0.00    -0.503 OA
ATOM     21  H   UNL     1       1.601   7.787  29.837  0.00  0.00    +0.292 HD
ENDBRANCH  15  20
ENDBRANCH   5  12
BRANCH  10  22
ATOM     22  O   UNL     1       6.561  -0.914  25.707  0.00  0.00    -0.506 OA
ATOM     23  H   UNL     1       6.598  -0.309  24.947  0.00  0.00    +0.292 HD
ENDBRANCH  10  22
BRANCH   6  24
ATOM     24  O   UNL     1       5.984   3.774  27.355  0.00  0.00    -0.453 OA
BRANCH  24  25
ATOM     25  C   UNL     1       5.481   4.712  26.383  0.00  0.00    +0.339 C 
ATOM     26  O   UNL     1       4.865   3.987  25.306  0.00  0.00    -0.334 OA
ATOM     27  C   UNL     1       5.748   3.119  24.578  0.00  0.00    +0.151 C 
ATOM     28  C   UNL     1       4.876   2.602  23.430  0.00  0.00    +0.041 C 
ATOM     29  C   UNL     1       7.008   3.840  24.032  0.00  0.00    +0.181 C 
ATOM     30  C   UNL     1       7.576   4.887  24.987  0.00  0.00    +0.180 C 
ATOM     31  C   UNL     1       6.510   5.673  25.730  0.00  0.00    +0.214 C 
BRANCH  31  32
ATOM     32  O   UNL     1       7.231   6.561  26.597  0.00  0.00    -0.383 OA
ATOM     33  H   UNL     1       7.251   6.147  27.489  0.00  0.00    +0.210 HD
ENDBRANCH  31  32
BRANCH  30  34
ATOM     34  O   UNL     1       8.384   5.813  24.223  0.00  0.00    -0.386 OA
ATOM     35  H   UNL     1       8.547   6.577  24.811  0.00  0.00    +0.210 HD
ENDBRANCH  30  34
BRANCH  29  36
ATOM     36  O   UNL     1       8.032   2.986  23.483  0.00  0.00    -0.340 OA
BRANCH  36  37
ATOM     37  C   UNL     1       7.768   1.602  23.193  0.00  0.00    +0.282 C 
ATOM     38  O   UNL     1       8.158   0.671  24.206  0.00  0.00    -0.341 OA
ATOM     39  C   UNL     1       9.575   0.585  24.484  0.00  0.00    +0.178 C 
ATOM     40  C   UNL     1      10.486   0.457  23.239  0.00  0.00    +0.177 C 
ATOM     41  C   UNL     1      10.045   1.414  22.129  0.00  0.00    +0.179 C 
ATOM     42  C   UNL     1       8.530   1.213  21.904  0.00  0.00    +0.201 C 
BRANCH  42  43
ATOM     43  O   UNL     1       8.079   1.925  20.754  0.00  0.00    -0.384 OA
ATOM     44  H   UNL     1       7.184   2.250  20.954  0.00  0.00    +0.210 HD
ENDBRANCH  42  43
BRANCH  41  45
ATOM     45  O   UNL     1      10.429   2.750  22.471  0.00  0.00    -0.386 OA
ATOM     46  H   UNL     1      10.144   3.341  21.742  0.00  0.00    +0.210 HD
ENDBRANCH  41  45
BRANCH  40  47
ATOM     47  O   UNL     1      10.466  -0.883  22.727  0.00  0.00    -0.386 OA
ATOM     48  H   UNL     1       9.573  -1.241  22.896  0.00  0.00    +0.210 HD
ENDBRANCH  40  47
BRANCH  39  49
ATOM     49  C   UNL     1       9.792  -0.610  25.439  0.00  0.00    +0.190 C 
BRANCH  49  50
ATOM     50  O   UNL     1       9.212  -0.405  26.730  0.00  0.00    -0.392 OA
ATOM     51  H   UNL     1       9.462  -1.161  27.289  0.00  0.00    +0.210 HD
ENDBRANCH  49  50
ENDBRANCH  39  49
ENDBRANCH  36  37
ENDBRANCH  29  36
ENDBRANCH  24  25
ENDBRANCH   6  24
BRANCH   1  52
ATOM     52  O   UNL     1       2.267  -2.937  26.513  0.00  0.00    -0.461 OA
BRANCH  52  55
ATOM     53  C   UNL     1       2.440  -6.155  24.704  0.00  0.00    +0.179 C 
ATOM     54  O   UNL     1       1.981  -4.859  25.144  0.00  0.00    -0.331 OA
ATOM     55  C   UNL     1       2.821  -4.216  26.125  0.00  0.00    +0.339 C 
ATOM     56  C   UNL     1       2.921  -5.113  27.383  0.00  0.00    +0.214 C 
ATOM     57  C   UNL     1       3.485  -6.480  26.967  0.00  0.00    +0.180 C 
ATOM     58  C   UNL     1       2.588  -7.119  25.901  0.00  0.00    +0.177 C 
BRANCH  57  59
ATOM     59  O   UNL     1       3.620  -7.366  28.082  0.00  0.00    -0.386 OA
ATOM     60  H   UNL     1       3.891  -8.224  27.698  0.00  0.00    +0.210 HD
ENDBRANCH  57  59
BRANCH  56  61
ATOM     61  O   UNL     1       1.626  -5.281  27.991  0.00  0.00    -0.383 OA
ATOM     62  H   UNL     1       1.121  -5.914  27.446  0.00  0.00    +0.210 HD
ENDBRANCH  56  61
BRANCH  58  63
ATOM     63  O   UNL     1       3.128  -8.403  25.569  0.00  0.00    -0.386 OA
ATOM     64  H   UNL     1       3.616  -8.728  26.350  0.00  0.00    +0.210 HD
ENDBRANCH  58  63
BRANCH  53  65
ATOM     65  C   UNL     1       3.692  -6.039  23.807  0.00  0.00    +0.197 C 
BRANCH  65  66
ATOM     66  O   UNL     1       4.880  -6.196  24.576  0.00  0.00    -0.346 OA
BRANCH  66  70
ATOM     67  C   UNL     1       7.285  -3.472  22.223  0.00  0.00    +0.041 C 
ATOM     68  C   UNL     1       7.818  -4.662  23.019  0.00  0.00    +0.149 C 
ATOM     69  O   UNL     1       6.769  -5.589  23.327  0.00  0.00    -0.343 OA
ATOM     70  C   UNL     1       5.837  -5.158  24.322  0.00  0.00    +0.282 C 
ATOM     71  C   UNL     1       6.541  -4.796  25.650  0.00  0.00    +0.201 C 
ATOM     72  C   UNL     1       7.640  -3.760  25.386  0.00  0.00    +0.179 C 
ATOM     73  C   UNL     1       8.589  -4.244  24.278  0.00  0.00    +0.174 C 
BRANCH  71  74
ATOM     74  O   UNL     1       7.149  -5.962  26.250  0.00  0.00    -0.384 OA
ATOM     75  H   UNL     1       6.399  -6.526  26.522  0.00  0.00    +0.210 HD
ENDBRANCH  71  74
BRANCH  72  76
ATOM     76  O   UNL     1       8.383  -3.544  26.596  0.00  0.00    -0.386 OA
ATOM     77  H   UNL     1       9.038  -2.845  26.384  0.00  0.00    +0.210 HD
ENDBRANCH  72  76
BRANCH  73  78
ATOM     78  O   UNL     1       9.337  -5.366  24.785  0.00  0.00    -0.387 OA
ATOM     79  H   UNL     1       9.955  -5.005  25.462  0.00  0.00    +0.210 HD
ENDBRANCH  73  78
ENDBRANCH  66  70
ENDBRANCH  65  66
ENDBRANCH  53  65
ENDBRANCH  52  55
ENDBRANCH   1  52
TORSDOF 26
ENDMDL
MODEL 6
REMARK VINA RESULT:      -5.5      1.970      5.091
REMARK  Name = 
REMARK  28 active torsions:
REMARK  status: ('A' for Active; 'I' for Inactive)
REMARK    1  A    between atoms: C_1  and  C_2
REMARK    2  A    between atoms: C_3  and  O_76
REMARK    3  A    between atoms: C_5  and  O_75
REMARK    4  A    between atoms: C_6  and  O_74
REMARK    5  A    between atoms: C_8  and  O_11
REMARK    6  A    between atoms: O_11  and  C_12
REMARK    7  A    between atoms: C_12  and  C_13
REMARK    8  A    between atoms: C_14  and  O_73
REMARK    9  A    between atoms: C_16  and  O_72
REMARK   10  A    between atoms: C_18  and  O_71
REMARK   11  A    between atoms: C_19  and  O_22
REMARK   12  A    between atoms: O_22  and  C_23
REMARK   13  A    between atoms: C_25  and  O_70
REMARK   14  A    between atoms: C_30  and  C_62
REMARK   15  A    between atoms: C_31  and  O_34
REMARK   16  A    between atoms: O_34  and  C_35
REMARK   17  A    between atoms: C_37  and  O_61
REMARK   18  A    between atoms: C_39  and  O_60
REMARK   19  A    between atoms: C_40  and  O_45
REMARK   20  A    between atoms: C_42  and  C_44
REMARK   21  A    between atoms: O_45  and  C_46
REMARK   22  A    between atoms: C_48  and  O_59
REMARK   23  A    between atoms: C_49  and  O_58
REMARK   24  A    between atoms: C_51  and  O_57
REMARK   25  A    between atoms: C_53  and  C_55
REMARK   26  A    between atoms: C_55  and  O_56
REMARK   27  A    between atoms: C_64  and  O_69
REMARK   28  A    between atoms: C_65  and  O_68
REMARK                            x       y       z     vdW  Elec       q    Type
REMARK                         _______ _______ _______ _____ _____    ______ ____
ROOT
ATOM      1  C   UNL     1       2.345   4.204  25.694  0.00  0.00    +0.131 A 
ATOM      2  C   UNL     1       3.502   3.534  25.251  0.00  0.00    +0.093 A 
ATOM      3  C   UNL     1       4.061   2.516  26.030  0.00  0.00    +0.147 A 
ATOM      4  O   UNL     1       5.199   1.860  25.611  0.00  0.00    -0.451 OA
ATOM      5  C   UNL     1       5.506   0.632  26.222  0.00  0.00    +0.181 A 
ATOM      6  C   UNL     1       4.971   0.205  27.392  0.00  0.00    +0.214 A 
ATOM      7  C   UNL     1       4.168   1.240  28.090  0.00  0.00    +0.238 A 
ATOM      8  O   UNL     1       4.097   1.309  29.316  0.00  0.00    -0.283 OA
ATOM      9  C   UNL     1       3.477   2.200  27.247  0.00  0.00    +0.109 A 
ATOM     10  C   UNL     1       2.280   2.791  27.645  0.00  0.00    +0.135 A 
ATOM     11  C   UNL     1       1.706   3.783  26.862  0.00  0.00    +0.092 A 
ENDROOT
BRANCH   5  12
ATOM     12  C   UNL     1       6.569  -0.109  25.511  0.00  0.00    +0.025 A 
ATOM     13  C   UNL     1       7.850  -0.188  26.093  0.00  0.00    +0.015 A 
ATOM     14  C   UNL     1       8.903  -0.825  25.432  0.00  0.00    +0.050 A 
ATOM     15  C   UNL     1       8.677  -1.387  24.187  0.00  0.00    +0.158 A 
ATOM     16  C   UNL     1       7.414  -1.330  23.601  0.00  0.00    +0.159 A 
ATOM     17  C   UNL     1       6.353  -0.695  24.252  0.00  0.00    +0.060 A 
BRANCH  16  18
ATOM     18  O   UNL     1       7.269  -1.894  22.362  0.00  0.00    -0.503 OA
ATOM     19  H   UNL     1       8.019  -2.495  22.216  0.00  0.00    +0.292 HD
ENDBRANCH  16  18
BRANCH  15  20
ATOM     20  O   UNL     1       9.713  -1.990  23.533  0.00  0.00    -0.503 OA
ATOM     21  H   UNL     1       9.287  -2.585  22.886  0.00  0.00    +0.292 HD
ENDBRANCH  15  20
ENDBRANCH   5  12
BRANCH  10  22
ATOM     22  O   UNL     1       1.658   2.386  28.790  0.00  0.00    -0.506 OA
ATOM     23  H   UNL     1       2.229   1.771  29.279  0.00  0.00    +0.292 HD
ENDBRANCH  10  22
BRANCH   6  24
ATOM     24  O   UNL     1       5.174  -1.063  27.917  0.00  0.00    -0.453 OA
BRANCH  24  25
ATOM     25  C   UNL     1       4.037  -1.865  28.293  0.00  0.00    +0.339 C 
ATOM     26  O   UNL     1       4.483  -3.196  28.600  0.00  0.00    -0.334 OA
ATOM     27  C   UNL     1       5.098  -3.895  27.507  0.00  0.00    +0.151 C 
ATOM     28  C   UNL     1       5.335  -5.300  28.069  0.00  0.00    +0.041 C 
ATOM     29  C   UNL     1       4.213  -3.951  26.234  0.00  0.00    +0.181 C 
ATOM     30  C   UNL     1       3.427  -2.668  25.979  0.00  0.00    +0.180 C 
ATOM     31  C   UNL     1       2.901  -2.015  27.246  0.00  0.00    +0.214 C 
BRANCH  31  32
ATOM     32  O   UNL     1       2.240  -0.819  26.809  0.00  0.00    -0.383 OA
ATOM     33  H   UNL     1       2.879  -0.078  26.906  0.00  0.00    +0.210 HD
ENDBRANCH  31  32
BRANCH  30  34
ATOM     34  O   UNL     1       2.304  -2.981  25.122  0.00  0.00    -0.386 OA
ATOM     35  H   UNL     1       2.422  -3.914  24.853  0.00  0.00    +0.210 HD
ENDBRANCH  30  34
BRANCH  29  36
ATOM     36  O   UNL     1       4.856  -4.446  25.043  0.00  0.00    -0.340 OA
BRANCH  36  37
ATOM     37  C   UNL     1       5.548  -5.707  25.042  0.00  0.00    +0.282 C 
ATOM     38  O   UNL     1       6.944  -5.650  25.346  0.00  0.00    -0.341 OA
ATOM     39  C   UNL     1       7.774  -4.928  24.405  0.00  0.00    +0.178 C 
ATOM     40  C   UNL     1       7.549  -5.287  22.916  0.00  0.00    +0.177 C 
ATOM     41  C   UNL     1       6.057  -5.401  22.593  0.00  0.00    +0.179 C 
ATOM     42  C   UNL     1       5.417  -6.342  23.637  0.00  0.00    +0.201 C 
BRANCH  42  43
ATOM     43  O   UNL     1       4.069  -6.657  23.292  0.00  0.00    -0.384 OA
ATOM     44  H   UNL     1       3.521  -6.450  24.069  0.00  0.00    +0.210 HD
ENDBRANCH  42  43
BRANCH  41  45
ATOM     45  O   UNL     1       5.481  -4.092  22.531  0.00  0.00    -0.386 OA
ATOM     46  H   UNL     1       6.162  -3.449  22.826  0.00  0.00    +0.210 HD
ENDBRANCH  41  45
BRANCH  40  47
ATOM     47  O   UNL     1       8.187  -6.528  22.587  0.00  0.00    -0.386 OA
ATOM     48  H   UNL     1       7.495  -7.216  22.593  0.00  0.00    +0.210 HD
ENDBRANCH  40  47
BRANCH  39  49
ATOM     49  C   UNL     1       9.247  -5.168  24.803  0.00  0.00    +0.190 C 
BRANCH  49  50
ATOM     50  O   UNL     1       9.417  -6.309  25.648  0.00  0.00    -0.392 OA
ATOM     51  H   UNL     1       8.646  -6.888  25.521  0.00  0.00    +0.210 HD
ENDBRANCH  49  50
ENDBRANCH  39  49
ENDBRANCH  36  37
ENDBRANCH  29  36
ENDBRANCH  24  25
ENDBRANCH   6  24
BRANCH   1  52
ATOM     52  O   UNL     1       1.885   5.244  24.922  0.00  0.00    -0.461 OA
BRANCH  52  55
ATOM     53  C   UNL     1       3.804   7.092  22.360  0.00  0.00    +0.179 C 
ATOM     54  O   UNL     1       3.118   6.781  23.591  0.00  0.00    -0.331 OA
ATOM     55  C   UNL     1       2.566   5.450  23.661  0.00  0.00    +0.339 C 
ATOM     56  C   UNL     1       1.547   5.255  22.513  0.00  0.00    +0.214 C 
ATOM     57  C   UNL     1       2.263   5.498  21.176  0.00  0.00    +0.180 C 
ATOM     58  C   UNL     1       2.865   6.908  21.148  0.00  0.00    +0.177 C 
BRANCH  57  59
ATOM     59  O   UNL     1       1.387   5.324  20.058  0.00  0.00    -0.386 OA
ATOM     60  H   UNL     1       0.761   4.621  20.329  0.00  0.00    +0.210 HD
ENDBRANCH  57  59
BRANCH  56  61
ATOM     61  O   UNL     1       0.443   6.170  22.651  0.00  0.00    -0.383 OA
ATOM     62  H   UNL     1       0.738   7.042  22.331  0.00  0.00    +0.210 HD
ENDBRANCH  56  61
BRANCH  58  63
ATOM     63  O   UNL     1       3.490   7.106  19.875  0.00  0.00    -0.386 OA
ATOM     64  H   UNL     1       4.231   6.474  19.810  0.00  0.00    +0.210 HD
ENDBRANCH  58  63
BRANCH  53  65
ATOM     65  C   UNL     1       5.151   6.344  22.257  0.00  0.00    +0.197 C 
BRANCH  65  66
ATOM     66  O   UNL     1       5.962   6.606  23.397  0.00  0.00    -0.346 OA
BRANCH  66  70
ATOM     67  C   UNL     1       7.597   3.985  26.429  0.00  0.00    +0.041 C 
ATOM     68  C   UNL     1       8.394   4.639  25.302  0.00  0.00    +0.149 C 
ATOM     69  O   UNL     1       7.680   5.750  24.742  0.00  0.00    -0.343 OA
ATOM     70  C   UNL     1       6.546   5.414  23.939  0.00  0.00    +0.282 C 
ATOM     71  C   UNL     1       6.928   4.473  22.773  0.00  0.00    +0.201 C 
ATOM     72  C   UNL     1       7.647   3.235  23.323  0.00  0.00    +0.179 C 
ATOM     73  C   UNL     1       8.828   3.644  24.217  0.00  0.00    +0.174 C 
BRANCH  71  74
ATOM     74  O   UNL     1       7.810   5.135  21.839  0.00  0.00    -0.384 OA
ATOM     75  H   UNL     1       8.167   5.901  22.330  0.00  0.00    +0.210 HD
ENDBRANCH  71  74
BRANCH  72  76
ATOM     76  O   UNL     1       8.127   2.444  22.224  0.00  0.00    -0.386 OA
ATOM     77  H   UNL     1       7.840   2.915  21.412  0.00  0.00    +0.210 HD
ENDBRANCH  72  76
BRANCH  73  78
ATOM     78  O   UNL     1       9.837   4.244  23.383  0.00  0.00    -0.387 OA
ATOM     79  H   UNL     1      10.182   5.021  23.879  0.00  0.00    +0.210 HD
ENDBRANCH  73  78
ENDBRANCH  66  70
ENDBRANCH  65  66
ENDBRANCH  53  65
ENDBRANCH  52  55
ENDBRANCH   1  52
TORSDOF 26
ENDMDL
MODEL 7
REMARK VINA RESULT:      -5.2      2.219      4.464
REMARK  Name = 
REMARK  28 active torsions:
REMARK  status: ('A' for Active; 'I' for Inactive)
REMARK    1  A    between atoms: C_1  and  C_2
REMARK    2  A    between atoms: C_3  and  O_76
REMARK    3  A    between atoms: C_5  and  O_75
REMARK    4  A    between atoms: C_6  and  O_74
REMARK    5  A    between atoms: C_8  and  O_11
REMARK    6  A    between atoms: O_11  and  C_12
REMARK    7  A    between atoms: C_12  and  C_13
REMARK    8  A    between atoms: C_14  and  O_73
REMARK    9  A    between atoms: C_16  and  O_72
REMARK   10  A    between atoms: C_18  and  O_71
REMARK   11  A    between atoms: C_19  and  O_22
REMARK   12  A    between atoms: O_22  and  C_23
REMARK   13  A    between atoms: C_25  and  O_70
REMARK   14  A    between atoms: C_30  and  C_62
REMARK   15  A    between atoms: C_31  and  O_34
REMARK   16  A    between atoms: O_34  and  C_35
REMARK   17  A    between atoms: C_37  and  O_61
REMARK   18  A    between atoms: C_39  and  O_60
REMARK   19  A    between atoms: C_40  and  O_45
REMARK   20  A    between atoms: C_42  and  C_44
REMARK   21  A    between atoms: O_45  and  C_46
REMARK   22  A    between atoms: C_48  and  O_59
REMARK   23  A    between atoms: C_49  and  O_58
REMARK   24  A    between atoms: C_51  and  O_57
REMARK   25  A    between atoms: C_53  and  C_55
REMARK   26  A    between atoms: C_55  and  O_56
REMARK   27  A    between atoms: C_64  and  O_69
REMARK   28  A    between atoms: C_65  and  O_68
REMARK                            x       y       z     vdW  Elec       q    Type
REMARK                         _______ _______ _______ _____ _____    ______ ____
ROOT
ATOM      1  C   UNL     1       2.858   3.301  25.349  0.00  0.00    +0.131 A 
ATOM      2  C   UNL     1       4.121   2.965  24.825  0.00  0.00    +0.093 A 
ATOM      3  C   UNL     1       4.889   1.968  25.435  0.00  0.00    +0.147 A 
ATOM      4  O   UNL     1       6.131   1.638  24.936  0.00  0.00    -0.451 OA
ATOM      5  C   UNL     1       6.693   0.415  25.341  0.00  0.00    +0.181 A 
ATOM      6  C   UNL     1       6.273  -0.302  26.412  0.00  0.00    +0.214 A 
ATOM      7  C   UNL     1       5.286   0.416  27.256  0.00  0.00    +0.238 A 
ATOM      8  O   UNL     1       5.218   0.263  28.474  0.00  0.00    -0.283 OA
ATOM      9  C   UNL     1       4.399   1.340  26.571  0.00  0.00    +0.109 A 
ATOM     10  C   UNL     1       3.113   1.599  27.036  0.00  0.00    +0.135 A 
ATOM     11  C   UNL     1       2.336   2.569  26.417  0.00  0.00    +0.092 A 
ENDROOT
BRANCH   5  12
ATOM     12  C   UNL     1       7.876   0.037  24.539  0.00  0.00    +0.025 A 
ATOM     13  C   UNL     1       9.159   0.215  25.093  0.00  0.00    +0.015 A 
ATOM     14  C   UNL     1      10.309  -0.071  24.352  0.00  0.00    +0.050 A 
ATOM     15  C   UNL     1      10.177  -0.538  23.055  0.00  0.00    +0.158 A 
ATOM     16  C   UNL     1       8.916  -0.732  22.495  0.00  0.00    +0.159 A 
ATOM     17  C   UNL     1       7.759  -0.450  23.226  0.00  0.00    +0.060 A 
BRANCH  16  18
ATOM     18  O   UNL     1       8.864  -1.182  21.203  0.00  0.00    -0.503 OA
ATOM     19  H   UNL     1       9.056  -0.431  20.616  0.00  0.00    +0.292 HD
ENDBRANCH  16  18
BRANCH  15  20
ATOM     20  O   UNL     1      11.302  -0.796  22.325  0.00  0.00    -0.503 OA
ATOM     21  H   UNL     1      11.996  -0.240  22.732  0.00  0.00    +0.292 HD
ENDBRANCH  15  20
ENDBRANCH   5  12
BRANCH  10  22
ATOM     22  O   UNL     1       2.603   0.889  28.084  0.00  0.00    -0.506 OA
ATOM     23  H   UNL     1       2.123   0.111  27.756  0.00  0.00    +0.292 HD
ENDBRANCH  10  22
BRANCH   6  24
ATOM     24  O   UNL     1       6.740  -1.570  26.723  0.00  0.00    -0.453 OA
BRANCH  24  25
ATOM     25  C   UNL     1       7.046  -2.494  25.660  0.00  0.00    +0.339 C 
ATOM     26  O   UNL     1       5.822  -2.920  25.042  0.00  0.00    -0.334 OA
ATOM     27  C   UNL     1       4.919  -3.624  25.910  0.00  0.00    +0.151 C 
ATOM     28  C   UNL     1       3.795  -4.072  24.970  0.00  0.00    +0.041 C 
ATOM     29  C   UNL     1       5.567  -4.842  26.616  0.00  0.00    +0.181 C 
ATOM     30  C   UNL     1       7.013  -4.604  27.043  0.00  0.00    +0.180 C 
ATOM     31  C   UNL     1       7.815  -3.786  26.045  0.00  0.00    +0.214 C 
BRANCH  31  32
ATOM     32  O   UNL     1       9.113  -3.634  26.637  0.00  0.00    -0.383 OA
ATOM     33  H   UNL     1       9.318  -4.469  27.114  0.00  0.00    +0.210 HD
ENDBRANCH  31  32
BRANCH  30  34
ATOM     34  O   UNL     1       7.659  -5.888  27.211  0.00  0.00    -0.386 OA
ATOM     35  H   UNL     1       7.869  -5.963  28.162  0.00  0.00    +0.210 HD
ENDBRANCH  30  34
BRANCH  29  36
ATOM     36  O   UNL     1       4.782  -5.456  27.658  0.00  0.00    -0.340 OA
BRANCH  36  37
ATOM     37  C   UNL     1       4.619  -6.883  27.723  0.00  0.00    +0.282 C 
ATOM     38  O   UNL     1       4.005  -7.490  26.583  0.00  0.00    -0.341 OA
ATOM     39  C   UNL     1       2.633  -7.112  26.318  0.00  0.00    +0.178 C 
ATOM     40  C   UNL     1       1.688  -7.157  27.544  0.00  0.00    +0.177 C 
ATOM     41  C   UNL     1       2.357  -6.556  28.782  0.00  0.00    +0.179 C 
ATOM     42  C   UNL     1       3.738  -7.226  28.947  0.00  0.00    +0.201 C 
BRANCH  42  43
ATOM     43  O   UNL     1       4.344  -6.865  30.187  0.00  0.00    -0.384 OA
ATOM     44  H   UNL     1       3.659  -6.952  30.873  0.00  0.00    +0.210 HD
ENDBRANCH  42  43
BRANCH  41  45
ATOM     45  O   UNL     1       2.391  -5.130  28.660  0.00  0.00    -0.386 OA
ATOM     46  H   UNL     1       1.755  -4.757  29.307  0.00  0.00    +0.210 HD
ENDBRANCH  41  45
BRANCH  40  47
ATOM     47  O   UNL     1       1.300  -8.506  27.839  0.00  0.00    -0.386 OA
ATOM     48  H   UNL     1       1.558  -8.682  28.764  0.00  0.00    +0.210 HD
ENDBRANCH  40  47
BRANCH  39  49
ATOM     49  C   UNL     1       2.106  -8.028  25.192  0.00  0.00    +0.190 C 
BRANCH  49  50
ATOM     50  O   UNL     1       3.066  -8.248  24.156  0.00  0.00    -0.392 OA
ATOM     51  H   UNL     1       2.623  -8.089  23.305  0.00  0.00    +0.210 HD
ENDBRANCH  49  50
ENDBRANCH  39  49
ENDBRANCH  36  37
ENDBRANCH  29  36
ENDBRANCH  24  25
ENDBRANCH   6  24
BRANCH   1  52
ATOM     52  O   UNL     1       2.184   4.338  24.751  0.00  0.00    -0.461 OA
BRANCH  52  55
ATOM     53  C   UNL     1       3.554   6.860  22.422  0.00  0.00    +0.179 C 
ATOM     54  O   UNL     1       3.002   6.258  23.612  0.00  0.00    -0.331 OA
ATOM     55  C   UNL     1       2.753   4.840  23.518  0.00  0.00    +0.339 C 
ATOM     56  C   UNL     1       1.754   4.569  22.367  0.00  0.00    +0.214 C 
ATOM     57  C   UNL     1       2.346   5.125  21.063  0.00  0.00    +0.180 C 
ATOM     58  C   UNL     1       2.629   6.624  21.209  0.00  0.00    +0.177 C 
BRANCH  57  59
ATOM     59  O   UNL     1       1.483   4.901  19.944  0.00  0.00    -0.386 OA
ATOM     60  H   UNL     1       1.463   5.751  19.460  0.00  0.00    +0.210 HD
ENDBRANCH  57  59
BRANCH  56  61
ATOM     61  O   UNL     1       0.486   5.197  22.636  0.00  0.00    -0.383 OA
ATOM     62  H   UNL     1      -0.209   4.521  22.527  0.00  0.00    +0.210 HD
ENDBRANCH  56  61
BRANCH  58  63
ATOM     63  O   UNL     1       3.144   7.108  19.964  0.00  0.00    -0.386 OA
ATOM     64  H   UNL     1       4.063   6.788  19.882  0.00  0.00    +0.210 HD
ENDBRANCH  58  63
BRANCH  53  65
ATOM     65  C   UNL     1       5.025   6.443  22.206  0.00  0.00    +0.197 C 
BRANCH  65  66
ATOM     66  O   UNL     1       5.810   6.746  23.355  0.00  0.00    -0.346 OA
BRANCH  66  70
ATOM     67  C   UNL     1       7.740   4.162  26.241  0.00  0.00    +0.041 C 
ATOM     68  C   UNL     1       8.459   5.012  25.195  0.00  0.00    +0.149 C 
ATOM     69  O   UNL     1       7.602   6.047  24.694  0.00  0.00    -0.343 OA
ATOM     70  C   UNL     1       6.550   5.613  23.828  0.00  0.00    +0.282 C 
ATOM     71  C   UNL     1       7.095   4.832  22.610  0.00  0.00    +0.201 C 
ATOM     72  C   UNL     1       7.976   3.674  23.092  0.00  0.00    +0.179 C 
ATOM     73  C   UNL     1       9.061   4.179  24.056  0.00  0.00    +0.174 C 
BRANCH  71  74
ATOM     74  O   UNL     1       7.893   5.687  21.760  0.00  0.00    -0.384 OA
ATOM     75  H   UNL     1       7.968   5.203  20.914  0.00  0.00    +0.210 HD
ENDBRANCH  71  74
BRANCH  72  76
ATOM     76  O   UNL     1       8.595   3.049  21.956  0.00  0.00    -0.386 OA
ATOM     77  H   UNL     1       8.071   3.338  21.177  0.00  0.00    +0.210 HD
ENDBRANCH  72  76
BRANCH  73  78
ATOM     78  O   UNL     1       9.991   4.983  23.305  0.00  0.00    -0.387 OA
ATOM     79  H   UNL     1      10.791   5.084  23.870  0.00  0.00    +0.210 HD
ENDBRANCH  73  78
ENDBRANCH  66  70
ENDBRANCH  65  66
ENDBRANCH  53  65
ENDBRANCH  52  55
ENDBRANCH   1  52
TORSDOF 26
ENDMDL
MODEL 8
REMARK VINA RESULT:      -5.2      2.106      9.821
REMARK  Name = 
REMARK  28 active torsions:
REMARK  status: ('A' for Active; 'I' for Inactive)
REMARK    1  A    between atoms: C_1  and  C_2
REMARK    2  A    between atoms: C_3  and  O_76
REMARK    3  A    between atoms: C_5  and  O_75
REMARK    4  A    between atoms: C_6  and  O_74
REMARK    5  A    between atoms: C_8  and  O_11
REMARK    6  A    between atoms: O_11  and  C_12
REMARK    7  A    between atoms: C_12  and  C_13
REMARK    8  A    between atoms: C_14  and  O_73
REMARK    9  A    between atoms: C_16  and  O_72
REMARK   10  A    between atoms: C_18  and  O_71
REMARK   11  A    between atoms: C_19  and  O_22
REMARK   12  A    between atoms: O_22  and  C_23
REMARK   13  A    between atoms: C_25  and  O_70
REMARK   14  A    between atoms: C_30  and  C_62
REMARK   15  A    between atoms: C_31  and  O_34
REMARK   16  A    between atoms: O_34  and  C_35
REMARK   17  A    between atoms: C_37  and  O_61
REMARK   18  A    between atoms: C_39  and  O_60
REMARK   19  A    between atoms: C_40  and  O_45
REMARK   20  A    between atoms: C_42  and  C_44
REMARK   21  A    between atoms: O_45  and  C_46
REMARK   22  A    between atoms: C_48  and  O_59
REMARK   23  A    between atoms: C_49  and  O_58
REMARK   24  A    between atoms: C_51  and  O_57
REMARK   25  A    between atoms: C_53  and  C_55
REMARK   26  A    between atoms: C_55  and  O_56
REMARK   27  A    between atoms: C_64  and  O_69
REMARK   28  A    between atoms: C_65  and  O_68
REMARK                            x       y       z     vdW  Elec       q    Type
REMARK                         _______ _______ _______ _____ _____    ______ ____
ROOT
ATOM      1  C   UNL     1       2.209  -2.189  28.347  0.00  0.00    +0.131 A 
ATOM      2  C   UNL     1       2.034  -1.225  27.336  0.00  0.00    +0.093 A 
ATOM      3  C   UNL     1       2.699   0.003  27.417  0.00  0.00    +0.147 A 
ATOM      4  O   UNL     1       2.527   0.957  26.438  0.00  0.00    -0.451 OA
ATOM      5  C   UNL     1       3.470   1.997  26.368  0.00  0.00    +0.181 A 
ATOM      6  C   UNL     1       4.331   2.317  27.365  0.00  0.00    +0.214 A 
ATOM      7  C   UNL     1       4.061   1.598  28.634  0.00  0.00    +0.238 A 
ATOM      8  O   UNL     1       4.273   2.097  29.738  0.00  0.00    -0.283 OA
ATOM      9  C   UNL     1       3.505   0.261  28.516  0.00  0.00    +0.109 A 
ATOM     10  C   UNL     1       3.758  -0.723  29.468  0.00  0.00    +0.135 A 
ATOM     11  C   UNL     1       3.122  -1.953  29.378  0.00  0.00    +0.092 A 
ENDROOT
BRANCH   5  12
ATOM     12  C   UNL     1       3.354   2.790  25.126  0.00  0.00    +0.025 A 
ATOM     13  C   UNL     1       2.201   3.576  24.926  0.00  0.00    +0.015 A 
ATOM     14  C   UNL     1       2.018   4.296  23.743  0.00  0.00    +0.050 A 
ATOM     15  C   UNL     1       2.988   4.233  22.757  0.00  0.00    +0.158 A 
ATOM     16  C   UNL     1       4.140   3.471  22.942  0.00  0.00    +0.159 A 
ATOM     17  C   UNL     1       4.335   2.746  24.121  0.00  0.00    +0.060 A 
BRANCH  16  18
ATOM     18  O   UNL     1       5.048   3.444  21.918  0.00  0.00    -0.503 OA
ATOM     19  H   UNL     1       4.963   4.275  21.419  0.00  0.00    +0.292 HD
ENDBRANCH  16  18
BRANCH  15  20
ATOM     20  O   UNL     1       2.796   4.919  21.592  0.00  0.00    -0.503 OA
ATOM     21  H   UNL     1       1.842   5.130  21.580  0.00  0.00    +0.292 HD
ENDBRANCH  15  20
ENDBRANCH   5  12
BRANCH  10  22
ATOM     22  O   UNL     1       4.645  -0.491  30.480  0.00  0.00    -0.506 OA
ATOM     23  H   UNL     1       5.496  -0.197  30.115  0.00  0.00    +0.292 HD
ENDBRANCH  10  22
BRANCH   6  24
ATOM     24  O   UNL     1       5.347   3.252  27.237  0.00  0.00    -0.453 OA
BRANCH  24  25
ATOM     25  C   UNL     1       5.239   4.515  27.923  0.00  0.00    +0.339 C 
ATOM     26  O   UNL     1       4.522   5.441  27.091  0.00  0.00    -0.334 OA
ATOM     27  C   UNL     1       5.155   5.741  25.836  0.00  0.00    +0.151 C 
ATOM     28  C   UNL     1       4.265   6.835  25.239  0.00  0.00    +0.041 C 
ATOM     29  C   UNL     1       6.616   6.238  25.986  0.00  0.00    +0.181 C 
ATOM     30  C   UNL     1       7.396   5.524  27.087  0.00  0.00    +0.180 C 
ATOM     31  C   UNL     1       6.563   5.219  28.321  0.00  0.00    +0.214 C 
BRANCH  31  32
ATOM     32  O   UNL     1       7.446   4.518  29.209  0.00  0.00    -0.383 OA
ATOM     33  H   UNL     1       8.363   4.809  29.001  0.00  0.00    +0.210 HD
ENDBRANCH  31  32
BRANCH  30  34
ATOM     34  O   UNL     1       8.509   6.362  27.478  0.00  0.00    -0.386 OA
ATOM     35  H   UNL     1       8.196   6.887  28.241  0.00  0.00    +0.210 HD
ENDBRANCH  30  34
BRANCH  29  36
ATOM     36  O   UNL     1       7.371   6.348  24.763  0.00  0.00    -0.340 OA
BRANCH  36  37
ATOM     37  C   UNL     1       7.263   5.353  23.731  0.00  0.00    +0.282 C 
ATOM     38  O   UNL     1       7.413   3.997  24.159  0.00  0.00    -0.341 OA
ATOM     39  C   UNL     1       8.708   3.636  24.696  0.00  0.00    +0.178 C 
ATOM     40  C   UNL     1       9.923   4.084  23.847  0.00  0.00    +0.177 C 
ATOM     41  C   UNL     1       9.747   5.518  23.342  0.00  0.00    +0.179 C 
ATOM     42  C   UNL     1       8.359   5.617  22.672  0.00  0.00    +0.201 C 
BRANCH  42  43
ATOM     43  O   UNL     1       8.197   6.866  22.001  0.00  0.00    -0.384 OA
ATOM     44  H   UNL     1       8.859   7.475  22.371  0.00  0.00    +0.210 HD
ENDBRANCH  42  43
BRANCH  41  45
ATOM     45  O   UNL     1       9.960   6.433  24.422  0.00  0.00    -0.386 OA
ATOM     46  H   UNL     1       9.103   6.869  24.621  0.00  0.00    +0.210 HD
ENDBRANCH  41  45
BRANCH  40  47
ATOM     47  O   UNL     1      10.106   3.218  22.720  0.00  0.00    -0.386 OA
ATOM     48  H   UNL     1      10.150   3.785  21.926  0.00  0.00    +0.210 HD
ENDBRANCH  40  47
BRANCH  39  49
ATOM     49  C   UNL     1       8.720   2.104  24.893  0.00  0.00    +0.190 C 
BRANCH  49  50
ATOM     50  O   UNL     1       8.107   1.398  23.812  0.00  0.00    -0.392 OA
ATOM     51  H   UNL     1       8.530   1.694  22.988  0.00  0.00    +0.210 HD
ENDBRANCH  49  50
ENDBRANCH  39  49
ENDBRANCH  36  37
ENDBRANCH  29  36
ENDBRANCH  24  25
ENDBRANCH   6  24
BRANCH   1  52
ATOM     52  O   UNL     1       1.474  -3.345  28.249  0.00  0.00    -0.461 OA
BRANCH  52  55
ATOM     53  C   UNL     1       2.165  -5.760  25.538  0.00  0.00    +0.179 C 
ATOM     54  O   UNL     1       1.592  -4.656  26.269  0.00  0.00    -0.331 OA
ATOM     55  C   UNL     1       2.124  -4.461  27.595  0.00  0.00    +0.339 C 
ATOM     56  C   UNL     1       1.884  -5.736  28.438  0.00  0.00    +0.214 C 
ATOM     57  C   UNL     1       2.553  -6.925  27.732  0.00  0.00    +0.180 C 
ATOM     58  C   UNL     1       1.988  -7.083  26.315  0.00  0.00    +0.177 C 
BRANCH  57  59
ATOM     59  O   UNL     1       2.384  -8.145  28.459  0.00  0.00    -0.386 OA
ATOM     60  H   UNL     1       2.283  -7.875  29.395  0.00  0.00    +0.210 HD
ENDBRANCH  57  59
BRANCH  56  61
ATOM     61  O   UNL     1       0.473  -5.987  28.590  0.00  0.00    -0.383 OA
ATOM     62  H   UNL     1       0.299  -6.899  28.293  0.00  0.00    +0.210 HD
ENDBRANCH  56  61
BRANCH  58  63
ATOM     63  O   UNL     1       2.610  -8.219  25.707  0.00  0.00    -0.386 OA
ATOM     64  H   UNL     1       3.127  -8.677  26.397  0.00  0.00    +0.210 HD
ENDBRANCH  58  63
BRANCH  53  65
ATOM     65  C   UNL     1       3.614  -5.457  25.097  0.00  0.00    +0.197 C 
BRANCH  65  66
ATOM     66  O   UNL     1       3.680  -4.218  24.398  0.00  0.00    -0.346 OA
BRANCH  66  70
ATOM     67  C   UNL     1       6.432  -5.735  21.421  0.00  0.00    +0.041 C 
ATOM     68  C   UNL     1       6.807  -5.319  22.843  0.00  0.00    +0.149 C 
ATOM     69  O   UNL     1       5.650  -5.271  23.689  0.00  0.00    -0.343 OA
ATOM     70  C   UNL     1       4.756  -4.180  23.451  0.00  0.00    +0.282 C 
ATOM     71  C   UNL     1       5.472  -2.815  23.568  0.00  0.00    +0.201 C 
ATOM     72  C   UNL     1       6.691  -2.791  22.636  0.00  0.00    +0.179 C 
ATOM     73  C   UNL     1       7.597  -4.004  22.894  0.00  0.00    +0.174 C 
BRANCH  71  74
ATOM     74  O   UNL     1       5.928  -2.581  24.919  0.00  0.00    -0.384 OA
ATOM     75  H   UNL     1       5.389  -1.833  25.241  0.00  0.00    +0.210 HD
ENDBRANCH  71  74
BRANCH  72  76
ATOM     76  O   UNL     1       7.430  -1.580  22.862  0.00  0.00    -0.386 OA
ATOM     77  H   UNL     1       6.837  -1.000  23.386  0.00  0.00    +0.210 HD
ENDBRANCH  72  76
BRANCH  73  78
ATOM     78  O   UNL     1       8.198  -3.848  24.194  0.00  0.00    -0.387 OA
ATOM     79  H   UNL     1       9.140  -4.121  24.100  0.00  0.00    +0.210 HD
ENDBRANCH  73  78
ENDBRANCH  66  70
ENDBRANCH  65  66
ENDBRANCH  53  65
ENDBRANCH  52  55
ENDBRANCH   1  52
TORSDOF 26
ENDMDL
MODEL 9
REMARK VINA RESULT:      -4.7      1.970      8.230
REMARK  Name = 
REMARK  28 active torsions:
REMARK  status: ('A' for Active; 'I' for Inactive)
REMARK    1  A    between atoms: C_1  and  C_2
REMARK    2  A    between atoms: C_3  and  O_76
REMARK    3  A    between atoms: C_5  and  O_75
REMARK    4  A    between atoms: C_6  and  O_74
REMARK    5  A    between atoms: C_8  and  O_11
REMARK    6  A    between atoms: O_11  and  C_12
REMARK    7  A    between atoms: C_12  and  C_13
REMARK    8  A    between atoms: C_14  and  O_73
REMARK    9  A    between atoms: C_16  and  O_72
REMARK   10  A    between atoms: C_18  and  O_71
REMARK   11  A    between atoms: C_19  and  O_22
REMARK   12  A    between atoms: O_22  and  C_23
REMARK   13  A    between atoms: C_25  and  O_70
REMARK   14  A    between atoms: C_30  and  C_62
REMARK   15  A    between atoms: C_31  and  O_34
REMARK   16  A    between atoms: O_34  and  C_35
REMARK   17  A    between atoms: C_37  and  O_61
REMARK   18  A    between atoms: C_39  and  O_60
REMARK   19  A    between atoms: C_40  and  O_45
REMARK   20  A    between atoms: C_42  and  C_44
REMARK   21  A    between atoms: O_45  and  C_46
REMARK   22  A    between atoms: C_48  and  O_59
REMARK   23  A    between atoms: C_49  and  O_58
REMARK   24  A    between atoms: C_51  and  O_57
REMARK   25  A    between atoms: C_53  and  C_55
REMARK   26  A    between atoms: C_55  and  O_56
REMARK   27  A    between atoms: C_64  and  O_69
REMARK   28  A    between atoms: C_65  and  O_68
REMARK                            x       y       z     vdW  Elec       q    Type
REMARK                         _______ _______ _______ _____ _____    ______ ____
ROOT
ATOM      1  C   UNL     1       7.682  -2.741  22.866  0.00  0.00    +0.131 A 
ATOM      2  C   UNL     1       6.677  -1.771  23.047  0.00  0.00    +0.093 A 
ATOM      3  C   UNL     1       7.023  -0.466  23.416  0.00  0.00    +0.147 A 
ATOM      4  O   UNL     1       6.047   0.488  23.605  0.00  0.00    -0.451 OA
ATOM      5  C   UNL     1       6.446   1.836  23.612  0.00  0.00    +0.181 A 
ATOM      6  C   UNL     1       7.725   2.254  23.772  0.00  0.00    +0.214 A 
ATOM      7  C   UNL     1       8.663   1.165  24.143  0.00  0.00    +0.238 A 
ATOM      8  O   UNL     1       9.640   1.349  24.867  0.00  0.00    -0.283 OA
ATOM      9  C   UNL     1       8.359  -0.156  23.623  0.00  0.00    +0.109 A 
ATOM     10  C   UNL     1       9.362  -1.084  23.352  0.00  0.00    +0.135 A 
ATOM     11  C   UNL     1       9.025  -2.371  22.960  0.00  0.00    +0.092 A 
ENDROOT
BRANCH   5  12
ATOM     12  C   UNL     1       5.302   2.770  23.538  0.00  0.00    +0.025 A 
ATOM     13  C   UNL     1       4.112   2.442  24.217  0.00  0.00    +0.015 A 
ATOM     14  C   UNL     1       2.984   3.263  24.128  0.00  0.00    +0.050 A 
ATOM     15  C   UNL     1       3.046   4.415  23.361  0.00  0.00    +0.158 A 
ATOM     16  C   UNL     1       4.219   4.761  22.694  0.00  0.00    +0.159 A 
ATOM     17  C   UNL     1       5.353   3.948  22.775  0.00  0.00    +0.060 A 
BRANCH  16  18
ATOM     18  O   UNL     1       4.201   5.906  21.943  0.00  0.00    -0.503 OA
ATOM     19  H   UNL     1       3.336   6.332  22.066  0.00  0.00    +0.292 HD
ENDBRANCH  16  18
BRANCH  15  20
ATOM     20  O   UNL     1       1.936   5.204  23.258  0.00  0.00    -0.503 OA
ATOM     21  H   UNL     1       2.157   5.857  22.566  0.00  0.00    +0.292 HD
ENDBRANCH  15  20
ENDBRANCH   5  12
BRANCH  10  22
ATOM     22  O   UNL     1      10.675  -0.726  23.450  0.00  0.00    -0.506 OA
ATOM     23  H   UNL     1      10.892  -0.505  24.371  0.00  0.00    +0.292 HD
ENDBRANCH  10  22
BRANCH   6  24
ATOM     24  O   UNL     1       8.129   3.575  23.640  0.00  0.00    -0.453 OA
BRANCH  24  25
ATOM     25  C   UNL     1       8.754   4.239  24.756  0.00  0.00    +0.339 C 
ATOM     26  O   UNL     1       8.482   3.498  25.956  0.00  0.00    -0.334 OA
ATOM     27  C   UNL     1       7.091   3.399  26.302  0.00  0.00    +0.151 C 
ATOM     28  C   UNL     1       7.111   2.700  27.666  0.00  0.00    +0.041 C 
ATOM     29  C   UNL     1       6.380   4.774  26.396  0.00  0.00    +0.181 C 
ATOM     30  C   UNL     1       6.837   5.773  25.337  0.00  0.00    +0.180 C 
ATOM     31  C   UNL     1       8.325   5.703  25.038  0.00  0.00    +0.214 C 
BRANCH  31  32
ATOM     32  O   UNL     1       8.548   6.671  24.003  0.00  0.00    -0.383 OA
ATOM     33  H   UNL     1       8.357   7.558  24.384  0.00  0.00    +0.210 HD
ENDBRANCH  31  32
BRANCH  30  34
ATOM     34  O   UNL     1       6.522   7.107  25.800  0.00  0.00    -0.386 OA
ATOM     35  H   UNL     1       6.222   7.602  25.013  0.00  0.00    +0.210 HD
ENDBRANCH  30  34
BRANCH  29  36
ATOM     36  O   UNL     1       4.944   4.731  26.527  0.00  0.00    -0.340 OA
BRANCH  36  37
ATOM     37  C   UNL     1       4.317   4.691  27.820  0.00  0.00    +0.282 C 
ATOM     38  O   UNL     1       3.189   3.819  27.935  0.00  0.00    -0.341 OA
ATOM     39  C   UNL     1       2.036   4.155  27.127  0.00  0.00    +0.178 C 
ATOM     40  C   UNL     1       1.595   5.638  27.189  0.00  0.00    +0.177 C 
ATOM     41  C   UNL     1       2.801   6.578  27.118  0.00  0.00    +0.179 C 
ATOM     42  C   UNL     1       3.827   6.114  28.176  0.00  0.00    +0.201 C 
BRANCH  42  43
ATOM     43  O   UNL     1       4.892   7.053  28.310  0.00  0.00    -0.384 OA
ATOM     44  H   UNL     1       4.668   7.632  29.058  0.00  0.00    +0.210 HD
ENDBRANCH  42  43
BRANCH  41  45
ATOM     45  O   UNL     1       3.298   6.615  25.776  0.00  0.00    -0.386 OA
ATOM     46  H   UNL     1       3.947   7.349  25.715  0.00  0.00    +0.210 HD
ENDBRANCH  41  45
BRANCH  40  47
ATOM     47  O   UNL     1       0.874   5.906  28.399  0.00  0.00    -0.386 OA
ATOM     48  H   UNL     1       1.145   5.231  29.050  0.00  0.00    +0.210 HD
ENDBRANCH  40  47
BRANCH  39  49
ATOM     49  C   UNL     1       0.879   3.227  27.557  0.00  0.00    +0.190 C 
BRANCH  49  50
ATOM     50  O   UNL     1       1.162   1.843  27.338  0.00  0.00    -0.392 OA
ATOM     51  H   UNL     1       0.644   1.331  27.983  0.00  0.00    +0.210 HD
ENDBRANCH  49  50
ENDBRANCH  39  49
ENDBRANCH  36  37
ENDBRANCH  29  36
ENDBRANCH  24  25
ENDBRANCH   6  24
BRANCH   1  52
ATOM     52  O   UNL     1       7.275  -4.021  22.576  0.00  0.00    -0.461 OA
BRANCH  52  55
ATOM     53  C   UNL     1       5.531  -5.815  25.296  0.00  0.00    +0.179 C 
ATOM     54  O   UNL     1       6.588  -5.262  24.484  0.00  0.00    -0.331 OA
ATOM     55  C   UNL     1       6.145  -4.517  23.332  0.00  0.00    +0.339 C 
ATOM     56  C   UNL     1       5.305  -5.439  22.415  0.00  0.00    +0.214 C 
ATOM     57  C   UNL     1       4.118  -5.985  23.224  0.00  0.00    +0.180 C 
ATOM     58  C   UNL     1       4.624  -6.742  24.458  0.00  0.00    +0.177 C 
BRANCH  57  59
ATOM     59  O   UNL     1       3.283  -6.841  22.439  0.00  0.00    -0.386 OA
ATOM     60  H   UNL     1       2.860  -7.447  23.080  0.00  0.00    +0.210 HD
ENDBRANCH  57  59
BRANCH  56  61
ATOM     61  O   UNL     1       6.105  -6.530  21.921  0.00  0.00    -0.383 OA
ATOM     62  H   UNL     1       6.023  -6.543  20.950  0.00  0.00    +0.210 HD
ENDBRANCH  56  61
BRANCH  58  63
ATOM     63  O   UNL     1       3.492  -7.263  25.161  0.00  0.00    -0.386 OA
ATOM     64  H   UNL     1       3.168  -8.038  24.664  0.00  0.00    +0.210 HD
ENDBRANCH  58  63
BRANCH  53  65
ATOM     65  C   UNL     1       4.784  -4.715  26.082  0.00  0.00    +0.197 C 
BRANCH  65  66
ATOM     66  O   UNL     1       5.655  -3.629  26.381  0.00  0.00    -0.346 OA
BRANCH  66  70
ATOM     67  C   UNL     1       3.733  -2.481  30.086  0.00  0.00    +0.041 C 
ATOM     68  C   UNL     1       3.116  -2.358  28.694  0.00  0.00    +0.149 C 
ATOM     69  O   UNL     1       3.803  -3.190  27.748  0.00  0.00    -0.343 OA
ATOM     70  C   UNL     1       5.107  -2.744  27.367  0.00  0.00    +0.282 C 
ATOM     71  C   UNL     1       5.078  -1.311  26.788  0.00  0.00    +0.201 C 
ATOM     72  C   UNL     1       4.401  -0.365  27.787  0.00  0.00    +0.179 C 
ATOM     73  C   UNL     1       3.025  -0.906  28.204  0.00  0.00    +0.174 C 
BRANCH  71  74
ATOM     74  O   UNL     1       4.338  -1.268  25.547  0.00  0.00    -0.384 OA
ATOM     75  H   UNL     1       3.536  -0.748  25.750  0.00  0.00    +0.210 HD
ENDBRANCH  71  74
BRANCH  72  76
ATOM     76  O   UNL     1       4.247   0.927  27.178  0.00  0.00    -0.386 OA
ATOM     77  H   UNL     1       3.820   0.762  26.310  0.00  0.00    +0.210 HD
ENDBRANCH  72  76
BRANCH  73  78
ATOM     78  O   UNL     1       2.148  -0.831  27.064  0.00  0.00    -0.387 OA
ATOM     79  H   UNL     1       1.432  -1.488  27.220  0.00  0.00    +0.210 HD
ENDBRANCH  73  78
ENDBRANCH  66  70
ENDBRANCH  65  66
ENDBRANCH  53  65
ENDBRANCH  52  55
ENDBRANCH   1  52
TORSDOF 26
ENDMDL
