MODEL 1
REMARK VINA RESULT:      -7.0      0.000      0.000
REMARK  Name = 
REMARK  18 active torsions:
REMARK  status: ('A' for Active; 'I' for Inactive)
REMARK    1  A    between atoms: C_3  and  O_44
REMARK    2  A    between atoms: C_4  and  O_43
REMARK    3  A    between atoms: C_6  and  C_7
REMARK    4  A    between atoms: C_8  and  O_20
REMARK    5  A    between atoms: C_12  and  O_19
REMARK    6  A    between atoms: C_14  and  O_18
REMARK    7  A    between atoms: O_20  and  C_21
REMARK    8  A    between atoms: C_22  and  O_31
REMARK    9  A    between atoms: C_23  and  O_30
REMARK   10  A    between atoms: C_24  and  O_29
REMARK   11  A    between atoms: C_25  and  C_27
REMARK   12  A    between atoms: C_27  and  O_28
REMARK   13  A    between atoms: O_31  and  C_32
REMARK   14  A    between atoms: C_33  and  O_42
REMARK   15  A    between atoms: C_34  and  O_41
REMARK   16  A    between atoms: C_35  and  O_40
REMARK   17  A    between atoms: C_36  and  C_38
REMARK   18  A    between atoms: C_38  and  O_39
REMARK                            x       y       z     vdW  Elec       q    Type
REMARK                         _______ _______ _______ _____ _____    ______ ____
ROOT
ATOM      1  C   UNL     1       4.610  -0.703  26.065  0.00  0.00    +0.340 C 
ATOM      2  O   UNL     1       3.444  -0.123  26.735  0.00  0.00    -0.331 OA
ATOM      3  C   UNL     1       2.935  -0.704  27.965  0.00  0.00    +0.179 C 
ATOM      4  C   UNL     1       3.180  -2.220  28.209  0.00  0.00    +0.177 C 
ATOM      5  C   UNL     1       4.318  -2.804  27.376  0.00  0.00    +0.180 C 
ATOM      6  C   UNL     1       4.295  -2.207  25.964  0.00  0.00    +0.221 C 
ENDROOT
BRANCH   5   7
ATOM      7  O   UNL     1       4.232  -4.239  27.334  0.00  0.00    -0.386 OA
ATOM      8  H   UNL     1       3.291  -4.465  27.200  0.00  0.00    +0.210 HD
ENDBRANCH   5   7
BRANCH   4   9
ATOM      9  O   UNL     1       2.006  -3.035  28.013  0.00  0.00    -0.386 OA
ATOM     10  H   UNL     1       1.209  -2.478  28.082  0.00  0.00    +0.210 HD
ENDBRANCH   4   9
BRANCH   6  11
ATOM     11  O   UNL     1       4.898  -3.103  25.052  0.00  0.00    -0.337 OA
BRANCH  11  12
ATOM     12  C   UNL     1       4.248  -3.639  23.926  0.00  0.00    +0.282 C 
ATOM     13  O   UNL     1       3.787  -4.969  24.130  0.00  0.00    -0.341 OA
ATOM     14  C   UNL     1       4.808  -5.834  24.643  0.00  0.00    +0.178 C 
ATOM     15  C   UNL     1       6.060  -5.874  23.735  0.00  0.00    +0.177 C 
ATOM     16  C   UNL     1       6.487  -4.479  23.225  0.00  0.00    +0.179 C 
ATOM     17  C   UNL     1       5.286  -3.614  22.801  0.00  0.00    +0.201 C 
BRANCH  17  18
ATOM     18  O   UNL     1       5.693  -2.257  22.547  0.00  0.00    -0.384 OA
ATOM     19  H   UNL     1       5.188  -1.689  23.164  0.00  0.00    +0.210 HD
ENDBRANCH  17  18
BRANCH  16  20
ATOM     20  O   UNL     1       7.381  -4.605  22.109  0.00  0.00    -0.386 OA
ATOM     21  H   UNL     1       7.288  -5.506  21.756  0.00  0.00    +0.210 HD
ENDBRANCH  16  20
BRANCH  15  22
ATOM     22  O   UNL     1       5.883  -6.767  22.624  0.00  0.00    -0.386 OA
ATOM     23  H   UNL     1       4.958  -6.703  22.321  0.00  0.00    +0.210 HD
ENDBRANCH  15  22
BRANCH  14  24
ATOM     24  C   UNL     1       4.193  -7.224  24.873  0.00  0.00    +0.190 C 
BRANCH  24  25
ATOM     25  O   UNL     1       3.438  -7.633  23.735  0.00  0.00    -0.392 OA
ATOM     26  H   UNL     1       2.768  -8.266  24.045  0.00  0.00    +0.210 HD
ENDBRANCH  24  25
ENDBRANCH  14  24
ENDBRANCH  11  12
ENDBRANCH   6  11
BRANCH   3  27
ATOM     27  C   UNL     1       1.402  -0.415  28.038  0.00  0.00    +0.190 C 
BRANCH  27  28
ATOM     28  O   UNL     1       0.695  -0.744  26.856  0.00  0.00    -0.392 OA
ATOM     29  H   UNL     1       1.332  -0.766  26.120  0.00  0.00    +0.210 HD
ENDBRANCH  27  28
ENDBRANCH   3  27
BRANCH   1  30
ATOM     30  O   UNL     1       5.826  -0.225  26.672  0.00  0.00    -0.453 OA
BRANCH  30  41
ATOM     31  C   UNL     1       7.947  -0.644  25.415  0.00  0.00    +0.181 A 
ATOM     32  O   UNL     1       8.834  -0.078  24.485  0.00  0.00    -0.451 OA
ATOM     33  C   UNL     1       9.033   1.252  24.342  0.00  0.00    +0.147 A 
ATOM     34  C   UNL     1       8.318   2.170  25.062  0.00  0.00    +0.109 A 
ATOM     35  C   UNL     1       8.686   3.521  24.970  0.00  0.00    +0.135 A 
ATOM     36  C   UNL     1       9.711   3.933  24.110  0.00  0.00    +0.091 A 
ATOM     37  C   UNL     1      10.347   2.988  23.319  0.00  0.00    +0.124 A 
ATOM     38  C   UNL     1       7.163   1.654  25.815  0.00  0.00    +0.238 A 
ATOM     39  O   UNL     1       6.356   2.472  26.250  0.00  0.00    -0.283 OA
ATOM     40  C   UNL     1      10.019   1.644  23.432  0.00  0.00    +0.092 A 
ATOM     41  C   UNL     1       7.008   0.145  26.035  0.00  0.00    +0.214 A 
BRANCH  31  43
ATOM     42  C   UNL     1       9.323  -2.562  24.504  0.00  0.00    +0.015 A 
ATOM     43  C   UNL     1       8.318  -2.134  25.441  0.00  0.00    +0.025 A 
ATOM     44  C   UNL     1       7.958  -3.107  26.372  0.00  0.00    +0.060 A 
ATOM     45  C   UNL     1       8.557  -4.388  26.360  0.00  0.00    +0.159 A 
ATOM     46  C   UNL     1       9.528  -4.754  25.423  0.00  0.00    +0.158 A 
ATOM     47  C   UNL     1       9.919  -3.831  24.485  0.00  0.00    +0.050 A 
BRANCH  46  48
ATOM     48  O   UNL     1      10.088  -5.999  25.471  0.00  0.00    -0.503 OA
ATOM     49  H   UNL     1      10.299  -6.226  26.395  0.00  0.00    +0.292 HD
ENDBRANCH  46  48
BRANCH  45  50
ATOM     50  O   UNL     1       8.216  -5.303  27.322  0.00  0.00    -0.503 OA
ATOM     51  H   UNL     1       7.867  -4.766  28.061  0.00  0.00    +0.292 HD
ENDBRANCH  45  50
ENDBRANCH  31  43
BRANCH  37  52
ATOM     52  O   UNL     1      11.314   3.328  22.417  0.00  0.00    -0.507 OA
ATOM     53  H   UNL     1      11.651   2.518  21.997  0.00  0.00    +0.292 HD
ENDBRANCH  37  52
BRANCH  35  54
ATOM     54  O   UNL     1       8.090   4.506  25.712  0.00  0.00    -0.506 OA
ATOM     55  H   UNL     1       8.173   4.254  26.655  0.00  0.00    +0.292 HD
ENDBRANCH  35  54
ENDBRANCH  30  41
ENDBRANCH   1  30
TORSDOF 18
ENDMDL
MODEL 2
REMARK VINA RESULT:      -6.9      2.575      7.839
REMARK  Name = 
REMARK  18 active torsions:
REMARK  status: ('A' for Active; 'I' for Inactive)
REMARK    1  A    between atoms: C_3  and  O_44
REMARK    2  A    between atoms: C_4  and  O_43
REMARK    3  A    between atoms: C_6  and  C_7
REMARK    4  A    between atoms: C_8  and  O_20
REMARK    5  A    between atoms: C_12  and  O_19
REMARK    6  A    between atoms: C_14  and  O_18
REMARK    7  A    between atoms: O_20  and  C_21
REMARK    8  A    between atoms: C_22  and  O_31
REMARK    9  A    between atoms: C_23  and  O_30
REMARK   10  A    between atoms: C_24  and  O_29
REMARK   11  A    between atoms: C_25  and  C_27
REMARK   12  A    between atoms: C_27  and  O_28
REMARK   13  A    between atoms: O_31  and  C_32
REMARK   14  A    between atoms: C_33  and  O_42
REMARK   15  A    between atoms: C_34  and  O_41
REMARK   16  A    between atoms: C_35  and  O_40
REMARK   17  A    between atoms: C_36  and  C_38
REMARK   18  A    between atoms: C_38  and  O_39
REMARK                            x       y       z     vdW  Elec       q    Type
REMARK                         _______ _______ _______ _____ _____    ______ ____
ROOT
ATOM      1  C   UNL     1       6.787   1.031  26.248  0.00  0.00    +0.340 C 
ATOM      2  O   UNL     1       7.112   0.625  27.617  0.00  0.00    -0.331 OA
ATOM      3  C   UNL     1       6.249   1.004  28.722  0.00  0.00    +0.179 C 
ATOM      4  C   UNL     1       5.406   2.302  28.576  0.00  0.00    +0.177 C 
ATOM      5  C   UNL     1       5.220   2.758  27.131  0.00  0.00    +0.180 C 
ATOM      6  C   UNL     1       6.517   2.544  26.342  0.00  0.00    +0.221 C 
ENDROOT
BRANCH   5   7
ATOM      7  O   UNL     1       4.802   4.134  27.082  0.00  0.00    -0.386 OA
ATOM      8  H   UNL     1       3.992   4.205  27.622  0.00  0.00    +0.210 HD
ENDBRANCH   5   7
BRANCH   4   9
ATOM      9  O   UNL     1       5.914   3.413  29.343  0.00  0.00    -0.386 OA
ATOM     10  H   UNL     1       5.796   4.238  28.836  0.00  0.00    +0.210 HD
ENDBRANCH   4   9
BRANCH   6  11
ATOM     11  O   UNL     1       6.574   3.448  25.256  0.00  0.00    -0.337 OA
BRANCH  11  12
ATOM     12  C   UNL     1       7.151   3.145  24.009  0.00  0.00    +0.282 C 
ATOM     13  O   UNL     1       8.177   4.058  23.635  0.00  0.00    -0.341 OA
ATOM     14  C   UNL     1       7.762   5.426  23.736  0.00  0.00    +0.178 C 
ATOM     15  C   UNL     1       6.498   5.724  22.895  0.00  0.00    +0.177 C 
ATOM     16  C   UNL     1       5.412   4.631  23.019  0.00  0.00    +0.179 C 
ATOM     17  C   UNL     1       6.003   3.209  22.999  0.00  0.00    +0.201 C 
BRANCH  17  18
ATOM     18  O   UNL     1       5.003   2.231  23.339  0.00  0.00    -0.384 OA
ATOM     19  H   UNL     1       4.927   2.230  24.315  0.00  0.00    +0.210 HD
ENDBRANCH  17  18
BRANCH  16  20
ATOM     20  O   UNL     1       4.457   4.748  21.953  0.00  0.00    -0.386 OA
ATOM     21  H   UNL     1       3.583   4.521  22.313  0.00  0.00    +0.210 HD
ENDBRANCH  16  20
BRANCH  15  22
ATOM     22  O   UNL     1       6.818   5.939  21.511  0.00  0.00    -0.386 OA
ATOM     23  H   UNL     1       6.109   5.551  20.966  0.00  0.00    +0.210 HD
ENDBRANCH  15  22
BRANCH  14  24
ATOM     24  C   UNL     1       8.953   6.321  23.360  0.00  0.00    +0.190 C 
BRANCH  24  25
ATOM     25  O   UNL     1      10.078   5.528  22.985  0.00  0.00    -0.392 OA
ATOM     26  H   UNL     1       9.777   4.909  22.298  0.00  0.00    +0.210 HD
ENDBRANCH  24  25
ENDBRANCH  14  24
ENDBRANCH  11  12
ENDBRANCH   6  11
BRANCH   3  27
ATOM     27  C   UNL     1       7.129   1.108  30.008  0.00  0.00    +0.190 C 
BRANCH  27  28
ATOM     28  O   UNL     1       8.318   1.858  29.835  0.00  0.00    -0.392 OA
ATOM     29  H   UNL     1       8.760   1.540  29.029  0.00  0.00    +0.210 HD
ENDBRANCH  27  28
ENDBRANCH   3  27
BRANCH   1  30
ATOM     30  O   UNL     1       5.825   0.126  25.671  0.00  0.00    -0.453 OA
BRANCH  30  41
ATOM     31  C   UNL     1       7.147  -1.118  23.951  0.00  0.00    +0.181 A 
ATOM     32  O   UNL     1       7.396  -2.400  23.435  0.00  0.00    -0.451 OA
ATOM     33  C   UNL     1       6.495  -3.408  23.446  0.00  0.00    +0.147 A 
ATOM     34  C   UNL     1       5.269  -3.273  24.037  0.00  0.00    +0.109 A 
ATOM     35  C   UNL     1       4.334  -4.308  23.875  0.00  0.00    +0.135 A 
ATOM     36  C   UNL     1       4.668  -5.481  23.189  0.00  0.00    +0.091 A 
ATOM     37  C   UNL     1       5.953  -5.627  22.689  0.00  0.00    +0.124 A 
ATOM     38  C   UNL     1       5.071  -2.072  24.865  0.00  0.00    +0.238 A 
ATOM     39  O   UNL     1       4.094  -2.049  25.610  0.00  0.00    -0.283 OA
ATOM     40  C   UNL     1       6.872  -4.593  22.808  0.00  0.00    +0.092 A 
ATOM     41  C   UNL     1       6.062  -0.907  24.768  0.00  0.00    +0.214 A 
BRANCH  31  43
ATOM     42  C   UNL     1       8.131   0.279  22.086  0.00  0.00    +0.015 A 
ATOM     43  C   UNL     1       8.298  -0.257  23.411  0.00  0.00    +0.025 A 
ATOM     44  C   UNL     1       9.409   0.241  24.091  0.00  0.00    +0.060 A 
ATOM     45  C   UNL     1      10.267   1.192  23.491  0.00  0.00    +0.159 A 
ATOM     46  C   UNL     1      10.061   1.678  22.196  0.00  0.00    +0.158 A 
ATOM     47  C   UNL     1       8.980   1.220  21.485  0.00  0.00    +0.050 A 
BRANCH  46  48
ATOM     48  O   UNL     1      10.911   2.612  21.674  0.00  0.00    -0.503 OA
ATOM     49  H   UNL     1      11.828   2.291  21.743  0.00  0.00    +0.292 HD
ENDBRANCH  46  48
BRANCH  45  50
ATOM     50  O   UNL     1      11.321   1.698  24.206  0.00  0.00    -0.503 OA
ATOM     51  H   UNL     1      11.937   2.043  23.529  0.00  0.00    +0.292 HD
ENDBRANCH  45  50
ENDBRANCH  31  43
BRANCH  37  52
ATOM     52  O   UNL     1       6.363  -6.767  22.061  0.00  0.00    -0.507 OA
ATOM     53  H   UNL     1       7.213  -6.596  21.620  0.00  0.00    +0.292 HD
ENDBRANCH  37  52
BRANCH  35  54
ATOM     54  O   UNL     1       3.053  -4.234  24.355  0.00  0.00    -0.506 OA
ATOM     55  H   UNL     1       2.665  -5.132  24.296  0.00  0.00    +0.292 HD
ENDBRANCH  35  54
ENDBRANCH  30  41
ENDBRANCH   1  30
TORSDOF 18
ENDMDL
MODEL 3
REMARK VINA RESULT:      -6.7      2.739      7.765
REMARK  Name = 
REMARK  18 active torsions:
REMARK  status: ('A' for Active; 'I' for Inactive)
REMARK    1  A    between atoms: C_3  and  O_44
REMARK    2  A    between atoms: C_4  and  O_43
REMARK    3  A    between atoms: C_6  and  C_7
REMARK    4  A    between atoms: C_8  and  O_20
REMARK    5  A    between atoms: C_12  and  O_19
REMARK    6  A    between atoms: C_14  and  O_18
REMARK    7  A    between atoms: O_20  and  C_21
REMARK    8  A    between atoms: C_22  and  O_31
REMARK    9  A    between atoms: C_23  and  O_30
REMARK   10  A    between atoms: C_24  and  O_29
REMARK   11  A    between atoms: C_25  and  C_27
REMARK   12  A    between atoms: C_27  and  O_28
REMARK   13  A    between atoms: O_31  and  C_32
REMARK   14  A    between atoms: C_33  and  O_42
REMARK   15  A    between atoms: C_34  and  O_41
REMARK   16  A    between atoms: C_35  and  O_40
REMARK   17  A    between atoms: C_36  and  C_38
REMARK   18  A    between atoms: C_38  and  O_39
REMARK                            x       y       z     vdW  Elec       q    Type
REMARK                         _______ _______ _______ _____ _____    ______ ____
ROOT
ATOM      1  C   UNL     1       4.995   1.938  25.982  0.00  0.00    +0.340 C 
ATOM      2  O   UNL     1       4.216   1.709  27.200  0.00  0.00    -0.331 OA
ATOM      3  C   UNL     1       2.778   1.913  27.205  0.00  0.00    +0.179 C 
ATOM      4  C   UNL     1       2.184   2.935  26.196  0.00  0.00    +0.177 C 
ATOM      5  C   UNL     1       3.103   3.244  25.017  0.00  0.00    +0.180 C 
ATOM      6  C   UNL     1       4.557   3.332  25.494  0.00  0.00    +0.221 C 
ENDROOT
BRANCH   5   7
ATOM      7  O   UNL     1       2.697   4.459  24.361  0.00  0.00    -0.386 OA
ATOM      8  H   UNL     1       2.498   5.108  25.063  0.00  0.00    +0.210 HD
ENDBRANCH   5   7
BRANCH   4   9
ATOM      9  O   UNL     1       1.784   4.182  26.802  0.00  0.00    -0.386 OA
ATOM     10  H   UNL     1       0.905   4.437  26.468  0.00  0.00    +0.210 HD
ENDBRANCH   4   9
BRANCH   6  11
ATOM     11  O   UNL     1       5.302   4.156  24.619  0.00  0.00    -0.337 OA
BRANCH  11  12
ATOM     12  C   UNL     1       6.131   3.669  23.592  0.00  0.00    +0.282 C 
ATOM     13  O   UNL     1       7.516   3.844  23.864  0.00  0.00    -0.341 OA
ATOM     14  C   UNL     1       7.837   5.188  24.246  0.00  0.00    +0.178 C 
ATOM     15  C   UNL     1       7.404   6.224  23.181  0.00  0.00    +0.177 C 
ATOM     16  C   UNL     1       5.993   5.955  22.609  0.00  0.00    +0.179 C 
ATOM     17  C   UNL     1       5.742   4.460  22.340  0.00  0.00    +0.201 C 
BRANCH  17  18
ATOM     18  O   UNL     1       4.358   4.219  22.025  0.00  0.00    -0.384 OA
ATOM     19  H   UNL     1       4.342   3.578  21.286  0.00  0.00    +0.210 HD
ENDBRANCH  17  18
BRANCH  16  20
ATOM     20  O   UNL     1       5.801   6.682  21.386  0.00  0.00    -0.386 OA
ATOM     21  H   UNL     1       4.867   6.949  21.345  0.00  0.00    +0.210 HD
ENDBRANCH  16  20
BRANCH  15  22
ATOM     22  O   UNL     1       8.356   6.316  22.109  0.00  0.00    -0.386 OA
ATOM     23  H   UNL     1       8.207   5.570  21.499  0.00  0.00    +0.210 HD
ENDBRANCH  15  22
BRANCH  14  24
ATOM     24  C   UNL     1       9.340   5.253  24.564  0.00  0.00    +0.190 C 
BRANCH  24  25
ATOM     25  O   UNL     1      10.107   4.772  23.463  0.00  0.00    -0.392 OA
ATOM     26  H   UNL     1      10.982   5.193  23.516  0.00  0.00    +0.210 HD
ENDBRANCH  24  25
ENDBRANCH  14  24
ENDBRANCH  11  12
ENDBRANCH   6  11
BRANCH   3  27
ATOM     27  C   UNL     1       2.351   2.314  28.653  0.00  0.00    +0.190 C 
BRANCH  27  28
ATOM     28  O   UNL     1       3.171   3.308  29.241  0.00  0.00    -0.392 OA
ATOM     29  H   UNL     1       4.011   2.890  29.501  0.00  0.00    +0.210 HD
ENDBRANCH  27  28
ENDBRANCH   3  27
BRANCH   1  30
ATOM     30  O   UNL     1       4.934   0.783  25.123  0.00  0.00    -0.453 OA
BRANCH  30  41
ATOM     31  C   UNL     1       6.975  -0.651  24.937  0.00  0.00    +0.181 A 
ATOM     32  O   UNL     1       7.623  -1.762  25.498  0.00  0.00    -0.451 OA
ATOM     33  C   UNL     1       6.981  -2.787  26.103  0.00  0.00    +0.147 A 
ATOM     34  C   UNL     1       5.624  -2.784  26.279  0.00  0.00    +0.109 A 
ATOM     35  C   UNL     1       5.015  -3.947  26.776  0.00  0.00    +0.135 A 
ATOM     36  C   UNL     1       5.779  -5.057  27.152  0.00  0.00    +0.091 A 
ATOM     37  C   UNL     1       7.160  -4.990  27.055  0.00  0.00    +0.124 A 
ATOM     38  C   UNL     1       4.931  -1.516  26.000  0.00  0.00    +0.238 A 
ATOM     39  O   UNL     1       3.773  -1.402  26.393  0.00  0.00    -0.283 OA
ATOM     40  C   UNL     1       7.770  -3.860  26.526  0.00  0.00    +0.092 A 
ATOM     41  C   UNL     1       5.657  -0.402  25.236  0.00  0.00    +0.214 A 
BRANCH  31  43
ATOM     42  C   UNL     1       7.731   0.288  22.712  0.00  0.00    +0.015 A 
ATOM     43  C   UNL     1       8.056   0.037  24.091  0.00  0.00    +0.025 A 
ATOM     44  C   UNL     1       9.248   0.628  24.511  0.00  0.00    +0.060 A 
ATOM     45  C   UNL     1      10.032   1.402  23.623  0.00  0.00    +0.159 A 
ATOM     46  C   UNL     1       9.671   1.611  22.289  0.00  0.00    +0.158 A 
ATOM     47  C   UNL     1       8.506   1.051  21.827  0.00  0.00    +0.050 A 
BRANCH  46  48
ATOM     48  O   UNL     1      10.456   2.384  21.483  0.00  0.00    -0.503 OA
ATOM     49  H   UNL     1      11.234   2.692  21.983  0.00  0.00    +0.292 HD
ENDBRANCH  46  48
BRANCH  45  50
ATOM     50  O   UNL     1      11.171   2.011  24.083  0.00  0.00    -0.503 OA
ATOM     51  H   UNL     1      10.991   2.969  23.996  0.00  0.00    +0.292 HD
ENDBRANCH  45  50
ENDBRANCH  31  43
BRANCH  37  52
ATOM     52  O   UNL     1       7.969  -6.012  27.458  0.00  0.00    -0.507 OA
ATOM     53  H   UNL     1       7.415  -6.770  27.713  0.00  0.00    +0.292 HD
ENDBRANCH  37  52
BRANCH  35  54
ATOM     54  O   UNL     1       3.658  -4.075  26.911  0.00  0.00    -0.506 OA
ATOM     55  H   UNL     1       3.392  -3.571  27.708  0.00  0.00    +0.292 HD
ENDBRANCH  35  54
ENDBRANCH  30  41
ENDBRANCH   1  30
TORSDOF 18
ENDMDL
MODEL 4
REMARK VINA RESULT:      -6.6      2.345      5.921
REMARK  Name = 
REMARK  18 active torsions:
REMARK  status: ('A' for Active; 'I' for Inactive)
REMARK    1  A    between atoms: C_3  and  O_44
REMARK    2  A    between atoms: C_4  and  O_43
REMARK    3  A    between atoms: C_6  and  C_7
REMARK    4  A    between atoms: C_8  and  O_20
REMARK    5  A    between atoms: C_12  and  O_19
REMARK    6  A    between atoms: C_14  and  O_18
REMARK    7  A    between atoms: O_20  and  C_21
REMARK    8  A    between atoms: C_22  and  O_31
REMARK    9  A    between atoms: C_23  and  O_30
REMARK   10  A    between atoms: C_24  and  O_29
REMARK   11  A    between atoms: C_25  and  C_27
REMARK   12  A    between atoms: C_27  and  O_28
REMARK   13  A    between atoms: O_31  and  C_32
REMARK   14  A    between atoms: C_33  and  O_42
REMARK   15  A    between atoms: C_34  and  O_41
REMARK   16  A    between atoms: C_35  and  O_40
REMARK   17  A    between atoms: C_36  and  C_38
REMARK   18  A    between atoms: C_38  and  O_39
REMARK                            x       y       z     vdW  Elec       q    Type
REMARK                         _______ _______ _______ _____ _____    ______ ____
ROOT
ATOM      1  C   UNL     1       6.887  -2.465  25.173  0.00  0.00    +0.340 C 
ATOM      2  O   UNL     1       8.211  -1.948  24.817  0.00  0.00    -0.331 OA
ATOM      3  C   UNL     1       8.531  -1.630  23.436  0.00  0.00    +0.179 C 
ATOM      4  C   UNL     1       7.773  -2.399  22.317  0.00  0.00    +0.177 C 
ATOM      5  C   UNL     1       6.468  -3.038  22.783  0.00  0.00    +0.180 C 
ATOM      6  C   UNL     1       6.642  -3.623  24.189  0.00  0.00    +0.221 C 
ENDROOT
BRANCH   5   7
ATOM      7  O   UNL     1       6.034  -4.045  21.851  0.00  0.00    -0.386 OA
ATOM      8  H   UNL     1       5.717  -3.578  21.054  0.00  0.00    +0.210 HD
ENDBRANCH   5   7
BRANCH   4   9
ATOM      9  O   UNL     1       8.571  -3.411  21.667  0.00  0.00    -0.386 OA
ATOM     10  H   UNL     1       8.095  -3.743  20.883  0.00  0.00    +0.210 HD
ENDBRANCH   4   9
BRANCH   6  11
ATOM     11  O   UNL     1       5.720  -4.677  24.390  0.00  0.00    -0.337 OA
BRANCH  11  12
ATOM     12  C   UNL     1       4.447  -4.511  24.966  0.00  0.00    +0.282 C 
ATOM     13  O   UNL     1       4.421  -4.819  26.355  0.00  0.00    -0.341 OA
ATOM     14  C   UNL     1       4.999  -6.097  26.647  0.00  0.00    +0.178 C 
ATOM     15  C   UNL     1       4.315  -7.246  25.868  0.00  0.00    +0.177 C 
ATOM     16  C   UNL     1       4.044  -6.901  24.387  0.00  0.00    +0.179 C 
ATOM     17  C   UNL     1       3.523  -5.464  24.203  0.00  0.00    +0.201 C 
BRANCH  17  18
ATOM     18  O   UNL     1       3.495  -5.100  22.810  0.00  0.00    -0.384 OA
ATOM     19  H   UNL     1       2.553  -5.022  22.556  0.00  0.00    +0.210 HD
ENDBRANCH  17  18
BRANCH  16  20
ATOM     20  O   UNL     1       3.088  -7.813  23.826  0.00  0.00    -0.386 OA
ATOM     21  H   UNL     1       3.084  -8.614  24.377  0.00  0.00    +0.210 HD
ENDBRANCH  16  20
BRANCH  15  22
ATOM     22  O   UNL     1       3.098  -7.669  26.502  0.00  0.00    -0.386 OA
ATOM     23  H   UNL     1       2.586  -8.200  25.865  0.00  0.00    +0.210 HD
ENDBRANCH  15  22
BRANCH  14  24
ATOM     24  C   UNL     1       4.965  -6.305  28.170  0.00  0.00    +0.190 C 
BRANCH  24  25
ATOM     25  O   UNL     1       5.363  -7.633  28.503  0.00  0.00    -0.392 OA
ATOM     26  H   UNL     1       6.317  -7.610  28.691  0.00  0.00    +0.210 HD
ENDBRANCH  24  25
ENDBRANCH  14  24
ENDBRANCH  11  12
ENDBRANCH   6  11
BRANCH   3  27
ATOM     27  C   UNL     1      10.068  -1.824  23.240  0.00  0.00    +0.190 C 
BRANCH  27  28
ATOM     28  O   UNL     1      10.524  -1.534  21.931  0.00  0.00    -0.392 OA
ATOM     29  H   UNL     1       9.757  -1.259  21.399  0.00  0.00    +0.210 HD
ENDBRANCH  27  28
ENDBRANCH   3  27
BRANCH   1  30
ATOM     30  O   UNL     1       5.948  -1.381  25.314  0.00  0.00    -0.453 OA
BRANCH  30  41
ATOM     31  C   UNL     1       6.606   1.001  25.702  0.00  0.00    +0.181 A 
ATOM     32  O   UNL     1       6.292   2.146  26.450  0.00  0.00    -0.451 OA
ATOM     33  C   UNL     1       5.741   2.117  27.684  0.00  0.00    +0.147 A 
ATOM     34  C   UNL     1       5.375   0.942  28.282  0.00  0.00    +0.109 A 
ATOM     35  C   UNL     1       4.952   0.980  29.620  0.00  0.00    +0.135 A 
ATOM     36  C   UNL     1       4.836   2.194  30.306  0.00  0.00    +0.091 A 
ATOM     37  C   UNL     1       5.118   3.376  29.638  0.00  0.00    +0.124 A 
ATOM     38  C   UNL     1       5.386  -0.258  27.429  0.00  0.00    +0.238 A 
ATOM     39  O   UNL     1       4.821  -1.263  27.853  0.00  0.00    -0.283 OA
ATOM     40  C   UNL     1       5.577   3.347  28.328  0.00  0.00    +0.092 A 
ATOM     41  C   UNL     1       6.094  -0.220  26.070  0.00  0.00    +0.214 A 
BRANCH  31  43
ATOM     42  C   UNL     1       8.879   1.768  24.895  0.00  0.00    +0.015 A 
ATOM     43  C   UNL     1       7.500   1.518  24.566  0.00  0.00    +0.025 A 
ATOM     44  C   UNL     1       7.216   1.605  23.203  0.00  0.00    +0.060 A 
ATOM     45  C   UNL     1       8.229   1.912  22.264  0.00  0.00    +0.159 A 
ATOM     46  C   UNL     1       9.554   2.150  22.639  0.00  0.00    +0.158 A 
ATOM     47  C   UNL     1       9.886   2.075  23.969  0.00  0.00    +0.050 A 
BRANCH  46  48
ATOM     48  O   UNL     1      10.495   2.422  21.687  0.00  0.00    -0.503 OA
ATOM     49  H   UNL     1      11.256   1.825  21.801  0.00  0.00    +0.292 HD
ENDBRANCH  46  48
BRANCH  45  50
ATOM     50  O   UNL     1       7.926   1.940  20.927  0.00  0.00    -0.503 OA
ATOM     51  H   UNL     1       7.228   2.622  20.846  0.00  0.00    +0.292 HD
ENDBRANCH  45  50
ENDBRANCH  31  43
BRANCH  37  52
ATOM     52  O   UNL     1       4.970   4.597  30.227  0.00  0.00    -0.507 OA
ATOM     53  H   UNL     1       5.851   4.970  30.405  0.00  0.00    +0.292 HD
ENDBRANCH  37  52
BRANCH  35  54
ATOM     54  O   UNL     1       4.644  -0.148  30.334  0.00  0.00    -0.506 OA
ATOM     55  H   UNL     1       3.982   0.104  31.011  0.00  0.00    +0.292 HD
ENDBRANCH  35  54
ENDBRANCH  30  41
ENDBRANCH   1  30
TORSDOF 18
ENDMDL
MODEL 5
REMARK VINA RESULT:      -6.6      2.399      7.101
REMARK  Name = 
REMARK  18 active torsions:
REMARK  status: ('A' for Active; 'I' for Inactive)
REMARK    1  A    between atoms: C_3  and  O_44
REMARK    2  A    between atoms: C_4  and  O_43
REMARK    3  A    between atoms: C_6  and  C_7
REMARK    4  A    between atoms: C_8  and  O_20
REMARK    5  A    between atoms: C_12  and  O_19
REMARK    6  A    between atoms: C_14  and  O_18
REMARK    7  A    between atoms: O_20  and  C_21
REMARK    8  A    between atoms: C_22  and  O_31
REMARK    9  A    between atoms: C_23  and  O_30
REMARK   10  A    between atoms: C_24  and  O_29
REMARK   11  A    between atoms: C_25  and  C_27
REMARK   12  A    between atoms: C_27  and  O_28
REMARK   13  A    between atoms: O_31  and  C_32
REMARK   14  A    between atoms: C_33  and  O_42
REMARK   15  A    between atoms: C_34  and  O_41
REMARK   16  A    between atoms: C_35  and  O_40
REMARK   17  A    between atoms: C_36  and  C_38
REMARK   18  A    between atoms: C_38  and  O_39
REMARK                            x       y       z     vdW  Elec       q    Type
REMARK                         _______ _______ _______ _____ _____    ______ ____
ROOT
ATOM      1  C   UNL     1       6.864  -0.493  26.973  0.00  0.00    +0.340 C 
ATOM      2  O   UNL     1       6.982  -0.152  28.392  0.00  0.00    -0.331 OA
ATOM      3  C   UNL     1       6.485   1.119  28.888  0.00  0.00    +0.179 C 
ATOM      4  C   UNL     1       6.433   2.317  27.898  0.00  0.00    +0.177 C 
ATOM      5  C   UNL     1       6.456   1.905  26.429  0.00  0.00    +0.180 C 
ATOM      6  C   UNL     1       7.423   0.733  26.227  0.00  0.00    +0.221 C 
ENDROOT
BRANCH   5   7
ATOM      7  O   UNL     1       6.813   3.022  25.594  0.00  0.00    -0.386 OA
ATOM      8  H   UNL     1       6.694   2.734  24.668  0.00  0.00    +0.210 HD
ENDBRANCH   5   7
BRANCH   4   9
ATOM      9  O   UNL     1       7.473   3.293  28.115  0.00  0.00    -0.386 OA
ATOM     10  H   UNL     1       8.297   2.837  28.371  0.00  0.00    +0.210 HD
ENDBRANCH   4   9
BRANCH   6  11
ATOM     11  O   UNL     1       7.900   0.725  24.896  0.00  0.00    -0.337 OA
BRANCH  11  12
ATOM     12  C   UNL     1       7.348  -0.058  23.865  0.00  0.00    +0.282 C 
ATOM     13  O   UNL     1       8.100  -1.236  23.599  0.00  0.00    -0.341 OA
ATOM     14  C   UNL     1       9.494  -0.968  23.406  0.00  0.00    +0.178 C 
ATOM     15  C   UNL     1       9.748   0.052  22.271  0.00  0.00    +0.177 C 
ATOM     16  C   UNL     1       8.782   1.258  22.309  0.00  0.00    +0.179 C 
ATOM     17  C   UNL     1       7.334   0.843  22.628  0.00  0.00    +0.201 C 
BRANCH  17  18
ATOM     18  O   UNL     1       6.510   1.997  22.877  0.00  0.00    -0.384 OA
ATOM     19  H   UNL     1       7.095   2.688  23.249  0.00  0.00    +0.210 HD
ENDBRANCH  17  18
BRANCH  16  20
ATOM     20  O   UNL     1       8.796   1.953  21.053  0.00  0.00    -0.386 OA
ATOM     21  H   UNL     1       9.434   1.502  20.473  0.00  0.00    +0.210 HD
ENDBRANCH  16  20
BRANCH  15  22
ATOM     22  O   UNL     1       9.703  -0.569  20.977  0.00  0.00    -0.386 OA
ATOM     23  H   UNL     1       9.876  -1.522  21.085  0.00  0.00    +0.210 HD
ENDBRANCH  15  22
BRANCH  14  24
ATOM     24  C   UNL     1      10.216  -2.307  23.177  0.00  0.00    +0.190 C 
BRANCH  24  25
ATOM     25  O   UNL     1       9.952  -3.208  24.249  0.00  0.00    -0.392 OA
ATOM     26  H   UNL     1       8.989  -3.223  24.383  0.00  0.00    +0.210 HD
ENDBRANCH  24  25
ENDBRANCH  14  24
ENDBRANCH  11  12
ENDBRANCH   6  11
BRANCH   3  27
ATOM     27  C   UNL     1       7.339   1.519  30.133  0.00  0.00    +0.190 C 
BRANCH  27  28
ATOM     28  O   UNL     1       8.706   1.164  30.033  0.00  0.00    -0.392 OA
ATOM     29  H   UNL     1       8.760   0.197  29.945  0.00  0.00    +0.210 HD
ENDBRANCH  27  28
ENDBRANCH   3  27
BRANCH   1  30
ATOM     30  O   UNL     1       5.551  -1.016  26.691  0.00  0.00    -0.453 OA
BRANCH  30  41
ATOM     31  C   UNL     1       5.348  -3.460  26.202  0.00  0.00    +0.181 A 
ATOM     32  O   UNL     1       5.135  -4.712  26.800  0.00  0.00    -0.451 OA
ATOM     33  C   UNL     1       4.420  -4.898  27.932  0.00  0.00    +0.147 A 
ATOM     34  C   UNL     1       3.897  -3.848  28.636  0.00  0.00    +0.109 A 
ATOM     35  C   UNL     1       3.042  -4.127  29.713  0.00  0.00    +0.135 A 
ATOM     36  C   UNL     1       2.785  -5.445  30.107  0.00  0.00    +0.091 A 
ATOM     37  C   UNL     1       3.412  -6.484  29.435  0.00  0.00    +0.124 A 
ATOM     38  C   UNL     1       4.351  -2.504  28.238  0.00  0.00    +0.238 A 
ATOM     39  O   UNL     1       4.112  -1.574  29.004  0.00  0.00    -0.283 OA
ATOM     40  C   UNL     1       4.227  -6.220  28.342  0.00  0.00    +0.092 A 
ATOM     41  C   UNL     1       5.084  -2.310  26.906  0.00  0.00    +0.214 A 
BRANCH  31  43
ATOM     42  C   UNL     1       6.873  -4.842  24.729  0.00  0.00    +0.015 A 
ATOM     43  C   UNL     1       5.894  -3.790  24.805  0.00  0.00    +0.025 A 
ATOM     44  C   UNL     1       5.440  -3.346  23.564  0.00  0.00    +0.060 A 
ATOM     45  C   UNL     1       5.926  -3.912  22.362  0.00  0.00    +0.159 A 
ATOM     46  C   UNL     1       6.882  -4.931  22.345  0.00  0.00    +0.158 A 
ATOM     47  C   UNL     1       7.361  -5.405  23.542  0.00  0.00    +0.050 A 
BRANCH  46  48
ATOM     48  O   UNL     1       7.301  -5.455  21.155  0.00  0.00    -0.503 OA
ATOM     49  H   UNL     1       7.923  -6.186  21.322  0.00  0.00    +0.292 HD
ENDBRANCH  46  48
BRANCH  45  50
ATOM     50  O   UNL     1       5.421  -3.486  21.161  0.00  0.00    -0.503 OA
ATOM     51  H   UNL     1       4.653  -2.928  21.399  0.00  0.00    +0.292 HD
ENDBRANCH  45  50
ENDBRANCH  31  43
BRANCH  37  52
ATOM     52  O   UNL     1       3.252  -7.788  29.803  0.00  0.00    -0.507 OA
ATOM     53  H   UNL     1       4.090  -8.117  30.171  0.00  0.00    +0.292 HD
ENDBRANCH  37  52
BRANCH  35  54
ATOM     54  O   UNL     1       2.402  -3.149  30.427  0.00  0.00    -0.506 OA
ATOM     55  H   UNL     1       1.441  -3.248  30.266  0.00  0.00    +0.292 HD
ENDBRANCH  35  54
ENDBRANCH  30  41
ENDBRANCH   1  30
TORSDOF 18
ENDMDL
MODEL 6
REMARK VINA RESULT:      -6.5      3.269      7.747
REMARK  Name = 
REMARK  18 active torsions:
REMARK  status: ('A' for Active; 'I' for Inactive)
REMARK    1  A    between atoms: C_3  and  O_44
REMARK    2  A    between atoms: C_4  and  O_43
REMARK    3  A    between atoms: C_6  and  C_7
REMARK    4  A    between atoms: C_8  and  O_20
REMARK    5  A    between atoms: C_12  and  O_19
REMARK    6  A    between atoms: C_14  and  O_18
REMARK    7  A    between atoms: O_20  and  C_21
REMARK    8  A    between atoms: C_22  and  O_31
REMARK    9  A    between atoms: C_23  and  O_30
REMARK   10  A    between atoms: C_24  and  O_29
REMARK   11  A    between atoms: C_25  and  C_27
REMARK   12  A    between atoms: C_27  and  O_28
REMARK   13  A    between atoms: O_31  and  C_32
REMARK   14  A    between atoms: C_33  and  O_42
REMARK   15  A    between atoms: C_34  and  O_41
REMARK   16  A    between atoms: C_35  and  O_40
REMARK   17  A    between atoms: C_36  and  C_38
REMARK   18  A    between atoms: C_38  and  O_39
REMARK                            x       y       z     vdW  Elec       q    Type
REMARK                         _______ _______ _______ _____ _____    ______ ____
ROOT
ATOM      1  C   UNL     1       5.247   1.776  25.821  0.00  0.00    +0.340 C 
ATOM      2  O   UNL     1       5.365   1.441  27.242  0.00  0.00    -0.331 OA
ATOM      3  C   UNL     1       4.179   1.165  28.034  0.00  0.00    +0.179 C 
ATOM      4  C   UNL     1       2.840   1.820  27.594  0.00  0.00    +0.177 C 
ATOM      5  C   UNL     1       2.826   2.280  26.139  0.00  0.00    +0.180 C 
ATOM      6  C   UNL     1       4.184   2.889  25.768  0.00  0.00    +0.221 C 
ENDROOT
BRANCH   5   7
ATOM      7  O   UNL     1       1.758   3.217  25.912  0.00  0.00    -0.386 OA
ATOM      8  H   UNL     1       2.076   4.090  26.214  0.00  0.00    +0.210 HD
ENDBRANCH   5   7
BRANCH   4   9
ATOM      9  O   UNL     1       2.437   2.928  28.427  0.00  0.00    -0.386 OA
ATOM     10  H   UNL     1       3.079   3.039  29.152  0.00  0.00    +0.210 HD
ENDBRANCH   4   9
BRANCH   6  11
ATOM     11  O   UNL     1       4.025   3.809  24.707  0.00  0.00    -0.337 OA
BRANCH  11  12
ATOM     12  C   UNL     1       4.487   3.589  23.396  0.00  0.00    +0.282 C 
ATOM     13  O   UNL     1       5.466   4.536  22.985  0.00  0.00    -0.341 OA
ATOM     14  C   UNL     1       5.050   5.890  23.206  0.00  0.00    +0.178 C 
ATOM     15  C   UNL     1       3.712   6.219  22.502  0.00  0.00    +0.177 C 
ATOM     16  C   UNL     1       2.652   5.105  22.659  0.00  0.00    +0.179 C 
ATOM     17  C   UNL     1       3.251   3.696  22.500  0.00  0.00    +0.201 C 
BRANCH  17  18
ATOM     18  O   UNL     1       2.295   2.685  22.871  0.00  0.00    -0.384 OA
ATOM     19  H   UNL     1       2.796   1.853  22.996  0.00  0.00    +0.210 HD
ENDBRANCH  17  18
BRANCH  16  20
ATOM     20  O   UNL     1       1.603   5.272  21.694  0.00  0.00    -0.386 OA
ATOM     21  H   UNL     1       1.877   4.821  20.877  0.00  0.00    +0.210 HD
ENDBRANCH  16  20
BRANCH  15  22
ATOM     22  O   UNL     1       3.902   6.520  21.111  0.00  0.00    -0.386 OA
ATOM     23  H   UNL     1       3.330   7.274  20.877  0.00  0.00    +0.210 HD
ENDBRANCH  15  22
BRANCH  14  24
ATOM     24  C   UNL     1       6.195   6.823  22.777  0.00  0.00    +0.190 C 
BRANCH  24  25
ATOM     25  O   UNL     1       6.792   6.361  21.568  0.00  0.00    -0.392 OA
ATOM     26  H   UNL     1       6.190   6.593  20.841  0.00  0.00    +0.210 HD
ENDBRANCH  24  25
ENDBRANCH  14  24
ENDBRANCH  11  12
ENDBRANCH   6  11
BRANCH   3  27
ATOM     27  C   UNL     1       4.483   1.562  29.513  0.00  0.00    +0.190 C 
BRANCH  27  28
ATOM     28  O   UNL     1       5.150   2.804  29.652  0.00  0.00    -0.392 OA
ATOM     29  H   UNL     1       5.454   3.082  28.770  0.00  0.00    +0.210 HD
ENDBRANCH  27  28
ENDBRANCH   3  27
BRANCH   1  30
ATOM     30  O   UNL     1       5.127   0.577  25.031  0.00  0.00    -0.453 OA
BRANCH  30  41
ATOM     31  C   UNL     1       7.469  -0.156  24.553  0.00  0.00    +0.181 A 
ATOM     32  O   UNL     1       8.357  -1.237  24.677  0.00  0.00    -0.451 OA
ATOM     33  C   UNL     1       7.974  -2.533  24.692  0.00  0.00    +0.147 A 
ATOM     34  C   UNL     1       6.655  -2.896  24.656  0.00  0.00    +0.109 A 
ATOM     35  C   UNL     1       6.343  -4.258  24.521  0.00  0.00    +0.135 A 
ATOM     36  C   UNL     1       7.348  -5.230  24.497  0.00  0.00    +0.091 A 
ATOM     37  C   UNL     1       8.671  -4.836  24.638  0.00  0.00    +0.124 A 
ATOM     38  C   UNL     1       5.674  -1.814  24.843  0.00  0.00    +0.238 A 
ATOM     39  O   UNL     1       4.511  -2.135  25.076  0.00  0.00    -0.283 OA
ATOM     40  C   UNL     1       8.993  -3.488  24.731  0.00  0.00    +0.092 A 
ATOM     41  C   UNL     1       6.122  -0.352  24.735  0.00  0.00    +0.214 A 
BRANCH  31  43
ATOM     42  C   UNL     1       9.790   0.838  24.372  0.00  0.00    +0.015 A 
ATOM     43  C   UNL     1       8.372   1.047  24.243  0.00  0.00    +0.025 A 
ATOM     44  C   UNL     1       8.027   2.270  23.668  0.00  0.00    +0.060 A 
ATOM     45  C   UNL     1       9.021   3.192  23.262  0.00  0.00    +0.159 A 
ATOM     46  C   UNL     1      10.387   2.940  23.414  0.00  0.00    +0.158 A 
ATOM     47  C   UNL     1      10.778   1.748  23.973  0.00  0.00    +0.050 A 
BRANCH  46  48
ATOM     48  O   UNL     1      11.303   3.857  22.985  0.00  0.00    -0.503 OA
ATOM     49  H   UNL     1      12.129   3.754  23.491  0.00  0.00    +0.292 HD
ENDBRANCH  46  48
BRANCH  45  50
ATOM     50  O   UNL     1       8.649   4.363  22.654  0.00  0.00    -0.503 OA
ATOM     51  H   UNL     1       9.219   5.045  23.062  0.00  0.00    +0.292 HD
ENDBRANCH  45  50
ENDBRANCH  31  43
BRANCH  37  52
ATOM     52  O   UNL     1       9.696  -5.735  24.682  0.00  0.00    -0.507 OA
ATOM     53  H   UNL     1      10.372  -5.412  25.303  0.00  0.00    +0.292 HD
ENDBRANCH  37  52
BRANCH  35  54
ATOM     54  O   UNL     1       5.058  -4.716  24.391  0.00  0.00    -0.506 OA
ATOM     55  H   UNL     1       4.706  -4.862  25.294  0.00  0.00    +0.292 HD
ENDBRANCH  35  54
ENDBRANCH  30  41
ENDBRANCH   1  30
TORSDOF 18
ENDMDL
MODEL 7
REMARK VINA RESULT:      -6.4      2.016      5.408
REMARK  Name = 
REMARK  18 active torsions:
REMARK  status: ('A' for Active; 'I' for Inactive)
REMARK    1  A    between atoms: C_3  and  O_44
REMARK    2  A    between atoms: C_4  and  O_43
REMARK    3  A    between atoms: C_6  and  C_7
REMARK    4  A    between atoms: C_8  and  O_20
REMARK    5  A    between atoms: C_12  and  O_19
REMARK    6  A    between atoms: C_14  and  O_18
REMARK    7  A    between atoms: O_20  and  C_21
REMARK    8  A    between atoms: C_22  and  O_31
REMARK    9  A    between atoms: C_23  and  O_30
REMARK   10  A    between atoms: C_24  and  O_29
REMARK   11  A    between atoms: C_25  and  C_27
REMARK   12  A    between atoms: C_27  and  O_28
REMARK   13  A    between atoms: O_31  and  C_32
REMARK   14  A    between atoms: C_33  and  O_42
REMARK   15  A    between atoms: C_34  and  O_41
REMARK   16  A    between atoms: C_35  and  O_40
REMARK   17  A    between atoms: C_36  and  C_38
REMARK   18  A    between atoms: C_38  and  O_39
REMARK                            x       y       z     vdW  Elec       q    Type
REMARK                         _______ _______ _______ _____ _____    ______ ____
ROOT
ATOM      1  C   UNL     1       7.186  -4.933  25.128  0.00  0.00    +0.340 C 
ATOM      2  O   UNL     1       7.445  -5.199  23.712  0.00  0.00    -0.331 OA
ATOM      3  C   UNL     1       6.738  -4.459  22.681  0.00  0.00    +0.179 C 
ATOM      4  C   UNL     1       5.331  -3.894  23.025  0.00  0.00    +0.177 C 
ATOM      5  C   UNL     1       5.065  -3.771  24.523  0.00  0.00    +0.180 C 
ATOM      6  C   UNL     1       5.653  -4.979  25.262  0.00  0.00    +0.221 C 
ENDROOT
BRANCH   5   7
ATOM      7  O   UNL     1       3.655  -3.642  24.780  0.00  0.00    -0.386 OA
ATOM      8  H   UNL     1       3.209  -4.358  24.287  0.00  0.00    +0.210 HD
ENDBRANCH   5   7
BRANCH   4   9
ATOM      9  O   UNL     1       4.247  -4.636  22.428  0.00  0.00    -0.386 OA
ATOM     10  H   UNL     1       3.773  -5.130  23.122  0.00  0.00    +0.210 HD
ENDBRANCH   4   9
BRANCH   6  11
ATOM     11  O   UNL     1       4.950  -5.194  26.470  0.00  0.00    -0.337 OA
BRANCH  11  12
ATOM     12  C   UNL     1       4.789  -6.454  27.074  0.00  0.00    +0.282 C 
ATOM     13  O   UNL     1       4.156  -7.402  26.222  0.00  0.00    -0.341 OA
ATOM     14  C   UNL     1       2.941  -6.904  25.649  0.00  0.00    +0.178 C 
ATOM     15  C   UNL     1       1.927  -6.442  26.722  0.00  0.00    +0.177 C 
ATOM     16  C   UNL     1       2.575  -5.622  27.860  0.00  0.00    +0.179 C 
ATOM     17  C   UNL     1       3.925  -6.209  28.314  0.00  0.00    +0.201 C 
BRANCH  17  18
ATOM     18  O   UNL     1       4.604  -5.307  29.207  0.00  0.00    -0.384 OA
ATOM     19  H   UNL     1       4.037  -5.212  30.000  0.00  0.00    +0.210 HD
ENDBRANCH  17  18
BRANCH  16  20
ATOM     20  O   UNL     1       1.697  -5.556  28.994  0.00  0.00    -0.386 OA
ATOM     21  H   UNL     1       0.981  -4.935  28.778  0.00  0.00    +0.210 HD
ENDBRANCH  16  20
BRANCH  15  22
ATOM     22  O   UNL     1       1.195  -7.548  27.273  0.00  0.00    -0.386 OA
ATOM     23  H   UNL     1       0.250  -7.426  27.067  0.00  0.00    +0.210 HD
ENDBRANCH  15  22
BRANCH  14  24
ATOM     24  C   UNL     1       2.370  -7.982  24.713  0.00  0.00    +0.190 C 
BRANCH  24  25
ATOM     25  O   UNL     1       2.584  -9.282  25.257  0.00  0.00    -0.392 OA
ATOM     26  H   UNL     1       3.183  -9.753  24.653  0.00  0.00    +0.210 HD
ENDBRANCH  24  25
ENDBRANCH  14  24
ENDBRANCH  11  12
ENDBRANCH   6  11
BRANCH   3  27
ATOM     27  C   UNL     1       6.630  -5.371  21.419  0.00  0.00    +0.190 C 
BRANCH  27  28
ATOM     28  O   UNL     1       6.126  -6.668  21.685  0.00  0.00    -0.392 OA
ATOM     29  H   UNL     1       5.444  -6.590  22.375  0.00  0.00    +0.210 HD
ENDBRANCH  27  28
ENDBRANCH   3  27
BRANCH   1  30
ATOM     30  O   UNL     1       7.950  -3.793  25.571  0.00  0.00    -0.453 OA
BRANCH  30  41
ATOM     31  C   UNL     1       7.223  -1.400  25.549  0.00  0.00    +0.181 A 
ATOM     32  O   UNL     1       7.622  -0.107  25.176  0.00  0.00    -0.451 OA
ATOM     33  C   UNL     1       8.465   0.159  24.153  0.00  0.00    +0.147 A 
ATOM     34  C   UNL     1       9.061  -0.839  23.432  0.00  0.00    +0.109 A 
ATOM     35  C   UNL     1       9.801  -0.487  22.292  0.00  0.00    +0.135 A 
ATOM     36  C   UNL     1       9.988   0.854  21.940  0.00  0.00    +0.091 A 
ATOM     37  C   UNL     1       9.455   1.845  22.751  0.00  0.00    +0.124 A 
ATOM     38  C   UNL     1       8.932  -2.203  23.972  0.00  0.00    +0.238 A 
ATOM     39  O   UNL     1       9.664  -3.072  23.503  0.00  0.00    -0.283 OA
ATOM     40  C   UNL     1       8.687   1.507  23.857  0.00  0.00    +0.092 A 
ATOM     41  C   UNL     1       7.906  -2.493  25.073  0.00  0.00    +0.214 A 
BRANCH  31  43
ATOM     42  C   UNL     1       5.158  -0.080  26.179  0.00  0.00    +0.015 A 
ATOM     43  C   UNL     1       6.035  -1.176  26.497  0.00  0.00    +0.025 A 
ATOM     44  C   UNL     1       5.569  -1.999  27.522  0.00  0.00    +0.060 A 
ATOM     45  C   UNL     1       4.335  -1.740  28.162  0.00  0.00    +0.159 A 
ATOM     46  C   UNL     1       3.522  -0.657  27.817  0.00  0.00    +0.158 A 
ATOM     47  C   UNL     1       3.935   0.183  26.812  0.00  0.00    +0.050 A 
BRANCH  46  48
ATOM     48  O   UNL     1       2.330  -0.467  28.456  0.00  0.00    -0.503 OA
ATOM     49  H   UNL     1       1.860   0.285  28.052  0.00  0.00    +0.292 HD
ENDBRANCH  46  48
BRANCH  45  50
ATOM     50  O   UNL     1       3.883  -2.598  29.131  0.00  0.00    -0.503 OA
ATOM     51  H   UNL     1       4.316  -2.292  29.954  0.00  0.00    +0.292 HD
ENDBRANCH  45  50
ENDBRANCH  31  43
BRANCH  37  52
ATOM     52  O   UNL     1       9.649   3.172  22.500  0.00  0.00    -0.507 OA
ATOM     53  H   UNL     1      10.156   3.562  23.232  0.00  0.00    +0.292 HD
ENDBRANCH  37  52
BRANCH  35  54
ATOM     54  O   UNL     1      10.366  -1.414  21.457  0.00  0.00    -0.506 OA
ATOM     55  H   UNL     1      11.318  -1.195  21.376  0.00  0.00    +0.292 HD
ENDBRANCH  35  54
ENDBRANCH  30  41
ENDBRANCH   1  30
TORSDOF 18
ENDMDL
MODEL 8
REMARK VINA RESULT:      -6.4      1.356      2.298
REMARK  Name = 
REMARK  18 active torsions:
REMARK  status: ('A' for Active; 'I' for Inactive)
REMARK    1  A    between atoms: C_3  and  O_44
REMARK    2  A    between atoms: C_4  and  O_43
REMARK    3  A    between atoms: C_6  and  C_7
REMARK    4  A    between atoms: C_8  and  O_20
REMARK    5  A    between atoms: C_12  and  O_19
REMARK    6  A    between atoms: C_14  and  O_18
REMARK    7  A    between atoms: O_20  and  C_21
REMARK    8  A    between atoms: C_22  and  O_31
REMARK    9  A    between atoms: C_23  and  O_30
REMARK   10  A    between atoms: C_24  and  O_29
REMARK   11  A    between atoms: C_25  and  C_27
REMARK   12  A    between atoms: C_27  and  O_28
REMARK   13  A    between atoms: O_31  and  C_32
REMARK   14  A    between atoms: C_33  and  O_42
REMARK   15  A    between atoms: C_34  and  O_41
REMARK   16  A    between atoms: C_35  and  O_40
REMARK   17  A    between atoms: C_36  and  C_38
REMARK   18  A    between atoms: C_38  and  O_39
REMARK                            x       y       z     vdW  Elec       q    Type
REMARK                         _______ _______ _______ _____ _____    ______ ____
ROOT
ATOM      1  C   UNL     1       4.869  -1.002  26.318  0.00  0.00    +0.340 C 
ATOM      2  O   UNL     1       4.015   0.187  26.346  0.00  0.00    -0.331 OA
ATOM      3  C   UNL     1       3.388   0.616  27.584  0.00  0.00    +0.179 C 
ATOM      4  C   UNL     1       3.093  -0.464  28.663  0.00  0.00    +0.177 C 
ATOM      5  C   UNL     1       3.913  -1.741  28.499  0.00  0.00    +0.180 C 
ATOM      6  C   UNL     1       4.039  -2.097  27.013  0.00  0.00    +0.221 C 
ENDROOT
BRANCH   5   7
ATOM      7  O   UNL     1       3.324  -2.823  29.243  0.00  0.00    -0.386 OA
ATOM      8  H   UNL     1       2.362  -2.793  29.076  0.00  0.00    +0.210 HD
ENDBRANCH   5   7
BRANCH   4   9
ATOM      9  O   UNL     1       1.698  -0.826  28.754  0.00  0.00    -0.386 OA
ATOM     10  H   UNL     1       1.312  -0.851  27.859  0.00  0.00    +0.210 HD
ENDBRANCH   4   9
BRANCH   6  11
ATOM     11  O   UNL     1       4.246  -3.488  26.867  0.00  0.00    -0.337 OA
BRANCH  11  12
ATOM     12  C   UNL     1       5.246  -4.054  26.055  0.00  0.00    +0.282 C 
ATOM     13  O   UNL     1       4.772  -4.427  24.766  0.00  0.00    -0.341 OA
ATOM     14  C   UNL     1       3.586  -5.230  24.827  0.00  0.00    +0.178 C 
ATOM     15  C   UNL     1       3.781  -6.509  25.675  0.00  0.00    +0.177 C 
ATOM     16  C   UNL     1       4.545  -6.254  26.994  0.00  0.00    +0.179 C 
ATOM     17  C   UNL     1       5.735  -5.294  26.809  0.00  0.00    +0.201 C 
BRANCH  17  18
ATOM     18  O   UNL     1       6.284  -4.902  28.081  0.00  0.00    -0.384 OA
ATOM     19  H   UNL     1       5.527  -4.762  28.686  0.00  0.00    +0.210 HD
ENDBRANCH  17  18
BRANCH  16  20
ATOM     20  O   UNL     1       5.031  -7.490  27.540  0.00  0.00    -0.386 OA
ATOM     21  H   UNL     1       4.260  -8.031  27.779  0.00  0.00    +0.210 HD
ENDBRANCH  16  20
BRANCH  15  22
ATOM     22  O   UNL     1       4.429  -7.550  24.928  0.00  0.00    -0.386 OA
ATOM     23  H   UNL     1       4.310  -7.367  23.978  0.00  0.00    +0.210 HD
ENDBRANCH  15  22
BRANCH  14  24
ATOM     24  C   UNL     1       3.133  -5.531  23.388  0.00  0.00    +0.190 C 
BRANCH  24  25
ATOM     25  O   UNL     1       4.247  -5.906  22.581  0.00  0.00    -0.392 OA
ATOM     26  H   UNL     1       5.046  -5.794  23.122  0.00  0.00    +0.210 HD
ENDBRANCH  24  25
ENDBRANCH  14  24
ENDBRANCH  11  12
ENDBRANCH   6  11
BRANCH   3  27
ATOM     27  C   UNL     1       2.061   1.356  27.224  0.00  0.00    +0.190 C 
BRANCH  27  28
ATOM     28  O   UNL     1       1.225   0.640  26.333  0.00  0.00    -0.392 OA
ATOM     29  H   UNL     1       1.154   1.153  25.509  0.00  0.00    +0.210 HD
ENDBRANCH  27  28
ENDBRANCH   3  27
BRANCH   1  30
ATOM     30  O   UNL     1       6.202  -0.671  26.756  0.00  0.00    -0.453 OA
BRANCH  30  41
ATOM     31  C   UNL     1       8.132  -0.996  25.199  0.00  0.00    +0.181 A 
ATOM     32  O   UNL     1       8.869  -0.376  24.177  0.00  0.00    -0.451 OA
ATOM     33  C   UNL     1       9.023   0.962  24.060  0.00  0.00    +0.147 A 
ATOM     34  C   UNL     1       8.401   1.836  24.908  0.00  0.00    +0.109 A 
ATOM     35  C   UNL     1       8.729   3.198  24.819  0.00  0.00    +0.135 A 
ATOM     36  C   UNL     1       9.615   3.664  23.841  0.00  0.00    +0.091 A 
ATOM     37  C   UNL     1      10.150   2.764  22.932  0.00  0.00    +0.124 A 
ATOM     38  C   UNL     1       7.372   1.267  25.795  0.00  0.00    +0.238 A 
ATOM     39  O   UNL     1       6.621   2.051  26.371  0.00  0.00    -0.283 OA
ATOM     40  C   UNL     1       9.864   1.409  23.037  0.00  0.00    +0.092 A 
ATOM     41  C   UNL     1       7.276  -0.252  25.975  0.00  0.00    +0.214 A 
BRANCH  31  43
ATOM     42  C   UNL     1       9.024  -3.080  26.323  0.00  0.00    +0.015 A 
ATOM     43  C   UNL     1       8.528  -2.477  25.114  0.00  0.00    +0.025 A 
ATOM     44  C   UNL     1       8.302  -3.382  24.077  0.00  0.00    +0.060 A 
ATOM     45  C   UNL     1       8.550  -4.765  24.248  0.00  0.00    +0.159 A 
ATOM     46  C   UNL     1       9.036  -5.299  25.444  0.00  0.00    +0.158 A 
ATOM     47  C   UNL     1       9.274  -4.449  26.496  0.00  0.00    +0.050 A 
BRANCH  46  48
ATOM     48  O   UNL     1       9.238  -6.645  25.559  0.00  0.00    -0.503 OA
ATOM     49  H   UNL     1       9.985  -6.812  26.162  0.00  0.00    +0.292 HD
ENDBRANCH  46  48
BRANCH  45  50
ATOM     50  O   UNL     1       8.269  -5.633  23.225  0.00  0.00    -0.503 OA
ATOM     51  H   UNL     1       9.020  -6.260  23.219  0.00  0.00    +0.292 HD
ENDBRANCH  45  50
ENDBRANCH  31  43
BRANCH  37  52
ATOM     52  O   UNL     1      10.974   3.158  21.918  0.00  0.00    -0.507 OA
ATOM     53  H   UNL     1      10.573   3.918  21.463  0.00  0.00    +0.292 HD
ENDBRANCH  37  52
BRANCH  35  54
ATOM     54  O   UNL     1       8.226   4.142  25.675  0.00  0.00    -0.506 OA
ATOM     55  H   UNL     1       7.329   4.378  25.358  0.00  0.00    +0.292 HD
ENDBRANCH  35  54
ENDBRANCH  30  41
ENDBRANCH   1  30
TORSDOF 18
ENDMDL
MODEL 9
REMARK VINA RESULT:      -6.4      2.771      7.712
REMARK  Name = 
REMARK  18 active torsions:
REMARK  status: ('A' for Active; 'I' for Inactive)
REMARK    1  A    between atoms: C_3  and  O_44
REMARK    2  A    between atoms: C_4  and  O_43
REMARK    3  A    between atoms: C_6  and  C_7
REMARK    4  A    between atoms: C_8  and  O_20
REMARK    5  A    between atoms: C_12  and  O_19
REMARK    6  A    between atoms: C_14  and  O_18
REMARK    7  A    between atoms: O_20  and  C_21
REMARK    8  A    between atoms: C_22  and  O_31
REMARK    9  A    between atoms: C_23  and  O_30
REMARK   10  A    between atoms: C_24  and  O_29
REMARK   11  A    between atoms: C_25  and  C_27
REMARK   12  A    between atoms: C_27  and  O_28
REMARK   13  A    between atoms: O_31  and  C_32
REMARK   14  A    between atoms: C_33  and  O_42
REMARK   15  A    between atoms: C_34  and  O_41
REMARK   16  A    between atoms: C_35  and  O_40
REMARK   17  A    between atoms: C_36  and  C_38
REMARK   18  A    between atoms: C_38  and  O_39
REMARK                            x       y       z     vdW  Elec       q    Type
REMARK                         _______ _______ _______ _____ _____    ______ ____
ROOT
ATOM      1  C   UNL     1       6.518   1.736  26.882  0.00  0.00    +0.340 C 
ATOM      2  O   UNL     1       6.922   1.838  28.285  0.00  0.00    -0.331 OA
ATOM      3  C   UNL     1       5.937   2.107  29.318  0.00  0.00    +0.179 C 
ATOM      4  C   UNL     1       4.657   2.892  28.916  0.00  0.00    +0.177 C 
ATOM      5  C   UNL     1       4.364   2.869  27.418  0.00  0.00    +0.180 C 
ATOM      6  C   UNL     1       5.670   2.995  26.626  0.00  0.00    +0.221 C 
ENDROOT
BRANCH   5   7
ATOM      7  O   UNL     1       3.440   3.915  27.066  0.00  0.00    -0.386 OA
ATOM      8  H   UNL     1       3.708   4.247  26.187  0.00  0.00    +0.210 HD
ENDBRANCH   5   7
BRANCH   4   9
ATOM      9  O   UNL     1       4.655   4.264  29.361  0.00  0.00    -0.386 OA
ATOM     10  H   UNL     1       3.751   4.625  29.296  0.00  0.00    +0.210 HD
ENDBRANCH   4   9
BRANCH   6  11
ATOM     11  O   UNL     1       5.409   3.553  25.353  0.00  0.00    -0.337 OA
BRANCH  11  12
ATOM     12  C   UNL     1       6.003   3.104  24.159  0.00  0.00    +0.282 C 
ATOM     13  O   UNL     1       7.238   3.750  23.874  0.00  0.00    -0.341 OA
ATOM     14  C   UNL     1       7.141   5.178  23.942  0.00  0.00    +0.178 C 
ATOM     15  C   UNL     1       6.054   5.742  22.996  0.00  0.00    +0.177 C 
ATOM     16  C   UNL     1       4.740   4.930  23.026  0.00  0.00    +0.179 C 
ATOM     17  C   UNL     1       4.987   3.410  23.055  0.00  0.00    +0.201 C 
BRANCH  17  18
ATOM     18  O   UNL     1       3.765   2.693  23.308  0.00  0.00    -0.384 OA
ATOM     19  H   UNL     1       3.151   3.323  23.738  0.00  0.00    +0.210 HD
ENDBRANCH  17  18
BRANCH  16  20
ATOM     20  O   UNL     1       3.929   5.243  21.884  0.00  0.00    -0.386 OA
ATOM     21  H   UNL     1       3.690   6.184  21.940  0.00  0.00    +0.210 HD
ENDBRANCH  16  20
BRANCH  15  22
ATOM     22  O   UNL     1       6.529   5.853  21.645  0.00  0.00    -0.386 OA
ATOM     23  H   UNL     1       6.084   6.611  21.223  0.00  0.00    +0.210 HD
ENDBRANCH  15  22
BRANCH  14  24
ATOM     24  C   UNL     1       8.534   5.770  23.669  0.00  0.00    +0.190 C 
BRANCH  24  25
ATOM     25  O   UNL     1       9.480   5.284  24.619  0.00  0.00    -0.392 OA
ATOM     26  H   UNL     1       9.371   5.810  25.430  0.00  0.00    +0.210 HD
ENDBRANCH  24  25
ENDBRANCH  14  24
ENDBRANCH  11  12
ENDBRANCH   6  11
BRANCH   3  27
ATOM     27  C   UNL     1       6.653   2.858  30.485  0.00  0.00    +0.190 C 
BRANCH  27  28
ATOM     28  O   UNL     1       7.569   3.850  30.057  0.00  0.00    -0.392 OA
ATOM     29  H   UNL     1       8.096   3.478  29.327  0.00  0.00    +0.210 HD
ENDBRANCH  27  28
ENDBRANCH   3  27
BRANCH   1  30
ATOM     30  O   UNL     1       6.015   0.415  26.600  0.00  0.00    -0.453 OA
BRANCH  30  41
ATOM     31  C   UNL     1       7.778  -0.684  25.207  0.00  0.00    +0.181 A 
ATOM     32  O   UNL     1       8.602  -1.818  25.126  0.00  0.00    -0.451 OA
ATOM     33  C   UNL     1       8.279  -3.027  25.638  0.00  0.00    +0.147 A 
ATOM     34  C   UNL     1       7.128  -3.223  26.351  0.00  0.00    +0.109 A 
ATOM     35  C   UNL     1       6.788  -4.535  26.718  0.00  0.00    +0.135 A 
ATOM     36  C   UNL     1       7.637  -5.608  26.429  0.00  0.00    +0.091 A 
ATOM     37  C   UNL     1       8.845  -5.360  25.793  0.00  0.00    +0.124 A 
ATOM     38  C   UNL     1       6.384  -2.013  26.739  0.00  0.00    +0.238 A 
ATOM     39  O   UNL     1       5.505  -2.134  27.589  0.00  0.00    -0.283 OA
ATOM     40  C   UNL     1       9.172  -4.073  25.389  0.00  0.00    +0.092 A 
ATOM     41  C   UNL     1       6.715  -0.670  26.078  0.00  0.00    +0.214 A 
BRANCH  31  43
ATOM     42  C   UNL     1       9.559   1.029  24.661  0.00  0.00    +0.015 A 
ATOM     43  C   UNL     1       8.395   0.310  24.213  0.00  0.00    +0.025 A 
ATOM     44  C   UNL     1       8.104   0.485  22.860  0.00  0.00    +0.060 A 
ATOM     45  C   UNL     1       8.913   1.305  22.039  0.00  0.00    +0.159 A 
ATOM     46  C   UNL     1      10.033   1.986  22.527  0.00  0.00    +0.158 A 
ATOM     47  C   UNL     1      10.362   1.845  23.853  0.00  0.00    +0.050 A 
BRANCH  46  48
ATOM     48  O   UNL     1      10.790   2.748  21.684  0.00  0.00    -0.503 OA
ATOM     49  H   UNL     1      11.696   2.818  22.034  0.00  0.00    +0.292 HD
ENDBRANCH  46  48
BRANCH  45  50
ATOM     50  O   UNL     1       8.628   1.415  20.703  0.00  0.00    -0.503 OA
ATOM     51  H   UNL     1       9.488   1.619  20.283  0.00  0.00    +0.292 HD
ENDBRANCH  45  50
ENDBRANCH  31  43
BRANCH  37  52
ATOM     52  O   UNL     1       9.746  -6.351  25.533  0.00  0.00    -0.507 OA
ATOM     53  H   UNL     1      10.633  -5.959  25.458  0.00  0.00    +0.292 HD
ENDBRANCH  37  52
BRANCH  35  54
ATOM     54  O   UNL     1       5.618  -4.847  27.360  0.00  0.00    -0.506 OA
ATOM     55  H   UNL     1       4.882  -4.641  26.746  0.00  0.00    +0.292 HD
ENDBRANCH  35  54
ENDBRANCH  30  41
ENDBRANCH   1  30
TORSDOF 18
ENDMDL
