MODEL 1
REMARK VINA RESULT:      -7.8      0.000      0.000
REMARK  Name = 
REMARK  8 active torsions:
REMARK  status: ('A' for Active; 'I' for Inactive)
REMARK    1  A    between atoms: C_2  and  C_4
REMARK    2  A    between atoms: C_4  and  C_5
REMARK    3  A    between atoms: C_6  and  O_26
REMARK    4  A    between atoms: C_10  and  O_11
REMARK    5  A    between atoms: C_13  and  C_18
REMARK    6  A    between atoms: C_14  and  O_17
REMARK    7  A    between atoms: C_20  and  O_25
REMARK    8  A    between atoms: C_21  and  O_24
REMARK                            x       y       z     vdW  Elec       q    Type
REMARK                         _______ _______ _______ _____ _____    ______ ____
ROOT
ATOM      1  C   UNL     1       8.169  -2.175  23.330  0.00  0.00    +0.039 A 
ATOM      2  C   UNL     1       9.486  -2.072  23.803  0.00  0.00    +0.127 A 
ATOM      3  C   UNL     1      10.114  -0.831  23.957  0.00  0.00    +0.093 A 
ATOM      4  C   UNL     1       9.435   0.338  23.601  0.00  0.00    +0.147 A 
ATOM      5  O   UNL     1      10.113   1.522  23.807  0.00  0.00    -0.451 OA
ATOM      6  C   UNL     1       9.505   2.713  23.433  0.00  0.00    +0.181 A 
ATOM      7  C   UNL     1       8.301   2.777  22.832  0.00  0.00    +0.208 A 
ATOM      8  C   UNL     1       7.535   1.528  22.587  0.00  0.00    +0.238 A 
ATOM      9  O   UNL     1       6.491   1.592  21.949  0.00  0.00    -0.283 OA
ATOM     10  C   UNL     1       8.147   0.268  23.078  0.00  0.00    +0.109 A 
ATOM     11  C   UNL     1       7.502  -0.984  22.976  0.00  0.00    +0.138 A 
ENDROOT
BRANCH   6  12
ATOM     12  C   UNL     1      10.352   3.930  23.596  0.00  0.00    +0.025 A 
ATOM     13  C   UNL     1       9.869   5.066  24.264  0.00  0.00    +0.015 A 
ATOM     14  C   UNL     1      10.713   6.148  24.555  0.00  0.00    +0.050 A 
ATOM     15  C   UNL     1      12.048   6.091  24.200  0.00  0.00    +0.158 A 
ATOM     16  C   UNL     1      12.532   4.997  23.507  0.00  0.00    +0.159 A 
ATOM     17  C   UNL     1      11.695   3.942  23.154  0.00  0.00    +0.060 A 
BRANCH  15  18
ATOM     18  O   UNL     1      12.889   7.108  24.554  0.00  0.00    -0.503 OA
ATOM     19  H   UNL     1      13.313   6.795  25.379  0.00  0.00    +0.292 HD
ENDBRANCH  15  18
BRANCH  16  20
ATOM     20  O   UNL     1      13.880   4.962  23.225  0.00  0.00    -0.503 OA
ATOM     21  H   UNL     1      14.004   4.419  22.426  0.00  0.00    +0.292 HD
ENDBRANCH  16  20
ENDBRANCH   6  12
BRANCH   2  22
ATOM     22  O   UNL     1      10.158  -3.223  24.112  0.00  0.00    -0.506 OA
ATOM     23  H   UNL     1      10.445  -3.188  25.039  0.00  0.00    +0.292 HD
ENDBRANCH   2  22
BRANCH   7  24
ATOM     24  O   UNL     1       7.790   3.959  22.326  0.00  0.00    -0.501 OA
ATOM     25  H   UNL     1       6.838   3.945  22.531  0.00  0.00    +0.292 HD
ENDBRANCH   7  24
BRANCH  11  26
ATOM     26  O   UNL     1       6.207  -1.010  22.537  0.00  0.00    -0.506 OA
ATOM     27  H   UNL     1       5.571  -1.166  23.250  0.00  0.00    +0.292 HD
ENDBRANCH  11  26
BRANCH   1  28
ATOM     28  C   UNL     1       7.529  -3.540  23.181  0.00  0.00    +0.076 C 
BRANCH  28  31
ATOM     29  C   UNL     1       7.225  -5.331  25.136  0.00  0.00    +0.192 C 
ATOM     30  O   UNL     1       6.066  -5.151  24.318  0.00  0.00    -0.371 OA
ATOM     31  C   UNL     1       6.921  -4.006  24.469  0.00  0.00    +0.148 C 
ENDBRANCH  28  31
ENDBRANCH   1  28
TORSDOF 8
ENDMDL
MODEL 2
REMARK VINA RESULT:      -7.5      1.996      9.256
REMARK  Name = 
REMARK  8 active torsions:
REMARK  status: ('A' for Active; 'I' for Inactive)
REMARK    1  A    between atoms: C_2  and  C_4
REMARK    2  A    between atoms: C_4  and  C_5
REMARK    3  A    between atoms: C_6  and  O_26
REMARK    4  A    between atoms: C_10  and  O_11
REMARK    5  A    between atoms: C_13  and  C_18
REMARK    6  A    between atoms: C_14  and  O_17
REMARK    7  A    between atoms: C_20  and  O_25
REMARK    8  A    between atoms: C_21  and  O_24
REMARK                            x       y       z     vdW  Elec       q    Type
REMARK                         _______ _______ _______ _____ _____    ______ ____
ROOT
ATOM      1  C   UNL     1       8.471   0.640  22.771  0.00  0.00    +0.039 A 
ATOM      2  C   UNL     1       7.069   0.570  22.812  0.00  0.00    +0.127 A 
ATOM      3  C   UNL     1       6.407  -0.575  23.269  0.00  0.00    +0.093 A 
ATOM      4  C   UNL     1       7.147  -1.693  23.663  0.00  0.00    +0.147 A 
ATOM      5  O   UNL     1       6.420  -2.771  24.125  0.00  0.00    -0.451 OA
ATOM      6  C   UNL     1       7.099  -3.926  24.493  0.00  0.00    +0.181 A 
ATOM      7  C   UNL     1       8.433  -4.072  24.379  0.00  0.00    +0.208 A 
ATOM      8  C   UNL     1       9.257  -2.940  23.883  0.00  0.00    +0.238 A 
ATOM      9  O   UNL     1      10.452  -3.121  23.687  0.00  0.00    -0.283 OA
ATOM     10  C   UNL     1       8.537  -1.676  23.585  0.00  0.00    +0.109 A 
ATOM     11  C   UNL     1       9.199  -0.499  23.174  0.00  0.00    +0.138 A 
ENDROOT
BRANCH   6  12
ATOM     12  C   UNL     1       6.226  -5.072  24.880  0.00  0.00    +0.025 A 
ATOM     13  C   UNL     1       6.064  -5.438  26.225  0.00  0.00    +0.015 A 
ATOM     14  C   UNL     1       5.127  -6.411  26.604  0.00  0.00    +0.050 A 
ATOM     15  C   UNL     1       4.332  -7.006  25.642  0.00  0.00    +0.158 A 
ATOM     16  C   UNL     1       4.505  -6.686  24.307  0.00  0.00    +0.159 A 
ATOM     17  C   UNL     1       5.474  -5.770  23.908  0.00  0.00    +0.060 A 
BRANCH  15  18
ATOM     18  O   UNL     1       3.363  -7.893  26.016  0.00  0.00    -0.503 OA
ATOM     19  H   UNL     1       3.816  -8.760  26.019  0.00  0.00    +0.292 HD
ENDBRANCH  15  18
BRANCH  16  20
ATOM     20  O   UNL     1       3.651  -7.265  23.394  0.00  0.00    -0.503 OA
ATOM     21  H   UNL     1       2.771  -7.328  23.807  0.00  0.00    +0.292 HD
ENDBRANCH  16  20
ENDBRANCH   6  12
BRANCH   2  22
ATOM     22  O   UNL     1       6.352   1.653  22.386  0.00  0.00    -0.506 OA
ATOM     23  H   UNL     1       6.289   1.635  21.416  0.00  0.00    +0.292 HD
ENDBRANCH   2  22
BRANCH   7  24
ATOM     24  O   UNL     1       9.065  -5.283  24.598  0.00  0.00    -0.501 OA
ATOM     25  H   UNL     1       8.460  -5.964  24.253  0.00  0.00    +0.292 HD
ENDBRANCH   7  24
BRANCH  11  26
ATOM     26  O   UNL     1      10.567  -0.488  23.187  0.00  0.00    -0.506 OA
ATOM     27  H   UNL     1      10.933  -0.421  24.081  0.00  0.00    +0.292 HD
ENDBRANCH  11  26
BRANCH   1  28
ATOM     28  C   UNL     1       9.145   1.900  22.270  0.00  0.00    +0.076 C 
BRANCH  28  31
ATOM     29  C   UNL     1      10.952   3.544  23.343  0.00  0.00    +0.192 C 
ATOM     30  O   UNL     1      10.928   2.237  23.924  0.00  0.00    -0.371 OA
ATOM     31  C   UNL     1       9.681   2.724  23.401  0.00  0.00    +0.148 C 
ENDBRANCH  28  31
ENDBRANCH   1  28
TORSDOF 8
ENDMDL
MODEL 3
REMARK VINA RESULT:      -7.3      1.913      8.256
REMARK  Name = 
REMARK  8 active torsions:
REMARK  status: ('A' for Active; 'I' for Inactive)
REMARK    1  A    between atoms: C_2  and  C_4
REMARK    2  A    between atoms: C_4  and  C_5
REMARK    3  A    between atoms: C_6  and  O_26
REMARK    4  A    between atoms: C_10  and  O_11
REMARK    5  A    between atoms: C_13  and  C_18
REMARK    6  A    between atoms: C_14  and  O_17
REMARK    7  A    between atoms: C_20  and  O_25
REMARK    8  A    between atoms: C_21  and  O_24
REMARK                            x       y       z     vdW  Elec       q    Type
REMARK                         _______ _______ _______ _____ _____    ______ ____
ROOT
ATOM      1  C   UNL     1       9.231   3.389  23.756  0.00  0.00    +0.039 A 
ATOM      2  C   UNL     1       8.531   3.234  24.963  0.00  0.00    +0.127 A 
ATOM      3  C   UNL     1       8.077   1.982  25.391  0.00  0.00    +0.093 A 
ATOM      4  C   UNL     1       8.288   0.857  24.588  0.00  0.00    +0.147 A 
ATOM      5  O   UNL     1       7.833  -0.344  25.092  0.00  0.00    -0.451 OA
ATOM      6  C   UNL     1       7.977  -1.490  24.320  0.00  0.00    +0.181 A 
ATOM      7  C   UNL     1       8.498  -1.489  23.078  0.00  0.00    +0.208 A 
ATOM      8  C   UNL     1       8.999  -0.219  22.492  0.00  0.00    +0.238 A 
ATOM      9  O   UNL     1       9.373  -0.215  21.326  0.00  0.00    -0.283 OA
ATOM     10  C   UNL     1       8.931   0.984  23.359  0.00  0.00    +0.109 A 
ATOM     11  C   UNL     1       9.433   2.241  22.961  0.00  0.00    +0.138 A 
ENDROOT
BRANCH   6  12
ATOM     12  C   UNL     1       7.364  -2.720  24.900  0.00  0.00    +0.025 A 
ATOM     13  C   UNL     1       6.037  -3.074  24.612  0.00  0.00    +0.015 A 
ATOM     14  C   UNL     1       5.509  -4.305  25.027  0.00  0.00    +0.050 A 
ATOM     15  C   UNL     1       6.311  -5.198  25.712  0.00  0.00    +0.158 A 
ATOM     16  C   UNL     1       7.610  -4.851  26.039  0.00  0.00    +0.159 A 
ATOM     17  C   UNL     1       8.130  -3.608  25.690  0.00  0.00    +0.060 A 
BRANCH  15  18
ATOM     18  O   UNL     1       5.825  -6.430  26.046  0.00  0.00    -0.503 OA
ATOM     19  H   UNL     1       5.626  -6.854  25.186  0.00  0.00    +0.292 HD
ENDBRANCH  15  18
BRANCH  16  20
ATOM     20  O   UNL     1       8.386  -5.796  26.672  0.00  0.00    -0.503 OA
ATOM     21  H   UNL     1       7.918  -6.073  27.481  0.00  0.00    +0.292 HD
ENDBRANCH  16  20
ENDBRANCH   6  12
BRANCH   2  22
ATOM     22  O   UNL     1       8.293   4.346  25.723  0.00  0.00    -0.506 OA
ATOM     23  H   UNL     1       7.797   4.994  25.197  0.00  0.00    +0.292 HD
ENDBRANCH   2  22
BRANCH   7  24
ATOM     24  O   UNL     1       8.483  -2.612  22.270  0.00  0.00    -0.501 OA
ATOM     25  H   UNL     1       8.740  -2.303  21.383  0.00  0.00    +0.292 HD
ENDBRANCH   7  24
BRANCH  11  26
ATOM     26  O   UNL     1      10.133   2.316  21.788  0.00  0.00    -0.506 OA
ATOM     27  H   UNL     1      10.419   1.449  21.465  0.00  0.00    +0.292 HD
ENDBRANCH  11  26
BRANCH   1  28
ATOM     28  C   UNL     1       9.705   4.764  23.334  0.00  0.00    +0.076 C 
BRANCH  28  31
ATOM     29  C   UNL     1      12.239   5.529  22.995  0.00  0.00    +0.192 C 
ATOM     30  O   UNL     1      12.082   4.151  23.346  0.00  0.00    -0.371 OA
ATOM     31  C   UNL     1      11.083   5.052  23.849  0.00  0.00    +0.148 C 
ENDBRANCH  28  31
ENDBRANCH   1  28
TORSDOF 8
ENDMDL
MODEL 4
REMARK VINA RESULT:      -7.2      2.185      4.178
REMARK  Name = 
REMARK  8 active torsions:
REMARK  status: ('A' for Active; 'I' for Inactive)
REMARK    1  A    between atoms: C_2  and  C_4
REMARK    2  A    between atoms: C_4  and  C_5
REMARK    3  A    between atoms: C_6  and  O_26
REMARK    4  A    between atoms: C_10  and  O_11
REMARK    5  A    between atoms: C_13  and  C_18
REMARK    6  A    between atoms: C_14  and  O_17
REMARK    7  A    between atoms: C_20  and  O_25
REMARK    8  A    between atoms: C_21  and  O_24
REMARK                            x       y       z     vdW  Elec       q    Type
REMARK                         _______ _______ _______ _____ _____    ______ ____
ROOT
ATOM      1  C   UNL     1       6.560  -4.674  23.286  0.00  0.00    +0.039 A 
ATOM      2  C   UNL     1       6.335  -3.777  22.230  0.00  0.00    +0.127 A 
ATOM      3  C   UNL     1       6.849  -2.476  22.252  0.00  0.00    +0.093 A 
ATOM      4  C   UNL     1       7.574  -2.036  23.363  0.00  0.00    +0.147 A 
ATOM      5  O   UNL     1       8.068  -0.750  23.296  0.00  0.00    -0.451 OA
ATOM      6  C   UNL     1       8.762  -0.243  24.388  0.00  0.00    +0.181 A 
ATOM      7  C   UNL     1       8.941  -0.925  25.535  0.00  0.00    +0.208 A 
ATOM      8  C   UNL     1       8.424  -2.312  25.655  0.00  0.00    +0.238 A 
ATOM      9  O   UNL     1       8.503  -2.879  26.738  0.00  0.00    -0.283 OA
ATOM     10  C   UNL     1       7.770  -2.882  24.451  0.00  0.00    +0.109 A 
ATOM     11  C   UNL     1       7.294  -4.210  24.397  0.00  0.00    +0.138 A 
ENDROOT
BRANCH   6  12
ATOM     12  C   UNL     1       9.167   1.187  24.267  0.00  0.00    +0.025 A 
ATOM     13  C   UNL     1      10.391   1.547  23.680  0.00  0.00    +0.015 A 
ATOM     14  C   UNL     1      10.704   2.891  23.425  0.00  0.00    +0.050 A 
ATOM     15  C   UNL     1       9.787   3.878  23.732  0.00  0.00    +0.158 A 
ATOM     16  C   UNL     1       8.592   3.546  24.346  0.00  0.00    +0.159 A 
ATOM     17  C   UNL     1       8.293   2.224  24.665  0.00  0.00    +0.060 A 
BRANCH  15  18
ATOM     18  O   UNL     1      10.055   5.178  23.409  0.00  0.00    -0.503 OA
ATOM     19  H   UNL     1       9.369   5.411  22.751  0.00  0.00    +0.292 HD
ENDBRANCH  15  18
BRANCH  16  20
ATOM     20  O   UNL     1       7.689   4.558  24.581  0.00  0.00    -0.503 OA
ATOM     21  H   UNL     1       7.107   4.626  23.803  0.00  0.00    +0.292 HD
ENDBRANCH  16  20
ENDBRANCH   6  12
BRANCH   2  22
ATOM     22  O   UNL     1       5.590  -4.202  21.165  0.00  0.00    -0.506 OA
ATOM     23  H   UNL     1       4.716  -3.779  21.195  0.00  0.00    +0.292 HD
ENDBRANCH   2  22
BRANCH   7  24
ATOM     24  O   UNL     1       9.493  -0.341  26.662  0.00  0.00    -0.501 OA
ATOM     25  H   UNL     1       9.642  -1.069  27.291  0.00  0.00    +0.292 HD
ENDBRANCH   7  24
BRANCH  11  26
ATOM     26  O   UNL     1       7.575  -5.040  25.448  0.00  0.00    -0.506 OA
ATOM     27  H   UNL     1       7.116  -5.891  25.388  0.00  0.00    +0.292 HD
ENDBRANCH  11  26
BRANCH   1  28
ATOM     28  C   UNL     1       5.985  -6.074  23.218  0.00  0.00    +0.076 C 
BRANCH  28  31
ATOM     29  C   UNL     1       4.615  -6.778  25.396  0.00  0.00    +0.192 C 
ATOM     30  O   UNL     1       4.298  -7.542  24.229  0.00  0.00    -0.371 OA
ATOM     31  C   UNL     1       4.716  -6.185  24.007  0.00  0.00    +0.148 C 
ENDBRANCH  28  31
ENDBRANCH   1  28
TORSDOF 8
ENDMDL
MODEL 5
REMARK VINA RESULT:      -7.0      1.880      2.065
REMARK  Name = 
REMARK  8 active torsions:
REMARK  status: ('A' for Active; 'I' for Inactive)
REMARK    1  A    between atoms: C_2  and  C_4
REMARK    2  A    between atoms: C_4  and  C_5
REMARK    3  A    between atoms: C_6  and  O_26
REMARK    4  A    between atoms: C_10  and  O_11
REMARK    5  A    between atoms: C_13  and  C_18
REMARK    6  A    between atoms: C_14  and  O_17
REMARK    7  A    between atoms: C_20  and  O_25
REMARK    8  A    between atoms: C_21  and  O_24
REMARK                            x       y       z     vdW  Elec       q    Type
REMARK                         _______ _______ _______ _____ _____    ______ ____
ROOT
ATOM      1  C   UNL     1       6.973  -1.619  25.130  0.00  0.00    +0.039 A 
ATOM      2  C   UNL     1       7.224  -0.798  26.241  0.00  0.00    +0.127 A 
ATOM      3  C   UNL     1       7.918   0.411  26.117  0.00  0.00    +0.093 A 
ATOM      4  C   UNL     1       8.409   0.802  24.868  0.00  0.00    +0.147 A 
ATOM      5  O   UNL     1       9.060   2.018  24.825  0.00  0.00    -0.451 OA
ATOM      6  C   UNL     1       9.605   2.441  23.619  0.00  0.00    +0.181 A 
ATOM      7  C   UNL     1       9.577   1.705  22.492  0.00  0.00    +0.208 A 
ATOM      8  C   UNL     1       8.891   0.387  22.491  0.00  0.00    +0.238 A 
ATOM      9  O   UNL     1       8.963  -0.314  21.490  0.00  0.00    -0.283 OA
ATOM     10  C   UNL     1       8.225  -0.014  23.755  0.00  0.00    +0.109 A 
ATOM     11  C   UNL     1       7.478  -1.205  23.880  0.00  0.00    +0.138 A 
ENDROOT
BRANCH   6  12
ATOM     12  C   UNL     1      10.378   3.715  23.691  0.00  0.00    +0.025 A 
ATOM     13  C   UNL     1       9.815   4.874  24.250  0.00  0.00    +0.015 A 
ATOM     14  C   UNL     1      10.588   6.025  24.460  0.00  0.00    +0.050 A 
ATOM     15  C   UNL     1      11.932   6.017  24.135  0.00  0.00    +0.158 A 
ATOM     16  C   UNL     1      12.494   4.898  23.548  0.00  0.00    +0.159 A 
ATOM     17  C   UNL     1      11.727   3.769  23.273  0.00  0.00    +0.060 A 
BRANCH  15  18
ATOM     18  O   UNL     1      12.705   7.108  24.414  0.00  0.00    -0.503 OA
ATOM     19  H   UNL     1      12.682   7.178  25.390  0.00  0.00    +0.292 HD
ENDBRANCH  15  18
BRANCH  16  20
ATOM     20  O   UNL     1      13.848   4.919  23.294  0.00  0.00    -0.503 OA
ATOM     21  H   UNL     1      14.275   4.288  23.901  0.00  0.00    +0.292 HD
ENDBRANCH  16  20
ENDBRANCH   6  12
BRANCH   2  22
ATOM     22  O   UNL     1       6.775  -1.208  27.466  0.00  0.00    -0.506 OA
ATOM     23  H   UNL     1       7.417  -1.828  27.852  0.00  0.00    +0.292 HD
ENDBRANCH   2  22
BRANCH   7  24
ATOM     24  O   UNL     1      10.266   2.076  21.350  0.00  0.00    -0.501 OA
ATOM     25  H   UNL     1       9.627   2.000  20.620  0.00  0.00    +0.292 HD
ENDBRANCH   7  24
BRANCH  11  26
ATOM     26  O   UNL     1       7.245  -1.943  22.751  0.00  0.00    -0.506 OA
ATOM     27  H   UNL     1       7.757  -1.635  21.989  0.00  0.00    +0.292 HD
ENDBRANCH  11  26
BRANCH   1  28
ATOM     28  C   UNL     1       6.217  -2.918  25.312  0.00  0.00    +0.076 C 
BRANCH  28  31
ATOM     29  C   UNL     1       6.828  -5.270  26.413  0.00  0.00    +0.192 C 
ATOM     30  O   UNL     1       7.592  -4.170  26.914  0.00  0.00    -0.371 OA
ATOM     31  C   UNL     1       7.148  -4.068  25.551  0.00  0.00    +0.148 C 
ENDBRANCH  28  31
ENDBRANCH   1  28
TORSDOF 8
ENDMDL
MODEL 6
REMARK VINA RESULT:      -6.9      2.267      4.802
REMARK  Name = 
REMARK  8 active torsions:
REMARK  status: ('A' for Active; 'I' for Inactive)
REMARK    1  A    between atoms: C_2  and  C_4
REMARK    2  A    between atoms: C_4  and  C_5
REMARK    3  A    between atoms: C_6  and  O_26
REMARK    4  A    between atoms: C_10  and  O_11
REMARK    5  A    between atoms: C_13  and  C_18
REMARK    6  A    between atoms: C_14  and  O_17
REMARK    7  A    between atoms: C_20  and  O_25
REMARK    8  A    between atoms: C_21  and  O_24
REMARK                            x       y       z     vdW  Elec       q    Type
REMARK                         _______ _______ _______ _____ _____    ______ ____
ROOT
ATOM      1  C   UNL     1       5.744  -5.242  25.901  0.00  0.00    +0.039 A 
ATOM      2  C   UNL     1       5.964  -4.294  26.913  0.00  0.00    +0.127 A 
ATOM      3  C   UNL     1       6.594  -3.073  26.647  0.00  0.00    +0.093 A 
ATOM      4  C   UNL     1       7.052  -2.795  25.356  0.00  0.00    +0.147 A 
ATOM      5  O   UNL     1       7.639  -1.560  25.171  0.00  0.00    -0.451 OA
ATOM      6  C   UNL     1       8.150  -1.245  23.919  0.00  0.00    +0.181 A 
ATOM      7  C   UNL     1       8.148  -2.100  22.878  0.00  0.00    +0.208 A 
ATOM      8  C   UNL     1       7.529  -3.442  23.031  0.00  0.00    +0.238 A 
ATOM      9  O   UNL     1       7.627  -4.244  22.110  0.00  0.00    -0.283 OA
ATOM     10  C   UNL     1       6.898  -3.736  24.341  0.00  0.00    +0.109 A 
ATOM     11  C   UNL     1       6.213  -4.942  24.605  0.00  0.00    +0.138 A 
ENDROOT
BRANCH   6  12
ATOM     12  C   UNL     1       8.857   0.066  23.840  0.00  0.00    +0.025 A 
ATOM     13  C   UNL     1      10.158   0.220  24.343  0.00  0.00    +0.015 A 
ATOM     14  C   UNL     1      10.882   1.403  24.132  0.00  0.00    +0.050 A 
ATOM     15  C   UNL     1      10.317   2.429  23.398  0.00  0.00    +0.158 A 
ATOM     16  C   UNL     1       9.021   2.311  22.928  0.00  0.00    +0.159 A 
ATOM     17  C   UNL     1       8.266   1.170  23.183  0.00  0.00    +0.060 A 
BRANCH  15  18
ATOM     18  O   UNL     1      11.048   3.549  23.121  0.00  0.00    -0.503 OA
ATOM     19  H   UNL     1      10.400   4.281  23.172  0.00  0.00    +0.292 HD
ENDBRANCH  15  18
BRANCH  16  20
ATOM     20  O   UNL     1       8.523   3.337  22.155  0.00  0.00    -0.503 OA
ATOM     21  H   UNL     1       7.637   3.562  22.492  0.00  0.00    +0.292 HD
ENDBRANCH  16  20
ENDBRANCH   6  12
BRANCH   2  22
ATOM     22  O   UNL     1       5.549  -4.590  28.181  0.00  0.00    -0.506 OA
ATOM     23  H   UNL     1       4.592  -4.756  28.176  0.00  0.00    +0.292 HD
ENDBRANCH   2  22
BRANCH   7  24
ATOM     24  O   UNL     1       8.805  -1.822  21.693  0.00  0.00    -0.501 OA
ATOM     25  H   UNL     1       8.419  -0.990  21.365  0.00  0.00    +0.292 HD
ENDBRANCH   7  24
BRANCH  11  26
ATOM     26  O   UNL     1       6.007  -5.809  23.567  0.00  0.00    -0.506 OA
ATOM     27  H   UNL     1       6.631  -6.549  23.566  0.00  0.00    +0.292 HD
ENDBRANCH  11  26
BRANCH   1  28
ATOM     28  C   UNL     1       5.056  -6.550  26.234  0.00  0.00    +0.076 C 
BRANCH  28  31
ATOM     29  C   UNL     1       2.896  -7.930  25.497  0.00  0.00    +0.192 C 
ATOM     30  O   UNL     1       3.773  -7.592  24.420  0.00  0.00    -0.371 OA
ATOM     31  C   UNL     1       3.742  -6.675  25.526  0.00  0.00    +0.148 C 
ENDBRANCH  28  31
ENDBRANCH   1  28
TORSDOF 8
ENDMDL
MODEL 7
REMARK VINA RESULT:      -6.9      3.041      6.085
REMARK  Name = 
REMARK  8 active torsions:
REMARK  status: ('A' for Active; 'I' for Inactive)
REMARK    1  A    between atoms: C_2  and  C_4
REMARK    2  A    between atoms: C_4  and  C_5
REMARK    3  A    between atoms: C_6  and  O_26
REMARK    4  A    between atoms: C_10  and  O_11
REMARK    5  A    between atoms: C_13  and  C_18
REMARK    6  A    between atoms: C_14  and  O_17
REMARK    7  A    between atoms: C_20  and  O_25
REMARK    8  A    between atoms: C_21  and  O_24
REMARK                            x       y       z     vdW  Elec       q    Type
REMARK                         _______ _______ _______ _____ _____    ______ ____
ROOT
ATOM      1  C   UNL     1       5.870  -4.649  28.051  0.00  0.00    +0.039 A 
ATOM      2  C   UNL     1       5.333  -3.364  27.871  0.00  0.00    +0.127 A 
ATOM      3  C   UNL     1       5.878  -2.465  26.949  0.00  0.00    +0.093 A 
ATOM      4  C   UNL     1       7.006  -2.830  26.208  0.00  0.00    +0.147 A 
ATOM      5  O   UNL     1       7.467  -1.897  25.302  0.00  0.00    -0.451 OA
ATOM      6  C   UNL     1       8.609  -2.188  24.567  0.00  0.00    +0.181 A 
ATOM      7  C   UNL     1       9.326  -3.317  24.724  0.00  0.00    +0.208 A 
ATOM      8  C   UNL     1       8.871  -4.349  25.690  0.00  0.00    +0.238 A 
ATOM      9  O   UNL     1       9.587  -5.321  25.895  0.00  0.00    -0.283 OA
ATOM     10  C   UNL     1       7.596  -4.076  26.400  0.00  0.00    +0.109 A 
ATOM     11  C   UNL     1       7.008  -4.997  27.294  0.00  0.00    +0.138 A 
ENDROOT
BRANCH   6  12
ATOM     12  C   UNL     1       9.091  -1.081  23.691  0.00  0.00    +0.025 A 
ATOM     13  C   UNL     1       8.715  -1.009  22.340  0.00  0.00    +0.015 A 
ATOM     14  C   UNL     1       9.037   0.109  21.557  0.00  0.00    +0.050 A 
ATOM     15  C   UNL     1       9.717   1.170  22.126  0.00  0.00    +0.158 A 
ATOM     16  C   UNL     1      10.131   1.100  23.444  0.00  0.00    +0.159 A 
ATOM     17  C   UNL     1       9.875  -0.029  24.217  0.00  0.00    +0.060 A 
BRANCH  15  18
ATOM     18  O   UNL     1       9.961   2.294  21.388  0.00  0.00    -0.503 OA
ATOM     19  H   UNL     1      10.155   2.984  22.055  0.00  0.00    +0.292 HD
ENDBRANCH  15  18
BRANCH  16  20
ATOM     20  O   UNL     1      10.755   2.204  23.979  0.00  0.00    -0.503 OA
ATOM     21  H   UNL     1      11.675   2.213  23.657  0.00  0.00    +0.292 HD
ENDBRANCH  16  20
ENDBRANCH   6  12
BRANCH   2  22
ATOM     22  O   UNL     1       4.254  -3.000  28.629  0.00  0.00    -0.506 OA
ATOM     23  H   UNL     1       3.466  -3.472  28.312  0.00  0.00    +0.292 HD
ENDBRANCH   2  22
BRANCH   7  24
ATOM     24  O   UNL     1      10.545  -3.510  24.098  0.00  0.00    -0.501 OA
ATOM     25  H   UNL     1      10.593  -4.463  23.901  0.00  0.00    +0.292 HD
ENDBRANCH   7  24
BRANCH  11  26
ATOM     26  O   UNL     1       7.564  -6.243  27.398  0.00  0.00    -0.506 OA
ATOM     27  H   UNL     1       8.332  -6.360  26.819  0.00  0.00    +0.292 HD
ENDBRANCH  11  26
BRANCH   1  28
ATOM     28  C   UNL     1       5.246  -5.590  29.060  0.00  0.00    +0.076 C 
BRANCH  28  31
ATOM     29  C   UNL     1       2.799  -6.550  28.603  0.00  0.00    +0.192 C 
ATOM     30  O   UNL     1       3.653  -7.437  29.331  0.00  0.00    -0.371 OA
ATOM     31  C   UNL     1       4.300  -6.550  28.405  0.00  0.00    +0.148 C 
ENDBRANCH  28  31
ENDBRANCH   1  28
TORSDOF 8
ENDMDL
MODEL 8
REMARK VINA RESULT:      -6.8      2.041      8.525
REMARK  Name = 
REMARK  8 active torsions:
REMARK  status: ('A' for Active; 'I' for Inactive)
REMARK    1  A    between atoms: C_2  and  C_4
REMARK    2  A    between atoms: C_4  and  C_5
REMARK    3  A    between atoms: C_6  and  O_26
REMARK    4  A    between atoms: C_10  and  O_11
REMARK    5  A    between atoms: C_13  and  C_18
REMARK    6  A    between atoms: C_14  and  O_17
REMARK    7  A    between atoms: C_20  and  O_25
REMARK    8  A    between atoms: C_21  and  O_24
REMARK                            x       y       z     vdW  Elec       q    Type
REMARK                         _______ _______ _______ _____ _____    ______ ____
ROOT
ATOM      1  C   UNL     1       8.114   3.340  22.969  0.00  0.00    +0.039 A 
ATOM      2  C   UNL     1       6.848   2.921  22.531  0.00  0.00    +0.127 A 
ATOM      3  C   UNL     1       6.475   1.573  22.554  0.00  0.00    +0.093 A 
ATOM      4  C   UNL     1       7.388   0.607  22.988  0.00  0.00    +0.147 A 
ATOM      5  O   UNL     1       6.934  -0.695  23.005  0.00  0.00    -0.451 OA
ATOM      6  C   UNL     1       7.811  -1.703  23.388  0.00  0.00    +0.181 A 
ATOM      7  C   UNL     1       9.103  -1.485  23.701  0.00  0.00    +0.208 A 
ATOM      8  C   UNL     1       9.637  -0.099  23.693  0.00  0.00    +0.238 A 
ATOM      9  O   UNL     1      10.836   0.072  23.879  0.00  0.00    -0.283 OA
ATOM     10  C   UNL     1       8.671   0.983  23.379  0.00  0.00    +0.109 A 
ATOM     11  C   UNL     1       9.021   2.350  23.403  0.00  0.00    +0.138 A 
ENDROOT
BRANCH   6  12
ATOM     12  C   UNL     1       7.266  -3.087  23.277  0.00  0.00    +0.025 A 
ATOM     13  C   UNL     1       6.856  -3.799  24.415  0.00  0.00    +0.015 A 
ATOM     14  C   UNL     1       6.201  -5.034  24.299  0.00  0.00    +0.050 A 
ATOM     15  C   UNL     1       5.932  -5.551  23.046  0.00  0.00    +0.158 A 
ATOM     16  C   UNL     1       6.362  -4.883  21.914  0.00  0.00    +0.159 A 
ATOM     17  C   UNL     1       7.070  -3.688  22.012  0.00  0.00    +0.060 A 
BRANCH  15  18
ATOM     18  O   UNL     1       5.222  -6.713  22.930  0.00  0.00    -0.503 OA
ATOM     19  H   UNL     1       4.296  -6.420  22.809  0.00  0.00    +0.292 HD
ENDBRANCH  15  18
BRANCH  16  20
ATOM     20  O   UNL     1       6.021  -5.411  20.689  0.00  0.00    -0.503 OA
ATOM     21  H   UNL     1       6.671  -5.095  20.036  0.00  0.00    +0.292 HD
ENDBRANCH  16  20
ENDBRANCH   6  12
BRANCH   2  22
ATOM     22  O   UNL     1       5.975   3.866  22.070  0.00  0.00    -0.506 OA
ATOM     23  H   UNL     1       5.979   4.628  22.672  0.00  0.00    +0.292 HD
ENDBRANCH   2  22
BRANCH   7  24
ATOM     24  O   UNL     1       9.994  -2.520  23.922  0.00  0.00    -0.501 OA
ATOM     25  H   UNL     1       9.573  -3.094  24.586  0.00  0.00    +0.292 HD
ENDBRANCH   7  24
BRANCH  11  26
ATOM     26  O   UNL     1      10.260   2.692  23.871  0.00  0.00    -0.506 OA
ATOM     27  H   UNL     1      10.232   3.406  24.525  0.00  0.00    +0.292 HD
ENDBRANCH  11  26
BRANCH   1  28
ATOM     28  C   UNL     1       8.475   4.810  22.927  0.00  0.00    +0.076 C 
BRANCH  28  31
ATOM     29  C   UNL     1       8.949   6.632  24.817  0.00  0.00    +0.192 C 
ATOM     30  O   UNL     1       9.139   5.280  25.243  0.00  0.00    -0.371 OA
ATOM     31  C   UNL     1       8.151   5.493  24.222  0.00  0.00    +0.148 C 
ENDBRANCH  28  31
ENDBRANCH   1  28
TORSDOF 8
ENDMDL
MODEL 9
REMARK VINA RESULT:      -6.8      2.070      3.823
REMARK  Name = 
REMARK  8 active torsions:
REMARK  status: ('A' for Active; 'I' for Inactive)
REMARK    1  A    between atoms: C_2  and  C_4
REMARK    2  A    between atoms: C_4  and  C_5
REMARK    3  A    between atoms: C_6  and  O_26
REMARK    4  A    between atoms: C_10  and  O_11
REMARK    5  A    between atoms: C_13  and  C_18
REMARK    6  A    between atoms: C_14  and  O_17
REMARK    7  A    between atoms: C_20  and  O_25
REMARK    8  A    between atoms: C_21  and  O_24
REMARK                            x       y       z     vdW  Elec       q    Type
REMARK                         _______ _______ _______ _____ _____    ______ ____
ROOT
ATOM      1  C   UNL     1       6.539  -4.583  23.469  0.00  0.00    +0.039 A 
ATOM      2  C   UNL     1       6.157  -3.729  22.422  0.00  0.00    +0.127 A 
ATOM      3  C   UNL     1       6.588  -2.399  22.368  0.00  0.00    +0.093 A 
ATOM      4  C   UNL     1       7.388  -1.887  23.395  0.00  0.00    +0.147 A 
ATOM      5  O   UNL     1       7.791  -0.575  23.254  0.00  0.00    -0.451 OA
ATOM      6  C   UNL     1       8.554   0.000  24.263  0.00  0.00    +0.181 A 
ATOM      7  C   UNL     1       8.885  -0.639  25.401  0.00  0.00    +0.208 A 
ATOM      8  C   UNL     1       8.470  -2.052  25.598  0.00  0.00    +0.238 A 
ATOM      9  O   UNL     1       8.689  -2.585  26.679  0.00  0.00    -0.283 OA
ATOM     10  C   UNL     1       7.740  -2.691  24.475  0.00  0.00    +0.109 A 
ATOM     11  C   UNL     1       7.346  -4.047  24.494  0.00  0.00    +0.138 A 
ENDROOT
BRANCH   6  12
ATOM     12  C   UNL     1       8.855   1.449  24.074  0.00  0.00    +0.025 A 
ATOM     13  C   UNL     1       7.931   2.437  24.450  0.00  0.00    +0.015 A 
ATOM     14  C   UNL     1       8.272   3.797  24.419  0.00  0.00    +0.050 A 
ATOM     15  C   UNL     1       9.545   4.175  24.036  0.00  0.00    +0.158 A 
ATOM     16  C   UNL     1      10.456   3.219  23.625  0.00  0.00    +0.159 A 
ATOM     17  C   UNL     1      10.114   1.870  23.588  0.00  0.00    +0.060 A 
BRANCH  15  18
ATOM     18  O   UNL     1       9.905   5.492  24.083  0.00  0.00    -0.503 OA
ATOM     19  H   UNL     1       9.672   5.839  23.198  0.00  0.00    +0.292 HD
ENDBRANCH  15  18
BRANCH  16  20
ATOM     20  O   UNL     1      11.727   3.641  23.305  0.00  0.00    -0.503 OA
ATOM     21  H   UNL     1      11.746   4.612  23.375  0.00  0.00    +0.292 HD
ENDBRANCH  16  20
ENDBRANCH   6  12
BRANCH   2  22
ATOM     22  O   UNL     1       5.341  -4.225  21.444  0.00  0.00    -0.506 OA
ATOM     23  H   UNL     1       5.485  -3.727  20.622  0.00  0.00    +0.292 HD
ENDBRANCH   2  22
BRANCH   7  24
ATOM     24  O   UNL     1       9.505   0.006  26.456  0.00  0.00    -0.501 OA
ATOM     25  H   UNL     1       8.806   0.171  27.113  0.00  0.00    +0.292 HD
ENDBRANCH   7  24
BRANCH  11  26
ATOM     26  O   UNL     1       7.778  -4.831  25.528  0.00  0.00    -0.506 OA
ATOM     27  H   UNL     1       8.587  -4.495  25.942  0.00  0.00    +0.292 HD
ENDBRANCH  11  26
BRANCH   1  28
ATOM     28  C   UNL     1       6.049  -6.016  23.485  0.00  0.00    +0.076 C 
BRANCH  28  31
ATOM     29  C   UNL     1       4.695  -6.851  25.627  0.00  0.00    +0.192 C 
ATOM     30  O   UNL     1       4.342  -7.517  24.412  0.00  0.00    -0.371 OA
ATOM     31  C   UNL     1       4.790  -6.158  24.285  0.00  0.00    +0.148 C 
ENDBRANCH  28  31
ENDBRANCH   1  28
TORSDOF 8
ENDMDL
