MODEL 1
REMARK VINA RESULT:      -7.5      0.000      0.000
REMARK  Name = 
REMARK  23 active torsions:
REMARK  status: ('A' for Active; 'I' for Inactive)
REMARK    1  A    between atoms: C_1  and  C_2
REMARK    2  A    between atoms: C_3  and  O_48
REMARK    3  A    between atoms: C_5  and  O_47
REMARK    4  A    between atoms: C_7  and  O_46
REMARK    5  A    between atoms: C_8  and  O_11
REMARK    6  A    between atoms: O_11  and  C_12
REMARK    7  A    between atoms: C_14  and  O_45
REMARK    8  A    between atoms: C_19  and  C_37
REMARK    9  A    between atoms: C_20  and  O_23
REMARK   10  A    between atoms: O_23  and  C_24
REMARK   11  A    between atoms: C_26  and  O_36
REMARK   12  A    between atoms: C_27  and  O_35
REMARK   13  A    between atoms: C_28  and  O_34
REMARK   14  A    between atoms: C_30  and  C_32
REMARK   15  A    between atoms: C_32  and  O_33
REMARK   16  A    between atoms: C_39  and  O_44
REMARK   17  A    between atoms: C_40  and  O_43
REMARK   18  A    between atoms: O_48  and  C_49
REMARK   19  A    between atoms: C_51  and  O_62
REMARK   20  A    between atoms: C_52  and  O_61
REMARK   21  A    between atoms: C_54  and  O_60
REMARK   22  A    between atoms: C_56  and  C_58
REMARK   23  A    between atoms: C_58  and  O_59
REMARK                            x       y       z     vdW  Elec       q    Type
REMARK                         _______ _______ _______ _____ _____    ______ ____
ROOT
ATOM      1  C   UNL     1       5.121   2.511  26.861  0.00  0.00    +0.131 A 
ATOM      2  C   UNL     1       6.013   1.434  26.832  0.00  0.00    +0.093 A 
ATOM      3  C   UNL     1       5.522   0.126  26.831  0.00  0.00    +0.147 A 
ATOM      4  O   UNL     1       6.420  -0.916  26.838  0.00  0.00    -0.451 OA
ATOM      5  C   UNL     1       5.955  -2.219  26.602  0.00  0.00    +0.181 A 
ATOM      6  C   UNL     1       4.642  -2.565  26.655  0.00  0.00    +0.214 A 
ATOM      7  C   UNL     1       3.732  -1.468  27.128  0.00  0.00    +0.238 A 
ATOM      8  O   UNL     1       2.739  -1.666  27.814  0.00  0.00    -0.283 OA
ATOM      9  C   UNL     1       4.157  -0.099  26.874  0.00  0.00    +0.109 A 
ATOM     10  C   UNL     1       3.260   0.972  26.814  0.00  0.00    +0.135 A 
ATOM     11  C   UNL     1       3.744   2.274  26.815  0.00  0.00    +0.092 A 
ENDROOT
BRANCH   5  12
ATOM     12  C   UNL     1       7.077  -3.179  26.360  0.00  0.00    +0.025 A 
ATOM     13  C   UNL     1       7.136  -4.408  27.053  0.00  0.00    +0.015 A 
ATOM     14  C   UNL     1       8.128  -5.360  26.775  0.00  0.00    +0.050 A 
ATOM     15  C   UNL     1       9.077  -5.088  25.803  0.00  0.00    +0.158 A 
ATOM     16  C   UNL     1       9.040  -3.891  25.103  0.00  0.00    +0.159 A 
ATOM     17  C   UNL     1       8.041  -2.953  25.362  0.00  0.00    +0.060 A 
BRANCH  16  18
ATOM     18  O   UNL     1      10.006  -3.680  24.158  0.00  0.00    -0.503 OA
ATOM     19  H   UNL     1      10.427  -4.532  23.942  0.00  0.00    +0.292 HD
ENDBRANCH  16  18
BRANCH  15  20
ATOM     20  O   UNL     1      10.038  -6.015  25.523  0.00  0.00    -0.503 OA
ATOM     21  H   UNL     1       9.903  -6.719  26.189  0.00  0.00    +0.292 HD
ENDBRANCH  15  20
ENDBRANCH   5  12
BRANCH  10  22
ATOM     22  O   UNL     1       1.916   0.759  26.736  0.00  0.00    -0.506 OA
ATOM     23  H   UNL     1       1.444   1.588  26.918  0.00  0.00    +0.292 HD
ENDBRANCH  10  22
BRANCH   6  24
ATOM     24  O   UNL     1       4.178  -3.847  26.326  0.00  0.00    -0.453 OA
BRANCH  24  25
ATOM     25  C   UNL     1       3.165  -3.943  25.309  0.00  0.00    +0.340 C 
ATOM     26  O   UNL     1       2.135  -4.862  25.685  0.00  0.00    -0.331 OA
ATOM     27  C   UNL     1       2.486  -6.244  25.586  0.00  0.00    +0.179 C 
ATOM     28  C   UNL     1       2.862  -6.598  24.144  0.00  0.00    +0.177 C 
ATOM     29  C   UNL     1       4.062  -5.745  23.726  0.00  0.00    +0.180 C 
ATOM     30  C   UNL     1       3.752  -4.262  23.912  0.00  0.00    +0.214 C 
BRANCH  29  31
ATOM     31  O   UNL     1       4.382  -6.052  22.358  0.00  0.00    -0.386 OA
ATOM     32  H   UNL     1       5.345  -6.161  22.281  0.00  0.00    +0.210 HD
ENDBRANCH  29  31
BRANCH  30  33
ATOM     33  O   UNL     1       4.892  -3.455  23.602  0.00  0.00    -0.383 OA
ATOM     34  H   UNL     1       4.638  -2.839  22.891  0.00  0.00    +0.210 HD
ENDBRANCH  30  33
BRANCH  28  35
ATOM     35  O   UNL     1       3.166  -7.994  24.031  0.00  0.00    -0.386 OA
ATOM     36  H   UNL     1       2.317  -8.478  23.979  0.00  0.00    +0.210 HD
ENDBRANCH  28  35
BRANCH  27  37
ATOM     37  C   UNL     1       1.306  -7.091  26.092  0.00  0.00    +0.190 C 
BRANCH  37  38
ATOM     38  O   UNL     1       1.713  -8.374  26.561  0.00  0.00    -0.392 OA
ATOM     39  H   UNL     1       1.054  -9.020  26.223  0.00  0.00    +0.210 HD
ENDBRANCH  37  38
ENDBRANCH  27  37
ENDBRANCH  24  25
ENDBRANCH   6  24
BRANCH   1  40
ATOM     40  O   UNL     1       5.423   3.837  26.948  0.00  0.00    -0.461 OA
BRANCH  40  44
ATOM     41  C   UNL     1       5.389   5.549  23.003  0.00  0.00    +0.041 C 
ATOM     42  C   UNL     1       6.246   4.347  23.404  0.00  0.00    +0.151 C 
ATOM     43  O   UNL     1       5.761   3.729  24.600  0.00  0.00    -0.334 OA
ATOM     44  C   UNL     1       5.952   4.495  25.799  0.00  0.00    +0.339 C 
ATOM     45  C   UNL     1       7.460   4.733  26.042  0.00  0.00    +0.214 C 
ATOM     46  C   UNL     1       8.015   5.477  24.820  0.00  0.00    +0.180 C 
ATOM     47  C   UNL     1       7.746   4.686  23.521  0.00  0.00    +0.181 C 
BRANCH  46  48
ATOM     48  O   UNL     1       9.414   5.753  24.974  0.00  0.00    -0.386 OA
ATOM     49  H   UNL     1       9.824   5.763  24.091  0.00  0.00    +0.210 HD
ENDBRANCH  46  48
BRANCH  45  50
ATOM     50  O   UNL     1       8.156   3.493  26.262  0.00  0.00    -0.383 OA
ATOM     51  H   UNL     1       8.306   3.087  25.384  0.00  0.00    +0.210 HD
ENDBRANCH  45  50
BRANCH  47  52
ATOM     52  O   UNL     1       8.604   3.518  23.534  0.00  0.00    -0.340 OA
BRANCH  52  53
ATOM     53  C   UNL     1       7.982   2.230  23.375  0.00  0.00    +0.282 C 
ATOM     54  O   UNL     1       8.440   1.353  24.416  0.00  0.00    -0.341 OA
ATOM     55  C   UNL     1       9.838   1.008  24.354  0.00  0.00    +0.178 C 
ATOM     56  C   UNL     1      10.240   0.420  22.979  0.00  0.00    +0.177 C 
ATOM     57  C   UNL     1       9.745   1.313  21.837  0.00  0.00    +0.179 C 
ATOM     58  C   UNL     1       8.236   1.565  22.002  0.00  0.00    +0.201 C 
BRANCH  58  59
ATOM     59  O   UNL     1       7.715   2.322  20.902  0.00  0.00    -0.384 OA
ATOM     60  H   UNL     1       8.464   2.517  20.308  0.00  0.00    +0.210 HD
ENDBRANCH  58  59
BRANCH  57  61
ATOM     61  O   UNL     1      10.478   2.548  21.773  0.00  0.00    -0.386 OA
ATOM     62  H   UNL     1       9.997   3.198  22.334  0.00  0.00    +0.210 HD
ENDBRANCH  57  61
BRANCH  56  63
ATOM     63  O   UNL     1       9.678  -0.889  22.816  0.00  0.00    -0.386 OA
ATOM     64  H   UNL     1       9.123  -0.893  22.017  0.00  0.00    +0.210 HD
ENDBRANCH  56  63
BRANCH  55  65
ATOM     65  C   UNL     1      10.160  -0.004  25.474  0.00  0.00    +0.190 C 
BRANCH  65  66
ATOM     66  O   UNL     1       9.202   0.016  26.532  0.00  0.00    -0.392 OA
ATOM     67  H   UNL     1       8.312  -0.005  26.144  0.00  0.00    +0.210 HD
ENDBRANCH  65  66
ENDBRANCH  55  65
ENDBRANCH  52  53
ENDBRANCH  47  52
ENDBRANCH  40  44
ENDBRANCH   1  40
TORSDOF 22
ENDMDL
MODEL 2
REMARK VINA RESULT:      -7.0      1.317      2.145
REMARK  Name = 
REMARK  23 active torsions:
REMARK  status: ('A' for Active; 'I' for Inactive)
REMARK    1  A    between atoms: C_1  and  C_2
REMARK    2  A    between atoms: C_3  and  O_48
REMARK    3  A    between atoms: C_5  and  O_47
REMARK    4  A    between atoms: C_7  and  O_46
REMARK    5  A    between atoms: C_8  and  O_11
REMARK    6  A    between atoms: O_11  and  C_12
REMARK    7  A    between atoms: C_14  and  O_45
REMARK    8  A    between atoms: C_19  and  C_37
REMARK    9  A    between atoms: C_20  and  O_23
REMARK   10  A    between atoms: O_23  and  C_24
REMARK   11  A    between atoms: C_26  and  O_36
REMARK   12  A    between atoms: C_27  and  O_35
REMARK   13  A    between atoms: C_28  and  O_34
REMARK   14  A    between atoms: C_30  and  C_32
REMARK   15  A    between atoms: C_32  and  O_33
REMARK   16  A    between atoms: C_39  and  O_44
REMARK   17  A    between atoms: C_40  and  O_43
REMARK   18  A    between atoms: O_48  and  C_49
REMARK   19  A    between atoms: C_51  and  O_62
REMARK   20  A    between atoms: C_52  and  O_61
REMARK   21  A    between atoms: C_54  and  O_60
REMARK   22  A    between atoms: C_56  and  C_58
REMARK   23  A    between atoms: C_58  and  O_59
REMARK                            x       y       z     vdW  Elec       q    Type
REMARK                         _______ _______ _______ _____ _____    ______ ____
ROOT
ATOM      1  C   UNL     1       5.108   2.791  26.793  0.00  0.00    +0.131 A 
ATOM      2  C   UNL     1       5.927   1.660  26.704  0.00  0.00    +0.093 A 
ATOM      3  C   UNL     1       5.352   0.387  26.691  0.00  0.00    +0.147 A 
ATOM      4  O   UNL     1       6.181  -0.711  26.638  0.00  0.00    -0.451 OA
ATOM      5  C   UNL     1       5.623  -1.975  26.391  0.00  0.00    +0.181 A 
ATOM      6  C   UNL     1       4.293  -2.238  26.489  0.00  0.00    +0.214 A 
ATOM      7  C   UNL     1       3.476  -1.097  27.024  0.00  0.00    +0.238 A 
ATOM      8  O   UNL     1       2.499  -1.249  27.745  0.00  0.00    -0.283 OA
ATOM      9  C   UNL     1       3.978   0.249  26.785  0.00  0.00    +0.109 A 
ATOM     10  C   UNL     1       3.151   1.375  26.786  0.00  0.00    +0.135 A 
ATOM     11  C   UNL     1       3.718   2.643  26.798  0.00  0.00    +0.092 A 
ENDROOT
BRANCH   5  12
ATOM     12  C   UNL     1       6.670  -2.998  26.081  0.00  0.00    +0.025 A 
ATOM     13  C   UNL     1       7.533  -2.833  24.975  0.00  0.00    +0.015 A 
ATOM     14  C   UNL     1       8.578  -3.733  24.719  0.00  0.00    +0.050 A 
ATOM     15  C   UNL     1       8.766  -4.813  25.566  0.00  0.00    +0.158 A 
ATOM     16  C   UNL     1       7.936  -4.997  26.662  0.00  0.00    +0.159 A 
ATOM     17  C   UNL     1       6.911  -4.091  26.931  0.00  0.00    +0.060 A 
BRANCH  16  18
ATOM     18  O   UNL     1       8.171  -6.084  27.458  0.00  0.00    -0.503 OA
ATOM     19  H   UNL     1       8.368  -6.853  26.893  0.00  0.00    +0.292 HD
ENDBRANCH  16  18
BRANCH  15  20
ATOM     20  O   UNL     1       9.787  -5.687  25.326  0.00  0.00    -0.503 OA
ATOM     21  H   UNL     1       9.740  -6.329  26.063  0.00  0.00    +0.292 HD
ENDBRANCH  15  20
ENDBRANCH   5  12
BRANCH  10  22
ATOM     22  O   UNL     1       1.794   1.251  26.758  0.00  0.00    -0.506 OA
ATOM     23  H   UNL     1       1.513   0.595  27.416  0.00  0.00    +0.292 HD
ENDBRANCH  10  22
BRANCH   6  24
ATOM     24  O   UNL     1       3.734  -3.478  26.150  0.00  0.00    -0.453 OA
BRANCH  24  25
ATOM     25  C   UNL     1       2.895  -4.116  27.129  0.00  0.00    +0.340 C 
ATOM     26  O   UNL     1       3.557  -4.222  28.393  0.00  0.00    -0.331 OA
ATOM     27  C   UNL     1       4.564  -5.233  28.471  0.00  0.00    +0.179 C 
ATOM     28  C   UNL     1       3.958  -6.612  28.196  0.00  0.00    +0.177 C 
ATOM     29  C   UNL     1       3.356  -6.613  26.788  0.00  0.00    +0.180 C 
ATOM     30  C   UNL     1       2.344  -5.480  26.642  0.00  0.00    +0.214 C 
BRANCH  29  31
ATOM     31  O   UNL     1       2.752  -7.896  26.554  0.00  0.00    -0.386 OA
ATOM     32  H   UNL     1       3.075  -8.519  27.227  0.00  0.00    +0.210 HD
ENDBRANCH  29  31
BRANCH  30  33
ATOM     33  O   UNL     1       1.832  -5.416  25.307  0.00  0.00    -0.383 OA
ATOM     34  H   UNL     1       2.529  -5.043  24.738  0.00  0.00    +0.210 HD
ENDBRANCH  30  33
BRANCH  28  35
ATOM     35  O   UNL     1       4.954  -7.635  28.324  0.00  0.00    -0.386 OA
ATOM     36  H   UNL     1       5.120  -7.999  27.431  0.00  0.00    +0.210 HD
ENDBRANCH  28  35
BRANCH  27  37
ATOM     37  C   UNL     1       5.224  -5.167  29.859  0.00  0.00    +0.190 C 
BRANCH  37  38
ATOM     38  O   UNL     1       6.428  -5.924  29.930  0.00  0.00    -0.392 OA
ATOM     39  H   UNL     1       7.020  -5.455  30.559  0.00  0.00    +0.210 HD
ENDBRANCH  37  38
ENDBRANCH  27  37
ENDBRANCH  24  25
ENDBRANCH   6  24
BRANCH   1  40
ATOM     40  O   UNL     1       5.499   4.092  26.899  0.00  0.00    -0.461 OA
BRANCH  40  44
ATOM     41  C   UNL     1       5.639   5.820  22.963  0.00  0.00    +0.041 C 
ATOM     42  C   UNL     1       6.420   4.570  23.375  0.00  0.00    +0.151 C 
ATOM     43  O   UNL     1       5.876   3.975  24.558  0.00  0.00    -0.334 OA
ATOM     44  C   UNL     1       6.086   4.724  25.764  0.00  0.00    +0.339 C 
ATOM     45  C   UNL     1       7.600   4.876  26.038  0.00  0.00    +0.214 C 
ATOM     46  C   UNL     1       8.221   5.592  24.831  0.00  0.00    +0.180 C 
ATOM     47  C   UNL     1       7.934   4.823  23.522  0.00  0.00    +0.181 C 
BRANCH  46  48
ATOM     48  O   UNL     1       9.629   5.787  25.014  0.00  0.00    -0.386 OA
ATOM     49  H   UNL     1      10.061   4.915  25.032  0.00  0.00    +0.210 HD
ENDBRANCH  46  48
BRANCH  45  50
ATOM     50  O   UNL     1       8.221   3.597  26.264  0.00  0.00    -0.383 OA
ATOM     51  H   UNL     1       8.967   3.524  25.636  0.00  0.00    +0.210 HD
ENDBRANCH  45  50
BRANCH  47  52
ATOM     52  O   UNL     1       8.724   3.608  23.546  0.00  0.00    -0.340 OA
BRANCH  52  53
ATOM     53  C   UNL     1       8.038   2.361  23.336  0.00  0.00    +0.282 C 
ATOM     54  O   UNL     1       8.419   1.434  24.365  0.00  0.00    -0.341 OA
ATOM     55  C   UNL     1       9.797   1.015  24.331  0.00  0.00    +0.178 C 
ATOM     56  C   UNL     1      10.205   0.441  22.951  0.00  0.00    +0.177 C 
ATOM     57  C   UNL     1       9.791   1.388  21.821  0.00  0.00    +0.179 C 
ATOM     58  C   UNL     1       8.294   1.718  21.953  0.00  0.00    +0.201 C 
BRANCH  58  59
ATOM     59  O   UNL     1       7.845   2.530  20.861  0.00  0.00    -0.384 OA
ATOM     60  H   UNL     1       7.914   1.988  20.052  0.00  0.00    +0.210 HD
ENDBRANCH  58  59
BRANCH  57  61
ATOM     61  O   UNL     1      10.591   2.583  21.810  0.00  0.00    -0.386 OA
ATOM     62  H   UNL     1      11.325   2.444  22.450  0.00  0.00    +0.210 HD
ENDBRANCH  57  61
BRANCH  56  63
ATOM     63  O   UNL     1       9.579  -0.831  22.738  0.00  0.00    -0.386 OA
ATOM     64  H   UNL     1       9.665  -1.362  23.550  0.00  0.00    +0.210 HD
ENDBRANCH  56  63
BRANCH  55  65
ATOM     65  C   UNL     1      10.033  -0.042  25.430  0.00  0.00    +0.190 C 
BRANCH  65  66
ATOM     66  O   UNL     1       9.031  -0.018  26.446  0.00  0.00    -0.392 OA
ATOM     67  H   UNL     1       9.383  -0.453  27.239  0.00  0.00    +0.210 HD
ENDBRANCH  65  66
ENDBRANCH  55  65
ENDBRANCH  52  53
ENDBRANCH  47  52
ENDBRANCH  40  44
ENDBRANCH   1  40
TORSDOF 22
ENDMDL
MODEL 3
REMARK VINA RESULT:      -6.8      2.160      8.702
REMARK  Name = 
REMARK  23 active torsions:
REMARK  status: ('A' for Active; 'I' for Inactive)
REMARK    1  A    between atoms: C_1  and  C_2
REMARK    2  A    between atoms: C_3  and  O_48
REMARK    3  A    between atoms: C_5  and  O_47
REMARK    4  A    between atoms: C_7  and  O_46
REMARK    5  A    between atoms: C_8  and  O_11
REMARK    6  A    between atoms: O_11  and  C_12
REMARK    7  A    between atoms: C_14  and  O_45
REMARK    8  A    between atoms: C_19  and  C_37
REMARK    9  A    between atoms: C_20  and  O_23
REMARK   10  A    between atoms: O_23  and  C_24
REMARK   11  A    between atoms: C_26  and  O_36
REMARK   12  A    between atoms: C_27  and  O_35
REMARK   13  A    between atoms: C_28  and  O_34
REMARK   14  A    between atoms: C_30  and  C_32
REMARK   15  A    between atoms: C_32  and  O_33
REMARK   16  A    between atoms: C_39  and  O_44
REMARK   17  A    between atoms: C_40  and  O_43
REMARK   18  A    between atoms: O_48  and  C_49
REMARK   19  A    between atoms: C_51  and  O_62
REMARK   20  A    between atoms: C_52  and  O_61
REMARK   21  A    between atoms: C_54  and  O_60
REMARK   22  A    between atoms: C_56  and  C_58
REMARK   23  A    between atoms: C_58  and  O_59
REMARK                            x       y       z     vdW  Elec       q    Type
REMARK                         _______ _______ _______ _____ _____    ______ ____
ROOT
ATOM      1  C   UNL     1       3.708  -1.933  29.328  0.00  0.00    +0.131 A 
ATOM      2  C   UNL     1       4.543  -2.063  28.213  0.00  0.00    +0.093 A 
ATOM      3  C   UNL     1       5.180  -0.935  27.689  0.00  0.00    +0.147 A 
ATOM      4  O   UNL     1       5.969  -1.083  26.570  0.00  0.00    -0.451 OA
ATOM      5  C   UNL     1       6.794  -0.021  26.172  0.00  0.00    +0.181 A 
ATOM      6  C   UNL     1       6.657   1.248  26.640  0.00  0.00    +0.214 A 
ATOM      7  C   UNL     1       5.455   1.458  27.516  0.00  0.00    +0.238 A 
ATOM      8  O   UNL     1       4.805   2.494  27.529  0.00  0.00    -0.283 OA
ATOM      9  C   UNL     1       4.971   0.306  28.263  0.00  0.00    +0.109 A 
ATOM     10  C   UNL     1       4.208   0.428  29.429  0.00  0.00    +0.135 A 
ATOM     11  C   UNL     1       3.573  -0.690  29.953  0.00  0.00    +0.092 A 
ENDROOT
BRANCH   5  12
ATOM     12  C   UNL     1       7.783  -0.439  25.130  0.00  0.00    +0.025 A 
ATOM     13  C   UNL     1       9.161  -0.183  25.300  0.00  0.00    +0.015 A 
ATOM     14  C   UNL     1      10.113  -0.646  24.380  0.00  0.00    +0.050 A 
ATOM     15  C   UNL     1       9.693  -1.366  23.273  0.00  0.00    +0.158 A 
ATOM     16  C   UNL     1       8.345  -1.636  23.083  0.00  0.00    +0.159 A 
ATOM     17  C   UNL     1       7.401  -1.197  24.009  0.00  0.00    +0.060 A 
BRANCH  16  18
ATOM     18  O   UNL     1       7.994  -2.350  21.970  0.00  0.00    -0.503 OA
ATOM     19  H   UNL     1       7.387  -1.813  21.430  0.00  0.00    +0.292 HD
ENDBRANCH  16  18
BRANCH  15  20
ATOM     20  O   UNL     1      10.616  -1.826  22.380  0.00  0.00    -0.503 OA
ATOM     21  H   UNL     1      11.061  -2.564  22.843  0.00  0.00    +0.292 HD
ENDBRANCH  15  20
ENDBRANCH   5  12
BRANCH  10  22
ATOM     22  O   UNL     1       4.092   1.625  30.071  0.00  0.00    -0.506 OA
ATOM     23  H   UNL     1       3.316   2.101  29.733  0.00  0.00    +0.292 HD
ENDBRANCH  10  22
BRANCH   6  24
ATOM     24  O   UNL     1       7.545   2.282  26.309  0.00  0.00    -0.453 OA
BRANCH  24  25
ATOM     25  C   UNL     1       7.084   3.277  25.377  0.00  0.00    +0.340 C 
ATOM     26  O   UNL     1       7.244   2.838  24.025  0.00  0.00    -0.331 OA
ATOM     27  C   UNL     1       8.584   2.869  23.528  0.00  0.00    +0.179 C 
ATOM     28  C   UNL     1       9.137   4.296  23.576  0.00  0.00    +0.177 C 
ATOM     29  C   UNL     1       9.131   4.777  25.030  0.00  0.00    +0.180 C 
ATOM     30  C   UNL     1       7.729   4.665  25.621  0.00  0.00    +0.214 C 
BRANCH  29  31
ATOM     31  O   UNL     1       9.612   6.132  25.061  0.00  0.00    -0.386 OA
ATOM     32  H   UNL     1       8.880   6.727  24.828  0.00  0.00    +0.210 HD
ENDBRANCH  29  31
BRANCH  30  33
ATOM     33  O   UNL     1       7.721   5.034  27.004  0.00  0.00    -0.383 OA
ATOM     34  H   UNL     1       6.983   5.654  27.143  0.00  0.00    +0.210 HD
ENDBRANCH  30  33
BRANCH  28  35
ATOM     35  O   UNL     1      10.463   4.341  23.032  0.00  0.00    -0.386 OA
ATOM     36  H   UNL     1      10.918   5.112  23.424  0.00  0.00    +0.210 HD
ENDBRANCH  28  35
BRANCH  27  37
ATOM     37  C   UNL     1       8.594   2.301  22.099  0.00  0.00    +0.190 C 
BRANCH  37  38
ATOM     38  O   UNL     1       9.912   2.067  21.611  0.00  0.00    -0.392 OA
ATOM     39  H   UNL     1       9.828   1.438  20.861  0.00  0.00    +0.210 HD
ENDBRANCH  37  38
ENDBRANCH  27  37
ENDBRANCH  24  25
ENDBRANCH   6  24
BRANCH   1  40
ATOM     40  O   UNL     1       2.950  -2.902  29.914  0.00  0.00    -0.461 OA
BRANCH  40  44
ATOM     41  C   UNL     1       5.530  -6.298  30.467  0.00  0.00    +0.041 C 
ATOM     42  C   UNL     1       5.170  -5.714  29.099  0.00  0.00    +0.151 C 
ATOM     43  O   UNL     1       4.674  -4.376  29.212  0.00  0.00    -0.334 OA
ATOM     44  C   UNL     1       3.374  -4.260  29.807  0.00  0.00    +0.339 C 
ATOM     45  C   UNL     1       2.330  -5.014  28.951  0.00  0.00    +0.214 C 
ATOM     46  C   UNL     1       2.768  -6.481  28.872  0.00  0.00    +0.180 C 
ATOM     47  C   UNL     1       4.197  -6.603  28.298  0.00  0.00    +0.181 C 
BRANCH  46  48
ATOM     48  O   UNL     1       1.838  -7.258  28.105  0.00  0.00    -0.386 OA
ATOM     49  H   UNL     1       1.088  -7.494  28.678  0.00  0.00    +0.210 HD
ENDBRANCH  46  48
BRANCH  45  50
ATOM     50  O   UNL     1       2.208  -4.431  27.640  0.00  0.00    -0.383 OA
ATOM     51  H   UNL     1       3.109  -4.382  27.263  0.00  0.00    +0.210 HD
ENDBRANCH  45  50
BRANCH  47  52
ATOM     52  O   UNL     1       4.133  -6.268  26.889  0.00  0.00    -0.340 OA
BRANCH  52  53
ATOM     53  C   UNL     1       5.161  -6.794  26.031  0.00  0.00    +0.282 C 
ATOM     54  O   UNL     1       6.393  -6.104  26.293  0.00  0.00    -0.341 OA
ATOM     55  C   UNL     1       6.402  -4.709  25.933  0.00  0.00    +0.178 C 
ATOM     56  C   UNL     1       5.993  -4.477  24.457  0.00  0.00    +0.177 C 
ATOM     57  C   UNL     1       4.695  -5.220  24.127  0.00  0.00    +0.179 C 
ATOM     58  C   UNL     1       4.839  -6.701  24.521  0.00  0.00    +0.201 C 
BRANCH  58  59
ATOM     59  O   UNL     1       3.677  -7.452  24.144  0.00  0.00    -0.384 OA
ATOM     60  H   UNL     1       3.955  -8.383  24.052  0.00  0.00    +0.210 HD
ENDBRANCH  58  59
BRANCH  57  61
ATOM     61  O   UNL     1       3.559  -4.616  24.769  0.00  0.00    -0.386 OA
ATOM     62  H   UNL     1       3.747  -4.603  25.735  0.00  0.00    +0.210 HD
ENDBRANCH  57  61
BRANCH  56  63
ATOM     63  O   UNL     1       7.025  -4.942  23.578  0.00  0.00    -0.386 OA
ATOM     64  H   UNL     1       7.879  -4.893  24.044  0.00  0.00    +0.210 HD
ENDBRANCH  56  63
BRANCH  55  65
ATOM     65  C   UNL     1       7.809  -4.128  26.186  0.00  0.00    +0.190 C 
BRANCH  65  66
ATOM     66  O   UNL     1       8.599  -4.945  27.050  0.00  0.00    -0.392 OA
ATOM     67  H   UNL     1       8.547  -5.864  26.740  0.00  0.00    +0.210 HD
ENDBRANCH  65  66
ENDBRANCH  55  65
ENDBRANCH  52  53
ENDBRANCH  47  52
ENDBRANCH  40  44
ENDBRANCH   1  40
TORSDOF 22
ENDMDL
MODEL 4
REMARK VINA RESULT:      -6.8      2.450      5.692
REMARK  Name = 
REMARK  23 active torsions:
REMARK  status: ('A' for Active; 'I' for Inactive)
REMARK    1  A    between atoms: C_1  and  C_2
REMARK    2  A    between atoms: C_3  and  O_48
REMARK    3  A    between atoms: C_5  and  O_47
REMARK    4  A    between atoms: C_7  and  O_46
REMARK    5  A    between atoms: C_8  and  O_11
REMARK    6  A    between atoms: O_11  and  C_12
REMARK    7  A    between atoms: C_14  and  O_45
REMARK    8  A    between atoms: C_19  and  C_37
REMARK    9  A    between atoms: C_20  and  O_23
REMARK   10  A    between atoms: O_23  and  C_24
REMARK   11  A    between atoms: C_26  and  O_36
REMARK   12  A    between atoms: C_27  and  O_35
REMARK   13  A    between atoms: C_28  and  O_34
REMARK   14  A    between atoms: C_30  and  C_32
REMARK   15  A    between atoms: C_32  and  O_33
REMARK   16  A    between atoms: C_39  and  O_44
REMARK   17  A    between atoms: C_40  and  O_43
REMARK   18  A    between atoms: O_48  and  C_49
REMARK   19  A    between atoms: C_51  and  O_62
REMARK   20  A    between atoms: C_52  and  O_61
REMARK   21  A    between atoms: C_54  and  O_60
REMARK   22  A    between atoms: C_56  and  C_58
REMARK   23  A    between atoms: C_58  and  O_59
REMARK                            x       y       z     vdW  Elec       q    Type
REMARK                         _______ _______ _______ _____ _____    ______ ____
ROOT
ATOM      1  C   UNL     1       7.374  -2.000  22.371  0.00  0.00    +0.131 A 
ATOM      2  C   UNL     1       6.357  -1.812  23.312  0.00  0.00    +0.093 A 
ATOM      3  C   UNL     1       5.560  -2.893  23.697  0.00  0.00    +0.147 A 
ATOM      4  O   UNL     1       4.542  -2.675  24.598  0.00  0.00    -0.451 OA
ATOM      5  C   UNL     1       3.889  -3.778  25.168  0.00  0.00    +0.181 A 
ATOM      6  C   UNL     1       3.989  -5.042  24.678  0.00  0.00    +0.214 A 
ATOM      7  C   UNL     1       4.746  -5.145  23.385  0.00  0.00    +0.238 A 
ATOM      8  O   UNL     1       4.461  -5.940  22.500  0.00  0.00    -0.283 OA
ATOM      9  C   UNL     1       5.768  -4.140  23.133  0.00  0.00    +0.109 A 
ATOM     10  C   UNL     1       6.838  -4.352  22.259  0.00  0.00    +0.135 A 
ATOM     11  C   UNL     1       7.633  -3.280  21.874  0.00  0.00    +0.092 A 
ENDROOT
BRANCH   5  12
ATOM     12  C   UNL     1       3.024  -3.382  26.323  0.00  0.00    +0.025 A 
ATOM     13  C   UNL     1       1.778  -2.752  26.108  0.00  0.00    +0.015 A 
ATOM     14  C   UNL     1       0.913  -2.454  27.171  0.00  0.00    +0.050 A 
ATOM     15  C   UNL     1       1.290  -2.778  28.464  0.00  0.00    +0.158 A 
ATOM     16  C   UNL     1       2.506  -3.401  28.704  0.00  0.00    +0.159 A 
ATOM     17  C   UNL     1       3.357  -3.718  27.647  0.00  0.00    +0.060 A 
BRANCH  16  18
ATOM     18  O   UNL     1       2.822  -3.692  30.003  0.00  0.00    -0.503 OA
ATOM     19  H   UNL     1       3.785  -3.603  30.122  0.00  0.00    +0.292 HD
ENDBRANCH  16  18
BRANCH  15  20
ATOM     20  O   UNL     1       0.447  -2.498  29.500  0.00  0.00    -0.503 OA
ATOM     21  H   UNL     1      -0.421  -2.846  29.213  0.00  0.00    +0.292 HD
ENDBRANCH  15  20
ENDBRANCH   5  12
BRANCH  10  22
ATOM     22  O   UNL     1       7.126  -5.599  21.790  0.00  0.00    -0.506 OA
ATOM     23  H   UNL     1       6.603  -6.258  22.275  0.00  0.00    +0.292 HD
ENDBRANCH  10  22
BRANCH   6  24
ATOM     24  O   UNL     1       3.409  -6.152  25.309  0.00  0.00    -0.453 OA
BRANCH  24  25
ATOM     25  C   UNL     1       2.020  -6.413  25.043  0.00  0.00    +0.340 C 
ATOM     26  O   UNL     1       1.216  -6.189  26.205  0.00  0.00    -0.331 OA
ATOM     27  C   UNL     1       1.302  -7.202  27.210  0.00  0.00    +0.179 C 
ATOM     28  C   UNL     1       0.858  -8.554  26.644  0.00  0.00    +0.177 C 
ATOM     29  C   UNL     1       1.779  -8.926  25.479  0.00  0.00    +0.180 C 
ATOM     30  C   UNL     1       1.784  -7.817  24.431  0.00  0.00    +0.214 C 
BRANCH  29  31
ATOM     31  O   UNL     1       1.330 -10.175  24.927  0.00  0.00    -0.386 OA
ATOM     32  H   UNL     1       0.358 -10.172  24.904  0.00  0.00    +0.210 HD
ENDBRANCH  29  31
BRANCH  30  33
ATOM     33  O   UNL     1       2.702  -8.111  23.373  0.00  0.00    -0.383 OA
ATOM     34  H   UNL     1       2.270  -8.743  22.770  0.00  0.00    +0.210 HD
ENDBRANCH  30  33
BRANCH  28  35
ATOM     35  O   UNL     1       0.895  -9.563  27.663  0.00  0.00    -0.386 OA
ATOM     36  H   UNL     1       1.432  -9.216  28.403  0.00  0.00    +0.210 HD
ENDBRANCH  28  35
BRANCH  27  37
ATOM     37  C   UNL     1       0.443  -6.778  28.414  0.00  0.00    +0.190 C 
BRANCH  37  38
ATOM     38  O   UNL     1       0.882  -7.366  29.635  0.00  0.00    -0.392 OA
ATOM     39  H   UNL     1       1.104  -6.625  30.241  0.00  0.00    +0.210 HD
ENDBRANCH  37  38
ENDBRANCH  27  37
ENDBRANCH  24  25
ENDBRANCH   6  24
BRANCH   1  40
ATOM     40  O   UNL     1       8.185  -1.050  21.825  0.00  0.00    -0.461 OA
BRANCH  40  44
ATOM     41  C   UNL     1      10.107   0.081  25.502  0.00  0.00    +0.041 C 
ATOM     42  C   UNL     1       9.045   0.928  24.800  0.00  0.00    +0.151 C 
ATOM     43  O   UNL     1       8.281   0.151  23.871  0.00  0.00    -0.334 OA
ATOM     44  C   UNL     1       8.993  -0.259  22.695  0.00  0.00    +0.339 C 
ATOM     45  C   UNL     1       9.466   0.981  21.902  0.00  0.00    +0.214 C 
ATOM     46  C   UNL     1      10.366   1.808  22.828  0.00  0.00    +0.180 C 
ATOM     47  C   UNL     1       9.623   2.190  24.128  0.00  0.00    +0.181 C 
BRANCH  46  48
ATOM     48  O   UNL     1      10.863   2.976  22.159  0.00  0.00    -0.386 OA
ATOM     49  H   UNL     1      11.667   3.275  22.620  0.00  0.00    +0.210 HD
ENDBRANCH  46  48
BRANCH  45  50
ATOM     50  O   UNL     1       8.349   1.756  21.427  0.00  0.00    -0.383 OA
ATOM     51  H   UNL     1       8.183   2.457  22.089  0.00  0.00    +0.210 HD
ENDBRANCH  45  50
BRANCH  47  52
ATOM     52  O   UNL     1       8.617   3.176  23.784  0.00  0.00    -0.340 OA
BRANCH  52  53
ATOM     53  C   UNL     1       8.623   4.417  24.512  0.00  0.00    +0.282 C 
ATOM     54  O   UNL     1       7.404   4.529  25.262  0.00  0.00    -0.341 OA
ATOM     55  C   UNL     1       6.208   4.664  24.470  0.00  0.00    +0.178 C 
ATOM     56  C   UNL     1       6.296   5.838  23.463  0.00  0.00    +0.177 C 
ATOM     57  C   UNL     1       7.598   5.771  22.659  0.00  0.00    +0.179 C 
ATOM     58  C   UNL     1       8.792   5.673  23.626  0.00  0.00    +0.201 C 
BRANCH  58  59
ATOM     59  O   UNL     1      10.037   5.701  22.916  0.00  0.00    -0.384 OA
ATOM     60  H   UNL     1      10.682   6.158  23.487  0.00  0.00    +0.210 HD
ENDBRANCH  58  59
BRANCH  57  61
ATOM     61  O   UNL     1       7.591   4.679  21.725  0.00  0.00    -0.386 OA
ATOM     62  H   UNL     1       6.731   4.212  21.834  0.00  0.00    +0.210 HD
ENDBRANCH  57  61
BRANCH  56  63
ATOM     63  O   UNL     1       6.248   7.091  24.157  0.00  0.00    -0.386 OA
ATOM     64  H   UNL     1       6.789   7.739  23.671  0.00  0.00    +0.210 HD
ENDBRANCH  56  63
BRANCH  55  65
ATOM     65  C   UNL     1       4.999   4.865  25.407  0.00  0.00    +0.190 C 
BRANCH  65  66
ATOM     66  O   UNL     1       5.315   5.641  26.562  0.00  0.00    -0.392 OA
ATOM     67  H   UNL     1       4.486   5.930  26.977  0.00  0.00    +0.210 HD
ENDBRANCH  65  66
ENDBRANCH  55  65
ENDBRANCH  52  53
ENDBRANCH  47  52
ENDBRANCH  40  44
ENDBRANCH   1  40
TORSDOF 22
ENDMDL
MODEL 5
REMARK VINA RESULT:      -6.7      2.032      3.721
REMARK  Name = 
REMARK  23 active torsions:
REMARK  status: ('A' for Active; 'I' for Inactive)
REMARK    1  A    between atoms: C_1  and  C_2
REMARK    2  A    between atoms: C_3  and  O_48
REMARK    3  A    between atoms: C_5  and  O_47
REMARK    4  A    between atoms: C_7  and  O_46
REMARK    5  A    between atoms: C_8  and  O_11
REMARK    6  A    between atoms: O_11  and  C_12
REMARK    7  A    between atoms: C_14  and  O_45
REMARK    8  A    between atoms: C_19  and  C_37
REMARK    9  A    between atoms: C_20  and  O_23
REMARK   10  A    between atoms: O_23  and  C_24
REMARK   11  A    between atoms: C_26  and  O_36
REMARK   12  A    between atoms: C_27  and  O_35
REMARK   13  A    between atoms: C_28  and  O_34
REMARK   14  A    between atoms: C_30  and  C_32
REMARK   15  A    between atoms: C_32  and  O_33
REMARK   16  A    between atoms: C_39  and  O_44
REMARK   17  A    between atoms: C_40  and  O_43
REMARK   18  A    between atoms: O_48  and  C_49
REMARK   19  A    between atoms: C_51  and  O_62
REMARK   20  A    between atoms: C_52  and  O_61
REMARK   21  A    between atoms: C_54  and  O_60
REMARK   22  A    between atoms: C_56  and  C_58
REMARK   23  A    between atoms: C_58  and  O_59
REMARK                            x       y       z     vdW  Elec       q    Type
REMARK                         _______ _______ _______ _____ _____    ______ ____
ROOT
ATOM      1  C   UNL     1       5.074   2.577  27.223  0.00  0.00    +0.131 A 
ATOM      2  C   UNL     1       4.946   1.421  26.445  0.00  0.00    +0.093 A 
ATOM      3  C   UNL     1       4.547   0.224  27.043  0.00  0.00    +0.147 A 
ATOM      4  O   UNL     1       4.462  -0.907  26.263  0.00  0.00    -0.451 OA
ATOM      5  C   UNL     1       3.845  -2.053  26.788  0.00  0.00    +0.181 A 
ATOM      6  C   UNL     1       3.584  -2.222  28.112  0.00  0.00    +0.214 A 
ATOM      7  C   UNL     1       4.139  -1.140  28.994  0.00  0.00    +0.238 A 
ATOM      8  O   UNL     1       4.574  -1.346  30.118  0.00  0.00    -0.283 OA
ATOM      9  C   UNL     1       4.296   0.181  28.404  0.00  0.00    +0.109 A 
ATOM     10  C   UNL     1       4.338   1.350  29.169  0.00  0.00    +0.135 A 
ATOM     11  C   UNL     1       4.734   2.543  28.578  0.00  0.00    +0.092 A 
ENDROOT
BRANCH   5  12
ATOM     12  C   UNL     1       3.580  -3.080  25.733  0.00  0.00    +0.025 A 
ATOM     13  C   UNL     1       2.398  -3.853  25.760  0.00  0.00    +0.015 A 
ATOM     14  C   UNL     1       2.088  -4.756  24.733  0.00  0.00    +0.050 A 
ATOM     15  C   UNL     1       2.963  -4.900  23.668  0.00  0.00    +0.158 A 
ATOM     16  C   UNL     1       4.129  -4.150  23.613  0.00  0.00    +0.159 A 
ATOM     17  C   UNL     1       4.428  -3.236  24.622  0.00  0.00    +0.060 A 
BRANCH  16  18
ATOM     18  O   UNL     1       4.953  -4.340  22.538  0.00  0.00    -0.503 OA
ATOM     19  H   UNL     1       4.958  -3.529  21.998  0.00  0.00    +0.292 HD
ENDBRANCH  16  18
BRANCH  15  20
ATOM     20  O   UNL     1       2.661  -5.771  22.662  0.00  0.00    -0.503 OA
ATOM     21  H   UNL     1       2.000  -6.378  23.052  0.00  0.00    +0.292 HD
ENDBRANCH  15  20
ENDBRANCH   5  12
BRANCH  10  22
ATOM     22  O   UNL     1       3.978   1.343  30.483  0.00  0.00    -0.506 OA
ATOM     23  H   UNL     1       3.979   2.252  30.826  0.00  0.00    +0.292 HD
ENDBRANCH  10  22
BRANCH   6  24
ATOM     24  O   UNL     1       2.883  -3.327  28.615  0.00  0.00    -0.453 OA
BRANCH  24  25
ATOM     25  C   UNL     1       3.594  -4.218  29.492  0.00  0.00    +0.340 C 
ATOM     26  O   UNL     1       4.957  -4.372  29.085  0.00  0.00    -0.331 OA
ATOM     27  C   UNL     1       5.162  -5.200  27.938  0.00  0.00    +0.179 C 
ATOM     28  C   UNL     1       4.638  -6.615  28.201  0.00  0.00    +0.177 C 
ATOM     29  C   UNL     1       3.139  -6.536  28.501  0.00  0.00    +0.180 C 
ATOM     30  C   UNL     1       2.878  -5.582  29.663  0.00  0.00    +0.214 C 
BRANCH  29  31
ATOM     31  O   UNL     1       2.664  -7.862  28.789  0.00  0.00    -0.386 OA
ATOM     32  H   UNL     1       3.028  -8.473  28.125  0.00  0.00    +0.210 HD
ENDBRANCH  29  31
BRANCH  30  33
ATOM     33  O   UNL     1       1.476  -5.434  29.904  0.00  0.00    -0.383 OA
ATOM     34  H   UNL     1       1.220  -6.081  30.586  0.00  0.00    +0.210 HD
ENDBRANCH  30  33
BRANCH  28  35
ATOM     35  O   UNL     1       4.887  -7.462  27.071  0.00  0.00    -0.386 OA
ATOM     36  H   UNL     1       4.172  -7.306  26.422  0.00  0.00    +0.210 HD
ENDBRANCH  28  35
BRANCH  27  37
ATOM     37  C   UNL     1       6.660  -5.202  27.590  0.00  0.00    +0.190 C 
BRANCH  37  38
ATOM     38  O   UNL     1       7.356  -6.302  28.169  0.00  0.00    -0.392 OA
ATOM     39  H   UNL     1       7.512  -6.073  29.112  0.00  0.00    +0.210 HD
ENDBRANCH  37  38
ENDBRANCH  27  37
ENDBRANCH  24  25
ENDBRANCH   6  24
BRANCH   1  40
ATOM     40  O   UNL     1       5.527   3.799  26.824  0.00  0.00    -0.461 OA
BRANCH  40  44
ATOM     41  C   UNL     1       5.177   4.357  22.575  0.00  0.00    +0.041 C 
ATOM     42  C   UNL     1       5.781   3.111  23.224  0.00  0.00    +0.151 C 
ATOM     43  O   UNL     1       5.391   2.990  24.596  0.00  0.00    -0.334 OA
ATOM     44  C   UNL     1       5.976   3.957  25.480  0.00  0.00    +0.339 C 
ATOM     45  C   UNL     1       7.516   3.815  25.477  0.00  0.00    +0.214 C 
ATOM     46  C   UNL     1       7.998   4.025  24.036  0.00  0.00    +0.180 C 
ATOM     47  C   UNL     1       7.314   3.031  23.072  0.00  0.00    +0.181 C 
BRANCH  46  48
ATOM     48  O   UNL     1       9.426   3.926  23.948  0.00  0.00    -0.386 OA
ATOM     49  H   UNL     1       9.655   3.023  23.665  0.00  0.00    +0.210 HD
ENDBRANCH  46  48
BRANCH  45  50
ATOM     50  O   UNL     1       7.924   2.531  25.984  0.00  0.00    -0.383 OA
ATOM     51  H   UNL     1       7.289   2.284  26.686  0.00  0.00    +0.210 HD
ENDBRANCH  45  50
BRANCH  47  52
ATOM     52  O   UNL     1       7.855   1.714  23.344  0.00  0.00    -0.340 OA
BRANCH  52  53
ATOM     53  C   UNL     1       8.308   0.934  22.223  0.00  0.00    +0.282 C 
ATOM     54  O   UNL     1       7.896  -0.431  22.402  0.00  0.00    -0.341 OA
ATOM     55  C   UNL     1       8.520  -1.118  23.505  0.00  0.00    +0.178 C 
ATOM     56  C   UNL     1      10.066  -1.057  23.439  0.00  0.00    +0.177 C 
ATOM     57  C   UNL     1      10.547   0.381  23.221  0.00  0.00    +0.179 C 
ATOM     58  C   UNL     1       9.836   0.976  21.993  0.00  0.00    +0.201 C 
BRANCH  58  59
ATOM     59  O   UNL     1      10.326   2.291  21.699  0.00  0.00    -0.384 OA
ATOM     60  H   UNL     1      10.835   2.229  20.869  0.00  0.00    +0.210 HD
ENDBRANCH  58  59
BRANCH  57  61
ATOM     61  O   UNL     1      10.342   1.193  24.389  0.00  0.00    -0.386 OA
ATOM     62  H   UNL     1       9.482   1.657  24.271  0.00  0.00    +0.210 HD
ENDBRANCH  57  61
BRANCH  56  63
ATOM     63  O   UNL     1      10.550  -1.872  22.364  0.00  0.00    -0.386 OA
ATOM     64  H   UNL     1      10.115  -2.742  22.411  0.00  0.00    +0.210 HD
ENDBRANCH  56  63
BRANCH  55  65
ATOM     65  C   UNL     1       8.052  -2.589  23.516  0.00  0.00    +0.190 C 
BRANCH  65  66
ATOM     66  O   UNL     1       7.736  -3.080  22.213  0.00  0.00    -0.392 OA
ATOM     67  H   UNL     1       7.654  -4.046  22.258  0.00  0.00    +0.210 HD
ENDBRANCH  65  66
ENDBRANCH  55  65
ENDBRANCH  52  53
ENDBRANCH  47  52
ENDBRANCH  40  44
ENDBRANCH   1  40
TORSDOF 22
ENDMDL
MODEL 6
REMARK VINA RESULT:      -6.6      2.254      5.982
REMARK  Name = 
REMARK  23 active torsions:
REMARK  status: ('A' for Active; 'I' for Inactive)
REMARK    1  A    between atoms: C_1  and  C_2
REMARK    2  A    between atoms: C_3  and  O_48
REMARK    3  A    between atoms: C_5  and  O_47
REMARK    4  A    between atoms: C_7  and  O_46
REMARK    5  A    between atoms: C_8  and  O_11
REMARK    6  A    between atoms: O_11  and  C_12
REMARK    7  A    between atoms: C_14  and  O_45
REMARK    8  A    between atoms: C_19  and  C_37
REMARK    9  A    between atoms: C_20  and  O_23
REMARK   10  A    between atoms: O_23  and  C_24
REMARK   11  A    between atoms: C_26  and  O_36
REMARK   12  A    between atoms: C_27  and  O_35
REMARK   13  A    between atoms: C_28  and  O_34
REMARK   14  A    between atoms: C_30  and  C_32
REMARK   15  A    between atoms: C_32  and  O_33
REMARK   16  A    between atoms: C_39  and  O_44
REMARK   17  A    between atoms: C_40  and  O_43
REMARK   18  A    between atoms: O_48  and  C_49
REMARK   19  A    between atoms: C_51  and  O_62
REMARK   20  A    between atoms: C_52  and  O_61
REMARK   21  A    between atoms: C_54  and  O_60
REMARK   22  A    between atoms: C_56  and  C_58
REMARK   23  A    between atoms: C_58  and  O_59
REMARK                            x       y       z     vdW  Elec       q    Type
REMARK                         _______ _______ _______ _____ _____    ______ ____
ROOT
ATOM      1  C   UNL     1       7.342  -2.159  23.116  0.00  0.00    +0.131 A 
ATOM      2  C   UNL     1       6.390  -1.473  23.879  0.00  0.00    +0.093 A 
ATOM      3  C   UNL     1       5.434  -2.190  24.601  0.00  0.00    +0.147 A 
ATOM      4  O   UNL     1       4.487  -1.492  25.316  0.00  0.00    -0.451 OA
ATOM      5  C   UNL     1       3.672  -2.184  26.225  0.00  0.00    +0.181 A 
ATOM      6  C   UNL     1       3.551  -3.538  26.241  0.00  0.00    +0.214 A 
ATOM      7  C   UNL     1       4.252  -4.234  25.110  0.00  0.00    +0.238 A 
ATOM      8  O   UNL     1       3.819  -5.243  24.569  0.00  0.00    -0.283 OA
ATOM      9  C   UNL     1       5.421  -3.573  24.547  0.00  0.00    +0.109 A 
ATOM     10  C   UNL     1       6.421  -4.265  23.857  0.00  0.00    +0.135 A 
ATOM     11  C   UNL     1       7.374  -3.556  23.138  0.00  0.00    +0.092 A 
ENDROOT
BRANCH   5  12
ATOM     12  C   UNL     1       2.910  -1.253  27.115  0.00  0.00    +0.025 A 
ATOM     13  C   UNL     1       1.499  -1.209  27.073  0.00  0.00    +0.015 A 
ATOM     14  C   UNL     1       0.763  -0.410  27.960  0.00  0.00    +0.050 A 
ATOM     15  C   UNL     1       1.434   0.359  28.897  0.00  0.00    +0.158 A 
ATOM     16  C   UNL     1       2.819   0.332  28.964  0.00  0.00    +0.159 A 
ATOM     17  C   UNL     1       3.551  -0.479  28.098  0.00  0.00    +0.060 A 
BRANCH  16  18
ATOM     18  O   UNL     1       3.422   1.115  29.909  0.00  0.00    -0.503 OA
ATOM     19  H   UNL     1       4.221   0.661  30.233  0.00  0.00    +0.292 HD
ENDBRANCH  16  18
BRANCH  15  20
ATOM     20  O   UNL     1       0.721   1.131  29.769  0.00  0.00    -0.503 OA
ATOM     21  H   UNL     1      -0.216   0.948  29.550  0.00  0.00    +0.292 HD
ENDBRANCH  15  20
ENDBRANCH   5  12
BRANCH  10  22
ATOM     22  O   UNL     1       6.488  -5.626  23.894  0.00  0.00    -0.506 OA
ATOM     23  H   UNL     1       7.079  -5.903  24.613  0.00  0.00    +0.292 HD
ENDBRANCH  10  22
BRANCH   6  24
ATOM     24  O   UNL     1       2.809  -4.225  27.212  0.00  0.00    -0.453 OA
BRANCH  24  25
ATOM     25  C   UNL     1       3.388  -4.347  28.523  0.00  0.00    +0.340 C 
ATOM     26  O   UNL     1       4.817  -4.346  28.464  0.00  0.00    -0.331 OA
ATOM     27  C   UNL     1       5.409  -5.561  27.997  0.00  0.00    +0.179 C 
ATOM     28  C   UNL     1       5.025  -6.727  28.912  0.00  0.00    +0.177 C 
ATOM     29  C   UNL     1       3.501  -6.877  28.904  0.00  0.00    +0.180 C 
ATOM     30  C   UNL     1       2.836  -5.564  29.307  0.00  0.00    +0.214 C 
BRANCH  29  31
ATOM     31  O   UNL     1       3.147  -7.947  29.798  0.00  0.00    -0.386 OA
ATOM     32  H   UNL     1       3.872  -8.074  30.433  0.00  0.00    +0.210 HD
ENDBRANCH  29  31
BRANCH  30  33
ATOM     33  O   UNL     1       1.410  -5.663  29.227  0.00  0.00    -0.383 OA
ATOM     34  H   UNL     1       1.137  -6.448  29.735  0.00  0.00    +0.210 HD
ENDBRANCH  30  33
BRANCH  28  35
ATOM     35  O   UNL     1       5.657  -7.938  28.475  0.00  0.00    -0.386 OA
ATOM     36  H   UNL     1       6.622  -7.825  28.589  0.00  0.00    +0.210 HD
ENDBRANCH  28  35
BRANCH  27  37
ATOM     37  C   UNL     1       6.933  -5.371  27.923  0.00  0.00    +0.190 C 
BRANCH  37  38
ATOM     38  O   UNL     1       7.521  -6.075  26.833  0.00  0.00    -0.392 OA
ATOM     39  H   UNL     1       7.678  -5.415  26.122  0.00  0.00    +0.210 HD
ENDBRANCH  37  38
ENDBRANCH  27  37
ENDBRANCH  24  25
ENDBRANCH   6  24
BRANCH   1  40
ATOM     40  O   UNL     1       8.287  -1.624  22.293  0.00  0.00    -0.461 OA
BRANCH  40  44
ATOM     41  C   UNL     1      10.992   0.206  25.091  0.00  0.00    +0.041 C 
ATOM     42  C   UNL     1       9.626   0.787  24.720  0.00  0.00    +0.151 C 
ATOM     43  O   UNL     1       8.776  -0.201  24.130  0.00  0.00    -0.334 OA
ATOM     44  C   UNL     1       9.158  -0.621  22.812  0.00  0.00    +0.339 C 
ATOM     45  C   UNL     1       9.124   0.583  21.842  0.00  0.00    +0.214 C 
ATOM     46  C   UNL     1      10.092   1.642  22.383  0.00  0.00    +0.180 C 
ATOM     47  C   UNL     1       9.724   2.042  23.829  0.00  0.00    +0.181 C 
BRANCH  46  48
ATOM     48  O   UNL     1      10.133   2.792  21.527  0.00  0.00    -0.386 OA
ATOM     49  H   UNL     1      10.768   3.430  21.899  0.00  0.00    +0.210 HD
ENDBRANCH  46  48
BRANCH  45  50
ATOM     50  O   UNL     1       7.791   1.110  21.708  0.00  0.00    -0.383 OA
ATOM     51  H   UNL     1       7.196   0.350  21.547  0.00  0.00    +0.210 HD
ENDBRANCH  45  50
BRANCH  47  52
ATOM     52  O   UNL     1       8.495   2.809  23.772  0.00  0.00    -0.340 OA
BRANCH  52  53
ATOM     53  C   UNL     1       8.442   4.041  24.513  0.00  0.00    +0.282 C 
ATOM     54  O   UNL     1       7.191   4.116  25.215  0.00  0.00    -0.341 OA
ATOM     55  C   UNL     1       6.025   4.231  24.377  0.00  0.00    +0.178 C 
ATOM     56  C   UNL     1       6.125   5.419  23.388  0.00  0.00    +0.177 C 
ATOM     57  C   UNL     1       7.459   5.392  22.636  0.00  0.00    +0.179 C 
ATOM     58  C   UNL     1       8.615   5.312  23.648  0.00  0.00    +0.201 C 
BRANCH  58  59
ATOM     59  O   UNL     1       9.886   5.377  22.989  0.00  0.00    -0.384 OA
ATOM     60  H   UNL     1      10.567   5.184  23.660  0.00  0.00    +0.210 HD
ENDBRANCH  58  59
BRANCH  57  61
ATOM     61  O   UNL     1       7.515   4.311  21.690  0.00  0.00    -0.386 OA
ATOM     62  H   UNL     1       8.315   4.455  21.135  0.00  0.00    +0.210 HD
ENDBRANCH  57  61
BRANCH  56  63
ATOM     63  O   UNL     1       6.018   6.662  24.093  0.00  0.00    -0.386 OA
ATOM     64  H   UNL     1       5.280   7.173  23.716  0.00  0.00    +0.210 HD
ENDBRANCH  56  63
BRANCH  55  65
ATOM     65  C   UNL     1       4.775   4.392  25.267  0.00  0.00    +0.190 C 
BRANCH  65  66
ATOM     66  O   UNL     1       3.689   5.024  24.589  0.00  0.00    -0.392 OA
ATOM     67  H   UNL     1       2.938   5.089  25.200  0.00  0.00    +0.210 HD
ENDBRANCH  65  66
ENDBRANCH  55  65
ENDBRANCH  52  53
ENDBRANCH  47  52
ENDBRANCH  40  44
ENDBRANCH   1  40
TORSDOF 22
ENDMDL
MODEL 7
REMARK VINA RESULT:      -6.6      2.171      9.807
REMARK  Name = 
REMARK  23 active torsions:
REMARK  status: ('A' for Active; 'I' for Inactive)
REMARK    1  A    between atoms: C_1  and  C_2
REMARK    2  A    between atoms: C_3  and  O_48
REMARK    3  A    between atoms: C_5  and  O_47
REMARK    4  A    between atoms: C_7  and  O_46
REMARK    5  A    between atoms: C_8  and  O_11
REMARK    6  A    between atoms: O_11  and  C_12
REMARK    7  A    between atoms: C_14  and  O_45
REMARK    8  A    between atoms: C_19  and  C_37
REMARK    9  A    between atoms: C_20  and  O_23
REMARK   10  A    between atoms: O_23  and  C_24
REMARK   11  A    between atoms: C_26  and  O_36
REMARK   12  A    between atoms: C_27  and  O_35
REMARK   13  A    between atoms: C_28  and  O_34
REMARK   14  A    between atoms: C_30  and  C_32
REMARK   15  A    between atoms: C_32  and  O_33
REMARK   16  A    between atoms: C_39  and  O_44
REMARK   17  A    between atoms: C_40  and  O_43
REMARK   18  A    between atoms: O_48  and  C_49
REMARK   19  A    between atoms: C_51  and  O_62
REMARK   20  A    between atoms: C_52  and  O_61
REMARK   21  A    between atoms: C_54  and  O_60
REMARK   22  A    between atoms: C_56  and  C_58
REMARK   23  A    between atoms: C_58  and  O_59
REMARK                            x       y       z     vdW  Elec       q    Type
REMARK                         _______ _______ _______ _____ _____    ______ ____
ROOT
ATOM      1  C   UNL     1       5.012  -4.091  23.042  0.00  0.00    +0.131 A 
ATOM      2  C   UNL     1       4.594  -3.282  24.104  0.00  0.00    +0.093 A 
ATOM      3  C   UNL     1       5.354  -2.168  24.468  0.00  0.00    +0.147 A 
ATOM      4  O   UNL     1       4.940  -1.407  25.538  0.00  0.00    -0.451 OA
ATOM      5  C   UNL     1       5.552  -0.166  25.770  0.00  0.00    +0.181 A 
ATOM      6  C   UNL     1       6.721   0.212  25.188  0.00  0.00    +0.214 A 
ATOM      7  C   UNL     1       7.387  -0.866  24.381  0.00  0.00    +0.238 A 
ATOM      8  O   UNL     1       8.600  -1.001  24.310  0.00  0.00    -0.283 OA
ATOM      9  C   UNL     1       6.524  -1.878  23.788  0.00  0.00    +0.109 A 
ATOM     10  C   UNL     1       6.901  -2.631  22.672  0.00  0.00    +0.135 A 
ATOM     11  C   UNL     1       6.148  -3.740  22.307  0.00  0.00    +0.092 A 
ENDROOT
BRANCH   5  12
ATOM     12  C   UNL     1       4.803   0.648  26.777  0.00  0.00    +0.025 A 
ATOM     13  C   UNL     1       3.965   1.708  26.368  0.00  0.00    +0.015 A 
ATOM     14  C   UNL     1       3.185   2.425  27.288  0.00  0.00    +0.050 A 
ATOM     15  C   UNL     1       3.242   2.091  28.631  0.00  0.00    +0.158 A 
ATOM     16  C   UNL     1       4.054   1.051  29.061  0.00  0.00    +0.159 A 
ATOM     17  C   UNL     1       4.812   0.323  28.145  0.00  0.00    +0.060 A 
BRANCH  16  18
ATOM     18  O   UNL     1       4.069   0.773  30.400  0.00  0.00    -0.503 OA
ATOM     19  H   UNL     1       3.154   0.787  30.735  0.00  0.00    +0.292 HD
ENDBRANCH  16  18
BRANCH  15  20
ATOM     20  O   UNL     1       2.479   2.780  29.529  0.00  0.00    -0.503 OA
ATOM     21  H   UNL     1       3.087   2.977  30.269  0.00  0.00    +0.292 HD
ENDBRANCH  15  20
ENDBRANCH   5  12
BRANCH  10  22
ATOM     22  O   UNL     1       7.986  -2.285  21.923  0.00  0.00    -0.506 OA
ATOM     23  H   UNL     1       8.710  -2.908  22.093  0.00  0.00    +0.292 HD
ENDBRANCH  10  22
BRANCH   6  24
ATOM     24  O   UNL     1       7.276   1.489  25.352  0.00  0.00    -0.453 OA
BRANCH  24  25
ATOM     25  C   UNL     1       7.106   2.427  24.275  0.00  0.00    +0.340 C 
ATOM     26  O   UNL     1       7.829   2.020  23.109  0.00  0.00    -0.331 OA
ATOM     27  C   UNL     1       9.243   2.215  23.170  0.00  0.00    +0.179 C 
ATOM     28  C   UNL     1       9.569   3.698  23.371  0.00  0.00    +0.177 C 
ATOM     29  C   UNL     1       8.941   4.165  24.687  0.00  0.00    +0.180 C 
ATOM     30  C   UNL     1       7.442   3.881  24.692  0.00  0.00    +0.214 C 
BRANCH  29  31
ATOM     31  O   UNL     1       9.215   5.568  24.847  0.00  0.00    -0.386 OA
ATOM     32  H   UNL     1       9.956   5.670  25.468  0.00  0.00    +0.210 HD
ENDBRANCH  29  31
BRANCH  30  33
ATOM     33  O   UNL     1       6.855   4.238  25.947  0.00  0.00    -0.383 OA
ATOM     34  H   UNL     1       6.030   4.723  25.764  0.00  0.00    +0.210 HD
ENDBRANCH  30  33
BRANCH  28  35
ATOM     35  O   UNL     1      10.987   3.906  23.381  0.00  0.00    -0.386 OA
ATOM     36  H   UNL     1      11.399   3.158  22.904  0.00  0.00    +0.210 HD
ENDBRANCH  28  35
BRANCH  27  37
ATOM     37  C   UNL     1       9.874   1.662  21.881  0.00  0.00    +0.190 C 
BRANCH  37  38
ATOM     38  O   UNL     1       9.422   0.348  21.569  0.00  0.00    -0.392 OA
ATOM     39  H   UNL     1       8.445   0.400  21.475  0.00  0.00    +0.210 HD
ENDBRANCH  37  38
ENDBRANCH  27  37
ENDBRANCH  24  25
ENDBRANCH   6  24
BRANCH   1  40
ATOM     40  O   UNL     1       4.443  -5.251  22.609  0.00  0.00    -0.461 OA
BRANCH  40  44
ATOM     41  C   UNL     1       0.444  -5.248  24.190  0.00  0.00    +0.041 C 
ATOM     42  C   UNL     1       1.704  -5.301  25.056  0.00  0.00    +0.151 C 
ATOM     43  O   UNL     1       2.859  -4.862  24.334  0.00  0.00    -0.334 OA
ATOM     44  C   UNL     1       3.308  -5.758  23.307  0.00  0.00    +0.339 C 
ATOM     45  C   UNL     1       3.702  -7.119  23.926  0.00  0.00    +0.214 C 
ATOM     46  C   UNL     1       2.467  -7.679  24.642  0.00  0.00    +0.180 C 
ATOM     47  C   UNL     1       1.939  -6.683  25.698  0.00  0.00    +0.181 C 
BRANCH  46  48
ATOM     48  O   UNL     1       2.744  -8.956  25.233  0.00  0.00    -0.386 OA
ATOM     49  H   UNL     1       3.705  -9.029  25.369  0.00  0.00    +0.210 HD
ENDBRANCH  46  48
BRANCH  45  50
ATOM     50  O   UNL     1       4.814  -6.980  24.831  0.00  0.00    -0.383 OA
ATOM     51  H   UNL     1       5.235  -7.860  24.906  0.00  0.00    +0.210 HD
ENDBRANCH  45  50
BRANCH  47  52
ATOM     52  O   UNL     1       2.891  -6.659  26.791  0.00  0.00    -0.340 OA
BRANCH  52  53
ATOM     53  C   UNL     1       3.100  -5.406  27.467  0.00  0.00    +0.282 C 
ATOM     54  O   UNL     1       4.438  -4.949  27.211  0.00  0.00    -0.341 OA
ATOM     55  C   UNL     1       5.482  -5.763  27.780  0.00  0.00    +0.178 C 
ATOM     56  C   UNL     1       5.300  -5.975  29.303  0.00  0.00    +0.177 C 
ATOM     57  C   UNL     1       3.875  -6.438  29.624  0.00  0.00    +0.179 C 
ATOM     58  C   UNL     1       2.867  -5.460  28.995  0.00  0.00    +0.201 C 
BRANCH  58  59
ATOM     59  O   UNL     1       1.521  -5.805  29.348  0.00  0.00    -0.384 OA
ATOM     60  H   UNL     1       0.931  -5.317  28.743  0.00  0.00    +0.210 HD
ENDBRANCH  58  59
BRANCH  57  61
ATOM     61  O   UNL     1       3.641  -7.785  29.183  0.00  0.00    -0.386 OA
ATOM     62  H   UNL     1       4.507  -8.253  29.215  0.00  0.00    +0.210 HD
ENDBRANCH  57  61
BRANCH  56  63
ATOM     63  O   UNL     1       5.557  -4.754  30.008  0.00  0.00    -0.386 OA
ATOM     64  H   UNL     1       6.349  -4.334  29.628  0.00  0.00    +0.210 HD
ENDBRANCH  56  63
BRANCH  55  65
ATOM     65  C   UNL     1       6.848  -5.103  27.501  0.00  0.00    +0.190 C 
BRANCH  65  66
ATOM     66  O   UNL     1       7.889  -6.055  27.283  0.00  0.00    -0.392 OA
ATOM     67  H   UNL     1       7.619  -6.652  26.566  0.00  0.00    +0.210 HD
ENDBRANCH  65  66
ENDBRANCH  55  65
ENDBRANCH  52  53
ENDBRANCH  47  52
ENDBRANCH  40  44
ENDBRANCH   1  40
TORSDOF 22
ENDMDL
MODEL 8
REMARK VINA RESULT:      -6.5      1.828      8.278
REMARK  Name = 
REMARK  23 active torsions:
REMARK  status: ('A' for Active; 'I' for Inactive)
REMARK    1  A    between atoms: C_1  and  C_2
REMARK    2  A    between atoms: C_3  and  O_48
REMARK    3  A    between atoms: C_5  and  O_47
REMARK    4  A    between atoms: C_7  and  O_46
REMARK    5  A    between atoms: C_8  and  O_11
REMARK    6  A    between atoms: O_11  and  C_12
REMARK    7  A    between atoms: C_14  and  O_45
REMARK    8  A    between atoms: C_19  and  C_37
REMARK    9  A    between atoms: C_20  and  O_23
REMARK   10  A    between atoms: O_23  and  C_24
REMARK   11  A    between atoms: C_26  and  O_36
REMARK   12  A    between atoms: C_27  and  O_35
REMARK   13  A    between atoms: C_28  and  O_34
REMARK   14  A    between atoms: C_30  and  C_32
REMARK   15  A    between atoms: C_32  and  O_33
REMARK   16  A    between atoms: C_39  and  O_44
REMARK   17  A    between atoms: C_40  and  O_43
REMARK   18  A    between atoms: O_48  and  C_49
REMARK   19  A    between atoms: C_51  and  O_62
REMARK   20  A    between atoms: C_52  and  O_61
REMARK   21  A    between atoms: C_54  and  O_60
REMARK   22  A    between atoms: C_56  and  C_58
REMARK   23  A    between atoms: C_58  and  O_59
REMARK                            x       y       z     vdW  Elec       q    Type
REMARK                         _______ _______ _______ _____ _____    ______ ____
ROOT
ATOM      1  C   UNL     1       3.936  -2.073  27.308  0.00  0.00    +0.131 A 
ATOM      2  C   UNL     1       4.771  -1.563  26.309  0.00  0.00    +0.093 A 
ATOM      3  C   UNL     1       5.106  -0.206  26.312  0.00  0.00    +0.147 A 
ATOM      4  O   UNL     1       5.900   0.279  25.298  0.00  0.00    -0.451 OA
ATOM      5  C   UNL     1       6.434   1.572  25.409  0.00  0.00    +0.181 A 
ATOM      6  C   UNL     1       5.988   2.490  26.308  0.00  0.00    +0.214 A 
ATOM      7  C   UNL     1       4.777   2.059  27.083  0.00  0.00    +0.238 A 
ATOM      8  O   UNL     1       3.889   2.827  27.427  0.00  0.00    -0.283 OA
ATOM      9  C   UNL     1       4.597   0.629  27.291  0.00  0.00    +0.109 A 
ATOM     10  C   UNL     1       3.834   0.108  28.340  0.00  0.00    +0.135 A 
ATOM     11  C   UNL     1       3.500  -1.240  28.342  0.00  0.00    +0.092 A 
ENDROOT
BRANCH   5  12
ATOM     12  C   UNL     1       7.490   1.833  24.382  0.00  0.00    +0.025 A 
ATOM     13  C   UNL     1       8.720   2.423  24.748  0.00  0.00    +0.015 A 
ATOM     14  C   UNL     1       9.757   2.593  23.818  0.00  0.00    +0.050 A 
ATOM     15  C   UNL     1       9.570   2.179  22.509  0.00  0.00    +0.158 A 
ATOM     16  C   UNL     1       8.373   1.593  22.124  0.00  0.00    +0.159 A 
ATOM     17  C   UNL     1       7.351   1.402  23.051  0.00  0.00    +0.060 A 
BRANCH  16  18
ATOM     18  O   UNL     1       8.250   1.209  20.817  0.00  0.00    -0.503 OA
ATOM     19  H   UNL     1       9.009   1.553  20.313  0.00  0.00    +0.292 HD
ENDBRANCH  16  18
BRANCH  15  20
ATOM     20  O   UNL     1      10.580   2.335  21.604  0.00  0.00    -0.503 OA
ATOM     21  H   UNL     1      10.219   1.973  20.769  0.00  0.00    +0.292 HD
ENDBRANCH  15  20
ENDBRANCH   5  12
BRANCH  10  22
ATOM     22  O   UNL     1       3.428   0.898  29.374  0.00  0.00    -0.506 OA
ATOM     23  H   UNL     1       2.482   1.096  29.279  0.00  0.00    +0.292 HD
ENDBRANCH  10  22
BRANCH   6  24
ATOM     24  O   UNL     1       6.589   3.745  26.476  0.00  0.00    -0.453 OA
BRANCH  24  25
ATOM     25  C   UNL     1       5.859   4.896  26.016  0.00  0.00    +0.340 C 
ATOM     26  O   UNL     1       4.948   4.550  24.968  0.00  0.00    -0.331 OA
ATOM     27  C   UNL     1       5.547   4.315  23.692  0.00  0.00    +0.179 C 
ATOM     28  C   UNL     1       6.288   5.566  23.211  0.00  0.00    +0.177 C 
ATOM     29  C   UNL     1       7.384   5.908  24.224  0.00  0.00    +0.180 C 
ATOM     30  C   UNL     1       6.787   6.072  25.619  0.00  0.00    +0.214 C 
BRANCH  29  31
ATOM     31  O   UNL     1       8.046   7.107  23.787  0.00  0.00    -0.386 OA
ATOM     32  H   UNL     1       8.184   7.684  24.558  0.00  0.00    +0.210 HD
ENDBRANCH  29  31
BRANCH  30  33
ATOM     33  O   UNL     1       7.809   6.312  26.592  0.00  0.00    -0.383 OA
ATOM     34  H   UNL     1       7.633   5.735  27.357  0.00  0.00    +0.210 HD
ENDBRANCH  30  33
BRANCH  28  35
ATOM     35  O   UNL     1       6.848   5.350  21.909  0.00  0.00    -0.386 OA
ATOM     36  H   UNL     1       7.819   5.299  22.010  0.00  0.00    +0.210 HD
ENDBRANCH  28  35
BRANCH  27  37
ATOM     37  C   UNL     1       4.451   3.885  22.703  0.00  0.00    +0.190 C 
BRANCH  37  38
ATOM     38  O   UNL     1       3.894   2.613  23.019  0.00  0.00    -0.392 OA
ATOM     39  H   UNL     1       3.247   2.403  22.310  0.00  0.00    +0.210 HD
ENDBRANCH  37  38
ENDBRANCH  27  37
ENDBRANCH  24  25
ENDBRANCH   6  24
BRANCH   1  40
ATOM     40  O   UNL     1       3.446  -3.341  27.412  0.00  0.00    -0.461 OA
BRANCH  40  44
ATOM     41  C   UNL     1       6.948  -5.806  27.796  0.00  0.00    +0.041 C 
ATOM     42  C   UNL     1       6.570  -5.054  26.518  0.00  0.00    +0.151 C 
ATOM     43  O   UNL     1       5.638  -4.001  26.783  0.00  0.00    -0.334 OA
ATOM     44  C   UNL     1       4.317  -4.436  27.135  0.00  0.00    +0.339 C 
ATOM     45  C   UNL     1       3.699  -5.249  25.974  0.00  0.00    +0.214 C 
ATOM     46  C   UNL     1       4.618  -6.447  25.707  0.00  0.00    +0.180 C 
ATOM     47  C   UNL     1       6.059  -5.983  25.398  0.00  0.00    +0.181 C 
BRANCH  46  48
ATOM     48  O   UNL     1       4.105  -7.267  24.648  0.00  0.00    -0.386 OA
ATOM     49  H   UNL     1       3.211  -7.564  24.894  0.00  0.00    +0.210 HD
ENDBRANCH  46  48
BRANCH  45  50
ATOM     50  O   UNL     1       3.538  -4.438  24.796  0.00  0.00    -0.383 OA
ATOM     51  H   UNL     1       4.434  -4.210  24.479  0.00  0.00    +0.210 HD
ENDBRANCH  45  50
BRANCH  47  52
ATOM     52  O   UNL     1       6.047  -5.359  24.090  0.00  0.00    -0.340 OA
BRANCH  52  53
ATOM     53  C   UNL     1       7.309  -5.184  23.422  0.00  0.00    +0.282 C 
ATOM     54  O   UNL     1       8.054  -4.149  24.084  0.00  0.00    -0.341 OA
ATOM     55  C   UNL     1       7.487  -2.828  23.983  0.00  0.00    +0.178 C 
ATOM     56  C   UNL     1       7.227  -2.409  22.515  0.00  0.00    +0.177 C 
ATOM     57  C   UNL     1       6.458  -3.499  21.763  0.00  0.00    +0.179 C 
ATOM     58  C   UNL     1       7.193  -4.842  21.918  0.00  0.00    +0.201 C 
BRANCH  58  59
ATOM     59  O   UNL     1       6.554  -5.873  21.153  0.00  0.00    -0.384 OA
ATOM     60  H   UNL     1       6.759  -5.701  20.214  0.00  0.00    +0.210 HD
ENDBRANCH  58  59
BRANCH  57  61
ATOM     61  O   UNL     1       5.095  -3.593  22.211  0.00  0.00    -0.386 OA
ATOM     62  H   UNL     1       4.568  -2.970  21.661  0.00  0.00    +0.210 HD
ENDBRANCH  57  61
BRANCH  56  63
ATOM     63  O   UNL     1       8.469  -2.173  21.839  0.00  0.00    -0.386 OA
ATOM     64  H   UNL     1       8.821  -3.024  21.525  0.00  0.00    +0.210 HD
ENDBRANCH  56  63
BRANCH  55  65
ATOM     65  C   UNL     1       8.436  -1.816  24.658  0.00  0.00    +0.190 C 
BRANCH  65  66
ATOM     66  O   UNL     1       9.793  -1.966  24.243  0.00  0.00    -0.392 OA
ATOM     67  H   UNL     1      10.094  -2.858  24.482  0.00  0.00    +0.210 HD
ENDBRANCH  65  66
ENDBRANCH  55  65
ENDBRANCH  52  53
ENDBRANCH  47  52
ENDBRANCH  40  44
ENDBRANCH   1  40
TORSDOF 22
ENDMDL
MODEL 9
REMARK VINA RESULT:      -6.5      2.095      5.184
REMARK  Name = 
REMARK  23 active torsions:
REMARK  status: ('A' for Active; 'I' for Inactive)
REMARK    1  A    between atoms: C_1  and  C_2
REMARK    2  A    between atoms: C_3  and  O_48
REMARK    3  A    between atoms: C_5  and  O_47
REMARK    4  A    between atoms: C_7  and  O_46
REMARK    5  A    between atoms: C_8  and  O_11
REMARK    6  A    between atoms: O_11  and  C_12
REMARK    7  A    between atoms: C_14  and  O_45
REMARK    8  A    between atoms: C_19  and  C_37
REMARK    9  A    between atoms: C_20  and  O_23
REMARK   10  A    between atoms: O_23  and  C_24
REMARK   11  A    between atoms: C_26  and  O_36
REMARK   12  A    between atoms: C_27  and  O_35
REMARK   13  A    between atoms: C_28  and  O_34
REMARK   14  A    between atoms: C_30  and  C_32
REMARK   15  A    between atoms: C_32  and  O_33
REMARK   16  A    between atoms: C_39  and  O_44
REMARK   17  A    between atoms: C_40  and  O_43
REMARK   18  A    between atoms: O_48  and  C_49
REMARK   19  A    between atoms: C_51  and  O_62
REMARK   20  A    between atoms: C_52  and  O_61
REMARK   21  A    between atoms: C_54  and  O_60
REMARK   22  A    between atoms: C_56  and  C_58
REMARK   23  A    between atoms: C_58  and  O_59
REMARK                            x       y       z     vdW  Elec       q    Type
REMARK                         _______ _______ _______ _____ _____    ______ ____
ROOT
ATOM      1  C   UNL     1       9.725   2.538  23.759  0.00  0.00    +0.131 A 
ATOM      2  C   UNL     1       8.693   2.115  24.604  0.00  0.00    +0.093 A 
ATOM      3  C   UNL     1       8.092   0.871  24.395  0.00  0.00    +0.147 A 
ATOM      4  O   UNL     1       7.056   0.492  25.218  0.00  0.00    -0.451 OA
ATOM      5  C   UNL     1       6.600  -0.834  25.174  0.00  0.00    +0.181 A 
ATOM      6  C   UNL     1       6.911  -1.699  24.172  0.00  0.00    +0.214 A 
ATOM      7  C   UNL     1       7.670  -1.079  23.034  0.00  0.00    +0.238 A 
ATOM      8  O   UNL     1       7.521  -1.410  21.866  0.00  0.00    -0.283 OA
ATOM      9  C   UNL     1       8.507   0.072  23.344  0.00  0.00    +0.109 A 
ATOM     10  C   UNL     1       9.594   0.451  22.551  0.00  0.00    +0.135 A 
ATOM     11  C   UNL     1      10.195   1.686  22.756  0.00  0.00    +0.092 A 
ENDROOT
BRANCH   5  12
ATOM     12  C   UNL     1       5.684  -1.149  26.314  0.00  0.00    +0.025 A 
ATOM     13  C   UNL     1       4.738  -0.202  26.762  0.00  0.00    +0.015 A 
ATOM     14  C   UNL     1       3.811  -0.509  27.769  0.00  0.00    +0.050 A 
ATOM     15  C   UNL     1       3.825  -1.770  28.343  0.00  0.00    +0.158 A 
ATOM     16  C   UNL     1       4.741  -2.722  27.919  0.00  0.00    +0.159 A 
ATOM     17  C   UNL     1       5.648  -2.426  26.903  0.00  0.00    +0.060 A 
BRANCH  16  18
ATOM     18  O   UNL     1       4.706  -3.947  28.527  0.00  0.00    -0.503 OA
ATOM     19  H   UNL     1       4.921  -3.838  29.471  0.00  0.00    +0.292 HD
ENDBRANCH  16  18
BRANCH  15  20
ATOM     20  O   UNL     1       2.919  -2.077  29.316  0.00  0.00    -0.503 OA
ATOM     21  H   UNL     1       2.956  -3.053  29.388  0.00  0.00    +0.292 HD
ENDBRANCH  15  20
ENDBRANCH   5  12
BRANCH  10  22
ATOM     22  O   UNL     1      10.087  -0.381  21.591  0.00  0.00    -0.506 OA
ATOM     23  H   UNL     1       9.871  -0.028  20.712  0.00  0.00    +0.292 HD
ENDBRANCH  10  22
BRANCH   6  24
ATOM     24  O   UNL     1       6.529  -3.048  24.185  0.00  0.00    -0.453 OA
BRANCH  24  25
ATOM     25  C   UNL     1       5.482  -3.448  23.282  0.00  0.00    +0.340 C 
ATOM     26  O   UNL     1       4.295  -3.814  23.991  0.00  0.00    -0.331 OA
ATOM     27  C   UNL     1       4.339  -5.087  24.639  0.00  0.00    +0.179 C 
ATOM     28  C   UNL     1       4.578  -6.199  23.614  0.00  0.00    +0.177 C 
ATOM     29  C   UNL     1       5.917  -5.945  22.916  0.00  0.00    +0.180 C 
ATOM     30  C   UNL     1       5.937  -4.552  22.295  0.00  0.00    +0.214 C 
BRANCH  29  31
ATOM     31  O   UNL     1       6.114  -6.969  21.927  0.00  0.00    -0.386 OA
ATOM     32  H   UNL     1       6.309  -7.806  22.381  0.00  0.00    +0.210 HD
ENDBRANCH  29  31
BRANCH  30  33
ATOM     33  O   UNL     1       7.211  -4.267  21.708  0.00  0.00    -0.383 OA
ATOM     34  H   UNL     1       7.060  -3.717  20.919  0.00  0.00    +0.210 HD
ENDBRANCH  30  33
BRANCH  28  35
ATOM     35  O   UNL     1       4.573  -7.483  24.253  0.00  0.00    -0.386 OA
ATOM     36  H   UNL     1       3.652  -7.809  24.254  0.00  0.00    +0.210 HD
ENDBRANCH  28  35
BRANCH  27  37
ATOM     37  C   UNL     1       3.025  -5.295  25.411  0.00  0.00    +0.190 C 
BRANCH  37  38
ATOM     38  O   UNL     1       3.212  -6.007  26.630  0.00  0.00    -0.392 OA
ATOM     39  H   UNL     1       2.977  -6.944  26.450  0.00  0.00    +0.210 HD
ENDBRANCH  37  38
ENDBRANCH  27  37
ENDBRANCH  24  25
ENDBRANCH   6  24
BRANCH   1  40
ATOM     40  O   UNL     1      10.362   3.743  23.767  0.00  0.00    -0.461 OA
BRANCH  40  44
ATOM     41  C   UNL     1       8.756   6.885  26.225  0.00  0.00    +0.041 C 
ATOM     42  C   UNL     1       7.899   5.836  25.513  0.00  0.00    +0.151 C 
ATOM     43  O   UNL     1       8.672   4.691  25.138  0.00  0.00    -0.334 OA
ATOM     44  C   UNL     1       9.608   4.914  24.074  0.00  0.00    +0.339 C 
ATOM     45  C   UNL     1       8.859   5.342  22.791  0.00  0.00    +0.214 C 
ATOM     46  C   UNL     1       8.081   6.624  23.114  0.00  0.00    +0.180 C 
ATOM     47  C   UNL     1       7.124   6.406  24.307  0.00  0.00    +0.181 C 
BRANCH  46  48
ATOM     48  O   UNL     1       7.368   7.101  21.965  0.00  0.00    -0.386 OA
ATOM     49  H   UNL     1       7.412   8.073  21.957  0.00  0.00    +0.210 HD
ENDBRANCH  46  48
BRANCH  45  50
ATOM     50  O   UNL     1       7.982   4.301  22.323  0.00  0.00    -0.383 OA
ATOM     51  H   UNL     1       7.098   4.701  22.203  0.00  0.00    +0.210 HD
ENDBRANCH  45  50
BRANCH  47  52
ATOM     52  O   UNL     1       6.048   5.547  23.854  0.00  0.00    -0.340 OA
BRANCH  52  53
ATOM     53  C   UNL     1       4.702   6.042  23.978  0.00  0.00    +0.282 C 
ATOM     54  O   UNL     1       4.037   5.338  25.039  0.00  0.00    -0.341 OA
ATOM     55  C   UNL     1       3.809   3.937  24.795  0.00  0.00    +0.178 C 
ATOM     56  C   UNL     1       3.054   3.685  23.466  0.00  0.00    +0.177 C 
ATOM     57  C   UNL     1       3.717   4.442  22.310  0.00  0.00    +0.179 C 
ATOM     58  C   UNL     1       3.859   5.927  22.687  0.00  0.00    +0.201 C 
BRANCH  58  59
ATOM     59  O   UNL     1       4.392   6.688  21.595  0.00  0.00    -0.384 OA
ATOM     60  H   UNL     1       3.790   6.562  20.837  0.00  0.00    +0.210 HD
ENDBRANCH  58  59
BRANCH  57  61
ATOM     61  O   UNL     1       4.986   3.867  21.957  0.00  0.00    -0.386 OA
ATOM     62  H   UNL     1       5.440   4.512  21.369  0.00  0.00    +0.210 HD
ENDBRANCH  57  61
BRANCH  56  63
ATOM     63  O   UNL     1       1.692   4.118  23.579  0.00  0.00    -0.386 OA
ATOM     64  H   UNL     1       1.235   3.546  24.221  0.00  0.00    +0.210 HD
ENDBRANCH  56  63
BRANCH  55  65
ATOM     65  C   UNL     1       3.011   3.340  25.973  0.00  0.00    +0.190 C 
BRANCH  65  66
ATOM     66  O   UNL     1       2.342   2.127  25.632  0.00  0.00    -0.392 OA
ATOM     67  H   UNL     1       3.007   1.434  25.492  0.00  0.00    +0.210 HD
ENDBRANCH  65  66
ENDBRANCH  55  65
ENDBRANCH  52  53
ENDBRANCH  47  52
ENDBRANCH  40  44
ENDBRANCH   1  40
TORSDOF 22
ENDMDL
