MODEL 1
REMARK VINA RESULT:      -6.6      0.000      0.000
REMARK  Name = 
REMARK  14 active torsions:
REMARK  status: ('A' for Active; 'I' for Inactive)
REMARK    1  A    between atoms: C_3  and  O_31
REMARK    2  A    between atoms: C_4  and  O_30
REMARK    3  A    between atoms: C_6  and  C_7
REMARK    4  A    between atoms: C_8  and  O_20
REMARK    5  A    between atoms: C_12  and  O_19
REMARK    6  A    between atoms: C_14  and  O_18
REMARK    7  A    between atoms: O_20  and  C_21
REMARK    8  A    between atoms: C_21  and  C_22
REMARK    9  A    between atoms: C_22  and  C_23
REMARK   10  A    between atoms: C_22  and  O_29
REMARK   11  A    between atoms: C_23  and  C_24
REMARK   12  A    between atoms: C_23  and  O_28
REMARK   13  A    between atoms: C_24  and  C_25
REMARK   14  A    between atoms: C_24  and  O_27
REMARK                            x       y       z     vdW  Elec       q    Type
REMARK                         _______ _______ _______ _____ _____    ______ ____
ROOT
ATOM      1  C   UNL     1       8.410  -1.892  24.496  0.00  0.00    +0.181 A 
ATOM      2  O   UNL     1       8.570  -0.675  25.191  0.00  0.00    -0.451 OA
ATOM      3  C   UNL     1       8.616   0.515  24.521  0.00  0.00    +0.147 A 
ATOM      4  C   UNL     1       8.768   0.572  23.154  0.00  0.00    +0.109 A 
ATOM      5  C   UNL     1       8.852   1.802  22.482  0.00  0.00    +0.135 A 
ATOM      6  C   UNL     1       8.781   2.989  23.188  0.00  0.00    +0.091 A 
ATOM      7  C   UNL     1       8.629   2.927  24.568  0.00  0.00    +0.124 A 
ATOM      8  C   UNL     1       8.865  -0.677  22.441  0.00  0.00    +0.238 A 
ATOM      9  O   UNL     1       9.240  -0.584  21.272  0.00  0.00    -0.283 OA
ATOM     10  C   UNL     1       8.543   1.705  25.240  0.00  0.00    +0.092 A 
ATOM     11  C   UNL     1       8.481  -1.966  23.135  0.00  0.00    +0.211 A 
ENDROOT
BRANCH   1  13
ATOM     12  C   UNL     1       8.955  -4.121  25.693  0.00  0.00    +0.015 A 
ATOM     13  C   UNL     1       8.121  -3.008  25.480  0.00  0.00    +0.025 A 
ATOM     14  C   UNL     1       6.922  -2.975  26.238  0.00  0.00    +0.060 A 
ATOM     15  C   UNL     1       6.549  -4.033  27.065  0.00  0.00    +0.159 A 
ATOM     16  C   UNL     1       7.342  -5.163  27.169  0.00  0.00    +0.158 A 
ATOM     17  C   UNL     1       8.565  -5.200  26.514  0.00  0.00    +0.050 A 
BRANCH  15  18
ATOM     18  O   UNL     1       5.376  -3.963  27.763  0.00  0.00    -0.503 OA
ATOM     19  H   UNL     1       5.605  -4.259  28.667  0.00  0.00    +0.292 HD
ENDBRANCH  15  18
BRANCH  16  20
ATOM     20  O   UNL     1       6.874  -6.211  27.906  0.00  0.00    -0.503 OA
ATOM     21  H   UNL     1       6.918  -7.011  27.353  0.00  0.00    +0.292 HD
ENDBRANCH  16  20
ENDBRANCH   1  13
BRANCH   5  22
ATOM     22  O   UNL     1       9.006   1.911  21.125  0.00  0.00    -0.506 OA
ATOM     23  H   UNL     1       8.228   1.476  20.700  0.00  0.00    +0.292 HD
ENDBRANCH   5  22
BRANCH   7  24
ATOM     24  O   UNL     1       8.558   4.077  25.303  0.00  0.00    -0.507 OA
ATOM     25  H   UNL     1       7.625   4.349  25.356  0.00  0.00    +0.292 HD
ENDBRANCH   7  24
BRANCH  11  26
ATOM     26  O   UNL     1       8.216  -3.134  22.379  0.00  0.00    -0.482 OA
BRANCH  26  27
ATOM     27  C   UNL     1       6.887  -3.143  21.817  0.00  0.00    +0.263 C 
BRANCH  27  28
ATOM     28  C   UNL     1       5.809  -3.983  22.502  0.00  0.00    +0.183 C 
BRANCH  28  29
ATOM     29  O   UNL     1       4.971  -3.221  23.357  0.00  0.00    -0.386 OA
ATOM     30  H   UNL     1       5.408  -3.181  24.228  0.00  0.00    +0.210 HD
ENDBRANCH  28  29
BRANCH  28  31
ATOM     31  C   UNL     1       6.356  -5.218  23.232  0.00  0.00    +0.182 C 
BRANCH  31  32
ATOM     32  O   UNL     1       7.516  -5.771  22.589  0.00  0.00    -0.386 OA
ATOM     33  H   UNL     1       7.236  -6.111  21.710  0.00  0.00    +0.210 HD
ENDBRANCH  31  32
BRANCH  31  34
ATOM     34  C   UNL     1       5.284  -6.316  23.373  0.00  0.00    +0.208 C 
BRANCH  34  35
ATOM     35  O   UNL     1       4.204  -6.044  22.480  0.00  0.00    -0.382 OA
ATOM     36  H   UNL     1       4.371  -5.143  22.132  0.00  0.00    +0.210 HD
ENDBRANCH  34  35
BRANCH  34  37
ATOM     37  C   UNL     1       4.706  -6.381  24.783  0.00  0.00    +0.257 C 
ATOM     38  O   UNL     1       4.113  -5.444  25.315  0.00  0.00    -0.298 OA
ENDBRANCH  34  37
ENDBRANCH  31  34
ENDBRANCH  28  31
ENDBRANCH  27  28
ENDBRANCH  26  27
ENDBRANCH  11  26
TORSDOF 14
ENDMDL
MODEL 2
REMARK VINA RESULT:      -6.5      1.807      3.805
REMARK  Name = 
REMARK  14 active torsions:
REMARK  status: ('A' for Active; 'I' for Inactive)
REMARK    1  A    between atoms: C_3  and  O_31
REMARK    2  A    between atoms: C_4  and  O_30
REMARK    3  A    between atoms: C_6  and  C_7
REMARK    4  A    between atoms: C_8  and  O_20
REMARK    5  A    between atoms: C_12  and  O_19
REMARK    6  A    between atoms: C_14  and  O_18
REMARK    7  A    between atoms: O_20  and  C_21
REMARK    8  A    between atoms: C_21  and  C_22
REMARK    9  A    between atoms: C_22  and  C_23
REMARK   10  A    between atoms: C_22  and  O_29
REMARK   11  A    between atoms: C_23  and  C_24
REMARK   12  A    between atoms: C_23  and  O_28
REMARK   13  A    between atoms: C_24  and  C_25
REMARK   14  A    between atoms: C_24  and  O_27
REMARK                            x       y       z     vdW  Elec       q    Type
REMARK                         _______ _______ _______ _____ _____    ______ ____
ROOT
ATOM      1  C   UNL     1       7.360  -1.485  23.008  0.00  0.00    +0.181 A 
ATOM      2  O   UNL     1       6.642  -0.279  22.860  0.00  0.00    -0.451 OA
ATOM      3  C   UNL     1       7.293   0.918  22.765  0.00  0.00    +0.147 A 
ATOM      4  C   UNL     1       8.631   1.043  23.062  0.00  0.00    +0.109 A 
ATOM      5  C   UNL     1       9.278   2.286  22.996  0.00  0.00    +0.135 A 
ATOM      6  C   UNL     1       8.577   3.419  22.627  0.00  0.00    +0.091 A 
ATOM      7  C   UNL     1       7.226   3.291  22.329  0.00  0.00    +0.124 A 
ATOM      8  C   UNL     1       9.336  -0.147  23.469  0.00  0.00    +0.238 A 
ATOM      9  O   UNL     1      10.451   0.047  23.954  0.00  0.00    -0.283 OA
ATOM     10  C   UNL     1       6.578   2.054  22.391  0.00  0.00    +0.092 A 
ATOM     11  C   UNL     1       8.704  -1.504  23.249  0.00  0.00    +0.211 A 
ENDROOT
BRANCH   1  13
ATOM     12  C   UNL     1       5.265  -2.893  23.578  0.00  0.00    +0.015 A 
ATOM     13  C   UNL     1       6.426  -2.662  22.817  0.00  0.00    +0.025 A 
ATOM     14  C   UNL     1       6.726  -3.635  21.829  0.00  0.00    +0.060 A 
ATOM     15  C   UNL     1       5.970  -4.799  21.694  0.00  0.00    +0.159 A 
ATOM     16  C   UNL     1       4.897  -5.045  22.532  0.00  0.00    +0.158 A 
ATOM     17  C   UNL     1       4.515  -4.081  23.454  0.00  0.00    +0.050 A 
BRANCH  15  18
ATOM     18  O   UNL     1       6.308  -5.715  20.738  0.00  0.00    -0.503 OA
ATOM     19  H   UNL     1       5.457  -6.109  20.457  0.00  0.00    +0.292 HD
ENDBRANCH  15  18
BRANCH  16  20
ATOM     20  O   UNL     1       4.262  -6.249  22.426  0.00  0.00    -0.503 OA
ATOM     21  H   UNL     1       3.760  -6.251  21.592  0.00  0.00    +0.292 HD
ENDBRANCH  16  20
ENDBRANCH   1  13
BRANCH   5  22
ATOM     22  O   UNL     1      10.607   2.461  23.284  0.00  0.00    -0.506 OA
ATOM     23  H   UNL     1      10.666   2.900  24.166  0.00  0.00    +0.292 HD
ENDBRANCH   5  22
BRANCH   7  24
ATOM     24  O   UNL     1       6.497   4.386  21.963  0.00  0.00    -0.507 OA
ATOM     25  H   UNL     1       6.008   4.703  22.742  0.00  0.00    +0.292 HD
ENDBRANCH   7  24
BRANCH  11  26
ATOM     26  O   UNL     1       9.494  -2.678  23.293  0.00  0.00    -0.482 OA
BRANCH  26  27
ATOM     27  C   UNL     1       9.708  -3.154  24.638  0.00  0.00    +0.263 C 
BRANCH  27  28
ATOM     28  C   UNL     1       8.917  -4.372  25.117  0.00  0.00    +0.183 C 
BRANCH  28  29
ATOM     29  O   UNL     1       8.691  -5.327  24.092  0.00  0.00    -0.386 OA
ATOM     30  H   UNL     1       9.518  -5.832  23.981  0.00  0.00    +0.210 HD
ENDBRANCH  28  29
BRANCH  28  31
ATOM     31  C   UNL     1       7.604  -4.016  25.829  0.00  0.00    +0.182 C 
BRANCH  31  32
ATOM     32  O   UNL     1       7.668  -2.750  26.506  0.00  0.00    -0.386 OA
ATOM     33  H   UNL     1       8.542  -2.347  26.301  0.00  0.00    +0.210 HD
ENDBRANCH  31  32
BRANCH  31  34
ATOM     34  C   UNL     1       7.189  -5.107  26.835  0.00  0.00    +0.208 C 
BRANCH  34  35
ATOM     35  O   UNL     1       8.231  -6.078  26.941  0.00  0.00    -0.382 OA
ATOM     36  H   UNL     1       8.572  -5.998  27.856  0.00  0.00    +0.210 HD
ENDBRANCH  34  35
BRANCH  34  37
ATOM     37  C   UNL     1       5.924  -5.840  26.402  0.00  0.00    +0.257 C 
ATOM     38  O   UNL     1       5.484  -6.832  26.982  0.00  0.00    -0.298 OA
ENDBRANCH  34  37
ENDBRANCH  31  34
ENDBRANCH  28  31
ENDBRANCH  27  28
ENDBRANCH  26  27
ENDBRANCH  11  26
TORSDOF 14
ENDMDL
MODEL 3
REMARK VINA RESULT:      -6.5      1.691      4.238
REMARK  Name = 
REMARK  14 active torsions:
REMARK  status: ('A' for Active; 'I' for Inactive)
REMARK    1  A    between atoms: C_3  and  O_31
REMARK    2  A    between atoms: C_4  and  O_30
REMARK    3  A    between atoms: C_6  and  C_7
REMARK    4  A    between atoms: C_8  and  O_20
REMARK    5  A    between atoms: C_12  and  O_19
REMARK    6  A    between atoms: C_14  and  O_18
REMARK    7  A    between atoms: O_20  and  C_21
REMARK    8  A    between atoms: C_21  and  C_22
REMARK    9  A    between atoms: C_22  and  C_23
REMARK   10  A    between atoms: C_22  and  O_29
REMARK   11  A    between atoms: C_23  and  C_24
REMARK   12  A    between atoms: C_23  and  O_28
REMARK   13  A    between atoms: C_24  and  C_25
REMARK   14  A    between atoms: C_24  and  O_27
REMARK                            x       y       z     vdW  Elec       q    Type
REMARK                         _______ _______ _______ _____ _____    ______ ____
ROOT
ATOM      1  C   UNL     1       6.651  -1.386  23.580  0.00  0.00    +0.181 A 
ATOM      2  O   UNL     1       7.565  -0.763  22.704  0.00  0.00    -0.451 OA
ATOM      3  C   UNL     1       8.104   0.457  23.004  0.00  0.00    +0.147 A 
ATOM      4  C   UNL     1       7.603   1.243  24.017  0.00  0.00    +0.109 A 
ATOM      5  C   UNL     1       8.141   2.510  24.289  0.00  0.00    +0.135 A 
ATOM      6  C   UNL     1       9.196   2.995  23.538  0.00  0.00    +0.091 A 
ATOM      7  C   UNL     1       9.698   2.201  22.515  0.00  0.00    +0.124 A 
ATOM      8  C   UNL     1       6.486   0.727  24.770  0.00  0.00    +0.238 A 
ATOM      9  O   UNL     1       5.920   1.548  25.492  0.00  0.00    -0.283 OA
ATOM     10  C   UNL     1       9.167   0.937  22.242  0.00  0.00    +0.092 A 
ATOM     11  C   UNL     1       6.121  -0.737  24.658  0.00  0.00    +0.211 A 
ENDROOT
BRANCH   1  13
ATOM     12  C   UNL     1       7.432  -3.672  22.650  0.00  0.00    +0.015 A 
ATOM     13  C   UNL     1       6.427  -2.820  23.147  0.00  0.00    +0.025 A 
ATOM     14  C   UNL     1       5.121  -3.369  23.207  0.00  0.00    +0.060 A 
ATOM     15  C   UNL     1       4.836  -4.640  22.708  0.00  0.00    +0.159 A 
ATOM     16  C   UNL     1       5.829  -5.409  22.127  0.00  0.00    +0.158 A 
ATOM     17  C   UNL     1       7.137  -4.947  22.126  0.00  0.00    +0.050 A 
BRANCH  15  18
ATOM     18  O   UNL     1       3.558  -5.120  22.773  0.00  0.00    -0.503 OA
ATOM     19  H   UNL     1       3.045  -4.406  23.204  0.00  0.00    +0.292 HD
ENDBRANCH  15  18
BRANCH  16  20
ATOM     20  O   UNL     1       5.471  -6.597  21.557  0.00  0.00    -0.503 OA
ATOM     21  H   UNL     1       4.923  -7.084  22.198  0.00  0.00    +0.292 HD
ENDBRANCH  16  20
ENDBRANCH   1  13
BRANCH   5  22
ATOM     22  O   UNL     1       7.676   3.329  25.284  0.00  0.00    -0.506 OA
ATOM     23  H   UNL     1       6.843   3.748  24.960  0.00  0.00    +0.292 HD
ENDBRANCH   5  22
BRANCH   7  24
ATOM     24  O   UNL     1      10.738   2.645  21.749  0.00  0.00    -0.507 OA
ATOM     25  H   UNL     1      11.230   1.872  21.422  0.00  0.00    +0.292 HD
ENDBRANCH   7  24
BRANCH  11  26
ATOM     26  O   UNL     1       5.292  -1.345  25.632  0.00  0.00    -0.482 OA
BRANCH  26  27
ATOM     27  C   UNL     1       6.040  -1.880  26.743  0.00  0.00    +0.263 C 
BRANCH  27  28
ATOM     28  C   UNL     1       6.403  -3.365  26.733  0.00  0.00    +0.183 C 
BRANCH  28  29
ATOM     29  O   UNL     1       5.761  -4.101  27.762  0.00  0.00    -0.386 OA
ATOM     30  H   UNL     1       6.271  -3.957  28.581  0.00  0.00    +0.210 HD
ENDBRANCH  28  29
BRANCH  28  31
ATOM     31  C   UNL     1       7.914  -3.633  26.732  0.00  0.00    +0.182 C 
BRANCH  31  32
ATOM     32  O   UNL     1       8.656  -2.613  26.042  0.00  0.00    -0.386 OA
ATOM     33  H   UNL     1       8.355  -2.608  25.106  0.00  0.00    +0.210 HD
ENDBRANCH  31  32
BRANCH  31  34
ATOM     34  C   UNL     1       8.248  -5.005  26.115  0.00  0.00    +0.208 C 
BRANCH  34  35
ATOM     35  O   UNL     1       8.019  -6.030  27.083  0.00  0.00    -0.382 OA
ATOM     36  H   UNL     1       7.136  -6.399  26.871  0.00  0.00    +0.210 HD
ENDBRANCH  34  35
BRANCH  34  37
ATOM     37  C   UNL     1       9.706  -5.104  25.681  0.00  0.00    +0.257 C 
ATOM     38  O   UNL     1      10.140  -4.600  24.646  0.00  0.00    -0.298 OA
ENDBRANCH  34  37
ENDBRANCH  31  34
ENDBRANCH  28  31
ENDBRANCH  27  28
ENDBRANCH  26  27
ENDBRANCH  11  26
TORSDOF 14
ENDMDL
MODEL 4
REMARK VINA RESULT:      -6.3      1.859      7.426
REMARK  Name = 
REMARK  14 active torsions:
REMARK  status: ('A' for Active; 'I' for Inactive)
REMARK    1  A    between atoms: C_3  and  O_31
REMARK    2  A    between atoms: C_4  and  O_30
REMARK    3  A    between atoms: C_6  and  C_7
REMARK    4  A    between atoms: C_8  and  O_20
REMARK    5  A    between atoms: C_12  and  O_19
REMARK    6  A    between atoms: C_14  and  O_18
REMARK    7  A    between atoms: O_20  and  C_21
REMARK    8  A    between atoms: C_21  and  C_22
REMARK    9  A    between atoms: C_22  and  C_23
REMARK   10  A    between atoms: C_22  and  O_29
REMARK   11  A    between atoms: C_23  and  C_24
REMARK   12  A    between atoms: C_23  and  O_28
REMARK   13  A    between atoms: C_24  and  C_25
REMARK   14  A    between atoms: C_24  and  O_27
REMARK                            x       y       z     vdW  Elec       q    Type
REMARK                         _______ _______ _______ _____ _____    ______ ____
ROOT
ATOM      1  C   UNL     1       8.525  -1.897  24.279  0.00  0.00    +0.181 A 
ATOM      2  O   UNL     1       8.226  -2.683  23.146  0.00  0.00    -0.451 OA
ATOM      3  C   UNL     1       7.381  -3.754  23.238  0.00  0.00    +0.147 A 
ATOM      4  C   UNL     1       6.993  -4.270  24.454  0.00  0.00    +0.109 A 
ATOM      5  C   UNL     1       6.156  -5.393  24.533  0.00  0.00    +0.135 A 
ATOM      6  C   UNL     1       5.701  -6.007  23.381  0.00  0.00    +0.091 A 
ATOM      7  C   UNL     1       6.096  -5.486  22.156  0.00  0.00    +0.124 A 
ATOM      8  C   UNL     1       7.501  -3.629  25.642  0.00  0.00    +0.238 A 
ATOM      9  O   UNL     1       7.331  -4.258  26.687  0.00  0.00    -0.283 OA
ATOM     10  C   UNL     1       6.928  -4.365  22.072  0.00  0.00    +0.092 A 
ATOM     11  C   UNL     1       8.147  -2.265  25.538  0.00  0.00    +0.211 A 
ENDROOT
BRANCH   1  13
ATOM     12  C   UNL     1      10.303  -0.039  24.567  0.00  0.00    +0.015 A 
ATOM     13  C   UNL     1       9.252  -0.639  23.849  0.00  0.00    +0.025 A 
ATOM     14  C   UNL     1       8.854   0.023  22.659  0.00  0.00    +0.060 A 
ATOM     15  C   UNL     1       9.405   1.247  22.283  0.00  0.00    +0.159 A 
ATOM     16  C   UNL     1      10.362   1.863  23.070  0.00  0.00    +0.158 A 
ATOM     17  C   UNL     1      10.843   1.210  24.196  0.00  0.00    +0.050 A 
BRANCH  15  18
ATOM     18  O   UNL     1       8.977   1.855  21.136  0.00  0.00    -0.503 OA
ATOM     19  H   UNL     1       8.226   1.307  20.828  0.00  0.00    +0.292 HD
ENDBRANCH  15  18
BRANCH  16  20
ATOM     20  O   UNL     1      10.784   3.110  22.710  0.00  0.00    -0.503 OA
ATOM     21  H   UNL     1      11.298   3.478  23.450  0.00  0.00    +0.292 HD
ENDBRANCH  16  20
ENDBRANCH   1  13
BRANCH   5  22
ATOM     22  O   UNL     1       5.744  -5.944  25.719  0.00  0.00    -0.506 OA
ATOM     23  H   UNL     1       4.790  -6.177  25.625  0.00  0.00    +0.292 HD
ENDBRANCH   5  22
BRANCH   7  24
ATOM     24  O   UNL     1       5.670  -6.064  20.994  0.00  0.00    -0.507 OA
ATOM     25  H   UNL     1       4.801  -5.693  20.767  0.00  0.00    +0.292 HD
ENDBRANCH   7  24
BRANCH  11  26
ATOM     26  O   UNL     1       8.319  -1.464  26.693  0.00  0.00    -0.482 OA
BRANCH  26  27
ATOM     27  C   UNL     1       7.210  -0.570  26.919  0.00  0.00    +0.263 C 
BRANCH  27  28
ATOM     28  C   UNL     1       7.402   0.920  26.636  0.00  0.00    +0.183 C 
BRANCH  28  29
ATOM     29  O   UNL     1       7.373   1.717  27.810  0.00  0.00    -0.386 OA
ATOM     30  H   UNL     1       8.196   1.538  28.301  0.00  0.00    +0.210 HD
ENDBRANCH  28  29
BRANCH  28  31
ATOM     31  C   UNL     1       6.444   1.478  25.574  0.00  0.00    +0.182 C 
BRANCH  31  32
ATOM     32  O   UNL     1       5.929   0.456  24.704  0.00  0.00    -0.386 OA
ATOM     33  H   UNL     1       5.119   0.811  24.275  0.00  0.00    +0.210 HD
ENDBRANCH  31  32
BRANCH  31  34
ATOM     34  C   UNL     1       7.113   2.576  24.725  0.00  0.00    +0.208 C 
BRANCH  34  35
ATOM     35  O   UNL     1       7.344   3.729  25.535  0.00  0.00    -0.382 OA
ATOM     36  H   UNL     1       7.178   4.498  24.950  0.00  0.00    +0.210 HD
ENDBRANCH  34  35
BRANCH  34  37
ATOM     37  C   UNL     1       6.242   3.009  23.551  0.00  0.00    +0.257 C 
ATOM     38  O   UNL     1       6.167   2.380  22.496  0.00  0.00    -0.298 OA
ENDBRANCH  34  37
ENDBRANCH  31  34
ENDBRANCH  28  31
ENDBRANCH  27  28
ENDBRANCH  26  27
ENDBRANCH  11  26
TORSDOF 14
ENDMDL
MODEL 5
REMARK VINA RESULT:      -6.1      2.253      7.102
REMARK  Name = 
REMARK  14 active torsions:
REMARK  status: ('A' for Active; 'I' for Inactive)
REMARK    1  A    between atoms: C_3  and  O_31
REMARK    2  A    between atoms: C_4  and  O_30
REMARK    3  A    between atoms: C_6  and  C_7
REMARK    4  A    between atoms: C_8  and  O_20
REMARK    5  A    between atoms: C_12  and  O_19
REMARK    6  A    between atoms: C_14  and  O_18
REMARK    7  A    between atoms: O_20  and  C_21
REMARK    8  A    between atoms: C_21  and  C_22
REMARK    9  A    between atoms: C_22  and  C_23
REMARK   10  A    between atoms: C_22  and  O_29
REMARK   11  A    between atoms: C_23  and  C_24
REMARK   12  A    between atoms: C_23  and  O_28
REMARK   13  A    between atoms: C_24  and  C_25
REMARK   14  A    between atoms: C_24  and  O_27
REMARK                            x       y       z     vdW  Elec       q    Type
REMARK                         _______ _______ _______ _____ _____    ______ ____
ROOT
ATOM      1  C   UNL     1       5.687  -2.168  24.821  0.00  0.00    +0.181 A 
ATOM      2  O   UNL     1       4.985  -3.113  25.598  0.00  0.00    -0.451 OA
ATOM      3  C   UNL     1       4.766  -4.380  25.134  0.00  0.00    +0.147 A 
ATOM      4  C   UNL     1       4.980  -4.717  23.817  0.00  0.00    +0.109 A 
ATOM      5  C   UNL     1       4.715  -6.012  23.345  0.00  0.00    +0.135 A 
ATOM      6  C   UNL     1       4.230  -6.981  24.203  0.00  0.00    +0.091 A 
ATOM      7  C   UNL     1       4.013  -6.638  25.532  0.00  0.00    +0.124 A 
ATOM      8  C   UNL     1       5.461  -3.683  22.934  0.00  0.00    +0.238 A 
ATOM      9  O   UNL     1       5.407  -3.954  21.735  0.00  0.00    -0.283 OA
ATOM     10  C   UNL     1       4.279  -5.350  26.006  0.00  0.00    +0.092 A 
ATOM     11  C   UNL     1       6.013  -2.400  23.516  0.00  0.00    +0.211 A 
ENDROOT
BRANCH   1  13
ATOM     12  C   UNL     1       5.328   0.268  25.619  0.00  0.00    +0.015 A 
ATOM     13  C   UNL     1       6.020  -0.957  25.668  0.00  0.00    +0.025 A 
ATOM     14  C   UNL     1       7.116  -1.016  26.566  0.00  0.00    +0.060 A 
ATOM     15  C   UNL     1       7.541   0.106  27.278  0.00  0.00    +0.159 A 
ATOM     16  C   UNL     1       6.903   1.324  27.123  0.00  0.00    +0.158 A 
ATOM     17  C   UNL     1       5.773   1.406  26.323  0.00  0.00    +0.050 A 
BRANCH  15  18
ATOM     18  O   UNL     1       8.614   0.004  28.119  0.00  0.00    -0.503 OA
ATOM     19  H   UNL     1       9.013   0.897  28.125  0.00  0.00    +0.292 HD
ENDBRANCH  15  18
BRANCH  16  20
ATOM     20  O   UNL     1       7.431   2.410  27.760  0.00  0.00    -0.503 OA
ATOM     21  H   UNL     1       6.699   2.895  28.183  0.00  0.00    +0.292 HD
ENDBRANCH  16  20
ENDBRANCH   1  13
BRANCH   5  22
ATOM     22  O   UNL     1       4.910  -6.395  22.043  0.00  0.00    -0.506 OA
ATOM     23  H   UNL     1       4.932  -5.577  21.491  0.00  0.00    +0.292 HD
ENDBRANCH   5  22
BRANCH   7  24
ATOM     24  O   UNL     1       3.533  -7.566  26.412  0.00  0.00    -0.507 OA
ATOM     25  H   UNL     1       4.172  -8.297  26.464  0.00  0.00    +0.292 HD
ENDBRANCH   7  24
BRANCH  11  26
ATOM     26  O   UNL     1       6.812  -1.540  22.723  0.00  0.00    -0.482 OA
BRANCH  26  27
ATOM     27  C   UNL     1       8.173  -2.003  22.600  0.00  0.00    +0.263 C 
BRANCH  27  28
ATOM     28  C   UNL     1       9.185  -1.115  21.876  0.00  0.00    +0.183 C 
BRANCH  28  29
ATOM     29  O   UNL     1      10.444  -1.742  21.692  0.00  0.00    -0.386 OA
ATOM     30  H   UNL     1      10.774  -1.475  20.815  0.00  0.00    +0.210 HD
ENDBRANCH  28  29
BRANCH  28  31
ATOM     31  C   UNL     1       9.354   0.274  22.508  0.00  0.00    +0.182 C 
BRANCH  31  32
ATOM     32  O   UNL     1       8.530   0.455  23.672  0.00  0.00    -0.386 OA
ATOM     33  H   UNL     1       7.993   1.267  23.533  0.00  0.00    +0.210 HD
ENDBRANCH  31  32
BRANCH  31  34
ATOM     34  C   UNL     1       9.057   1.399  21.498  0.00  0.00    +0.208 C 
BRANCH  34  35
ATOM     35  O   UNL     1      10.115   2.357  21.526  0.00  0.00    -0.382 OA
ATOM     36  H   UNL     1      10.483   2.368  20.618  0.00  0.00    +0.210 HD
ENDBRANCH  34  35
BRANCH  34  37
ATOM     37  C   UNL     1       7.762   2.138  21.821  0.00  0.00    +0.257 C 
ATOM     38  O   UNL     1       7.715   3.140  22.533  0.00  0.00    -0.298 OA
ENDBRANCH  34  37
ENDBRANCH  31  34
ENDBRANCH  28  31
ENDBRANCH  27  28
ENDBRANCH  26  27
ENDBRANCH  11  26
TORSDOF 14
ENDMDL
MODEL 6
REMARK VINA RESULT:      -6.1      1.787      4.271
REMARK  Name = 
REMARK  14 active torsions:
REMARK  status: ('A' for Active; 'I' for Inactive)
REMARK    1  A    between atoms: C_3  and  O_31
REMARK    2  A    between atoms: C_4  and  O_30
REMARK    3  A    between atoms: C_6  and  C_7
REMARK    4  A    between atoms: C_8  and  O_20
REMARK    5  A    between atoms: C_12  and  O_19
REMARK    6  A    between atoms: C_14  and  O_18
REMARK    7  A    between atoms: O_20  and  C_21
REMARK    8  A    between atoms: C_21  and  C_22
REMARK    9  A    between atoms: C_22  and  C_23
REMARK   10  A    between atoms: C_22  and  O_29
REMARK   11  A    between atoms: C_23  and  C_24
REMARK   12  A    between atoms: C_23  and  O_28
REMARK   13  A    between atoms: C_24  and  C_25
REMARK   14  A    between atoms: C_24  and  O_27
REMARK                            x       y       z     vdW  Elec       q    Type
REMARK                         _______ _______ _______ _____ _____    ______ ____
ROOT
ATOM      1  C   UNL     1       6.847  -2.149  23.976  0.00  0.00    +0.181 A 
ATOM      2  O   UNL     1       6.494  -0.956  23.311  0.00  0.00    -0.451 OA
ATOM      3  C   UNL     1       7.345   0.114  23.290  0.00  0.00    +0.147 A 
ATOM      4  C   UNL     1       8.447   0.180  24.112  0.00  0.00    +0.109 A 
ATOM      5  C   UNL     1       9.291   1.302  24.107  0.00  0.00    +0.135 A 
ATOM      6  C   UNL     1       9.029   2.369  23.268  0.00  0.00    +0.091 A 
ATOM      7  C   UNL     1       7.914   2.299  22.441  0.00  0.00    +0.124 A 
ATOM      8  C   UNL     1       8.687  -0.932  24.997  0.00  0.00    +0.238 A 
ATOM      9  O   UNL     1       9.527  -0.730  25.873  0.00  0.00    -0.283 OA
ATOM     10  C   UNL     1       7.073   1.183  22.440  0.00  0.00    +0.092 A 
ATOM     11  C   UNL     1       7.949  -2.235  24.777  0.00  0.00    +0.211 A 
ENDROOT
BRANCH   1  13
ATOM     12  C   UNL     1       4.576  -3.375  24.173  0.00  0.00    +0.015 A 
ATOM     13  C   UNL     1       5.863  -3.243  23.617  0.00  0.00    +0.025 A 
ATOM     14  C   UNL     1       6.239  -4.238  22.679  0.00  0.00    +0.060 A 
ATOM     15  C   UNL     1       5.421  -5.334  22.405  0.00  0.00    +0.159 A 
ATOM     16  C   UNL     1       4.207  -5.488  23.052  0.00  0.00    +0.158 A 
ATOM     17  C   UNL     1       3.761  -4.495  23.911  0.00  0.00    +0.050 A 
BRANCH  15  18
ATOM     18  O   UNL     1       5.835  -6.276  21.506  0.00  0.00    -0.503 OA
ATOM     19  H   UNL     1       5.745  -7.129  21.978  0.00  0.00    +0.292 HD
ENDBRANCH  15  18
BRANCH  16  20
ATOM     20  O   UNL     1       3.501  -6.634  22.826  0.00  0.00    -0.503 OA
ATOM     21  H   UNL     1       2.667  -6.576  23.326  0.00  0.00    +0.292 HD
ENDBRANCH  16  20
ENDBRANCH   1  13
BRANCH   5  22
ATOM     22  O   UNL     1      10.398   1.416  24.907  0.00  0.00    -0.506 OA
ATOM     23  H   UNL     1      10.379   2.314  25.316  0.00  0.00    +0.292 HD
ENDBRANCH   5  22
BRANCH   7  24
ATOM     24  O   UNL     1       7.619   3.333  21.599  0.00  0.00    -0.507 OA
ATOM     25  H   UNL     1       7.517   2.976  20.700  0.00  0.00    +0.292 HD
ENDBRANCH   7  24
BRANCH  11  26
ATOM     26  O   UNL     1       8.414  -3.431  25.376  0.00  0.00    -0.482 OA
BRANCH  26  27
ATOM     27  C   UNL     1       7.838  -3.662  26.678  0.00  0.00    +0.263 C 
BRANCH  27  28
ATOM     28  C   UNL     1       7.687  -5.102  27.166  0.00  0.00    +0.183 C 
BRANCH  28  29
ATOM     29  O   UNL     1       8.354  -6.043  26.338  0.00  0.00    -0.386 OA
ATOM     30  H   UNL     1       8.399  -6.882  26.833  0.00  0.00    +0.210 HD
ENDBRANCH  28  29
BRANCH  28  31
ATOM     31  C   UNL     1       6.232  -5.525  27.410  0.00  0.00    +0.182 C 
BRANCH  31  32
ATOM     32  O   UNL     1       5.340  -4.402  27.512  0.00  0.00    -0.386 OA
ATOM     33  H   UNL     1       4.858  -4.327  26.658  0.00  0.00    +0.210 HD
ENDBRANCH  31  32
BRANCH  31  34
ATOM     34  C   UNL     1       6.097  -6.395  28.674  0.00  0.00    +0.208 C 
BRANCH  34  35
ATOM     35  O   UNL     1       5.482  -7.639  28.334  0.00  0.00    -0.382 OA
ATOM     36  H   UNL     1       5.558  -7.710  27.359  0.00  0.00    +0.210 HD
ENDBRANCH  34  35
BRANCH  34  37
ATOM     37  C   UNL     1       5.229  -5.734  29.740  0.00  0.00    +0.257 C 
ATOM     38  O   UNL     1       5.631  -4.836  30.479  0.00  0.00    -0.298 OA
ENDBRANCH  34  37
ENDBRANCH  31  34
ENDBRANCH  28  31
ENDBRANCH  27  28
ENDBRANCH  26  27
ENDBRANCH  11  26
TORSDOF 14
ENDMDL
MODEL 7
REMARK VINA RESULT:      -6.1      2.561      7.334
REMARK  Name = 
REMARK  14 active torsions:
REMARK  status: ('A' for Active; 'I' for Inactive)
REMARK    1  A    between atoms: C_3  and  O_31
REMARK    2  A    between atoms: C_4  and  O_30
REMARK    3  A    between atoms: C_6  and  C_7
REMARK    4  A    between atoms: C_8  and  O_20
REMARK    5  A    between atoms: C_12  and  O_19
REMARK    6  A    between atoms: C_14  and  O_18
REMARK    7  A    between atoms: O_20  and  C_21
REMARK    8  A    between atoms: C_21  and  C_22
REMARK    9  A    between atoms: C_22  and  C_23
REMARK   10  A    between atoms: C_22  and  O_29
REMARK   11  A    between atoms: C_23  and  C_24
REMARK   12  A    between atoms: C_23  and  O_28
REMARK   13  A    between atoms: C_24  and  C_25
REMARK   14  A    between atoms: C_24  and  O_27
REMARK                            x       y       z     vdW  Elec       q    Type
REMARK                         _______ _______ _______ _____ _____    ______ ____
ROOT
ATOM      1  C   UNL     1       7.649  -0.705  25.184  0.00  0.00    +0.181 A 
ATOM      2  O   UNL     1       7.000  -1.733  25.900  0.00  0.00    -0.451 OA
ATOM      3  C   UNL     1       7.594  -2.953  26.067  0.00  0.00    +0.147 A 
ATOM      4  C   UNL     1       8.707  -3.323  25.347  0.00  0.00    +0.109 A 
ATOM      5  C   UNL     1       9.284  -4.594  25.501  0.00  0.00    +0.135 A 
ATOM      6  C   UNL     1       8.740  -5.504  26.388  0.00  0.00    +0.091 A 
ATOM      7  C   UNL     1       7.615  -5.127  27.113  0.00  0.00    +0.124 A 
ATOM      8  C   UNL     1       9.242  -2.368  24.408  0.00  0.00    +0.238 A 
ATOM      9  O   UNL     1      10.073  -2.819  23.621  0.00  0.00    -0.283 OA
ATOM     10  C   UNL     1       7.040  -3.863  26.964  0.00  0.00    +0.092 A 
ATOM     11  C   UNL     1       8.793  -0.925  24.473  0.00  0.00    +0.211 A 
ENDROOT
BRANCH   1  13
ATOM     12  C   UNL     1       7.183   1.533  26.399  0.00  0.00    +0.015 A 
ATOM     13  C   UNL     1       6.905   0.601  25.381  0.00  0.00    +0.025 A 
ATOM     14  C   UNL     1       5.830   0.927  24.516  0.00  0.00    +0.060 A 
ATOM     15  C   UNL     1       5.035   2.054  24.727  0.00  0.00    +0.159 A 
ATOM     16  C   UNL     1       5.270   2.892  25.803  0.00  0.00    +0.158 A 
ATOM     17  C   UNL     1       6.364   2.659  26.623  0.00  0.00    +0.050 A 
BRANCH  15  18
ATOM     18  O   UNL     1       3.999   2.317  23.875  0.00  0.00    -0.503 OA
ATOM     19  H   UNL     1       4.115   1.684  23.138  0.00  0.00    +0.292 HD
ENDBRANCH  15  18
BRANCH  16  20
ATOM     20  O   UNL     1       4.394   3.915  26.023  0.00  0.00    -0.503 OA
ATOM     21  H   UNL     1       4.356   4.077  26.982  0.00  0.00    +0.292 HD
ENDBRANCH  16  20
ENDBRANCH   1  13
BRANCH   5  22
ATOM     22  O   UNL     1      10.389  -5.009  24.805  0.00  0.00    -0.506 OA
ATOM     23  H   UNL     1      10.864  -5.669  25.365  0.00  0.00    +0.292 HD
ENDBRANCH   5  22
BRANCH   7  24
ATOM     24  O   UNL     1       7.046  -5.998  27.998  0.00  0.00    -0.507 OA
ATOM     25  H   UNL     1       6.839  -6.823  27.526  0.00  0.00    +0.292 HD
ENDBRANCH   7  24
BRANCH  11  26
ATOM     26  O   UNL     1       9.547   0.089  23.832  0.00  0.00    -0.482 OA
BRANCH  26  27
ATOM     27  C   UNL     1       9.272   0.176  22.419  0.00  0.00    +0.263 C 
BRANCH  27  28
ATOM     28  C   UNL     1       9.081   1.558  21.795  0.00  0.00    +0.183 C 
BRANCH  28  29
ATOM     29  O   UNL     1      10.304   2.243  21.572  0.00  0.00    -0.386 OA
ATOM     30  H   UNL     1      10.654   1.936  20.716  0.00  0.00    +0.210 HD
ENDBRANCH  28  29
BRANCH  28  31
ATOM     31  C   UNL     1       8.088   2.449  22.556  0.00  0.00    +0.182 C 
BRANCH  31  32
ATOM     32  O   UNL     1       7.064   2.988  21.703  0.00  0.00    -0.386 OA
ATOM     33  H   UNL     1       7.476   3.686  21.147  0.00  0.00    +0.210 HD
ENDBRANCH  31  32
BRANCH  31  34
ATOM     34  C   UNL     1       8.803   3.606  23.280  0.00  0.00    +0.208 C 
BRANCH  34  35
ATOM     35  O   UNL     1       9.545   3.090  24.386  0.00  0.00    -0.382 OA
ATOM     36  H   UNL     1       9.392   2.122  24.375  0.00  0.00    +0.210 HD
ENDBRANCH  34  35
BRANCH  34  37
ATOM     37  C   UNL     1       7.822   4.637  23.830  0.00  0.00    +0.257 C 
ATOM     38  O   UNL     1       7.313   5.521  23.142  0.00  0.00    -0.298 OA
ENDBRANCH  34  37
ENDBRANCH  31  34
ENDBRANCH  28  31
ENDBRANCH  27  28
ENDBRANCH  26  27
ENDBRANCH  11  26
TORSDOF 14
ENDMDL
MODEL 8
REMARK VINA RESULT:      -5.8      2.115      6.627
REMARK  Name = 
REMARK  14 active torsions:
REMARK  status: ('A' for Active; 'I' for Inactive)
REMARK    1  A    between atoms: C_3  and  O_31
REMARK    2  A    between atoms: C_4  and  O_30
REMARK    3  A    between atoms: C_6  and  C_7
REMARK    4  A    between atoms: C_8  and  O_20
REMARK    5  A    between atoms: C_12  and  O_19
REMARK    6  A    between atoms: C_14  and  O_18
REMARK    7  A    between atoms: O_20  and  C_21
REMARK    8  A    between atoms: C_21  and  C_22
REMARK    9  A    between atoms: C_22  and  C_23
REMARK   10  A    between atoms: C_22  and  O_29
REMARK   11  A    between atoms: C_23  and  C_24
REMARK   12  A    between atoms: C_23  and  O_28
REMARK   13  A    between atoms: C_24  and  C_25
REMARK   14  A    between atoms: C_24  and  O_27
REMARK                            x       y       z     vdW  Elec       q    Type
REMARK                         _______ _______ _______ _____ _____    ______ ____
ROOT
ATOM      1  C   UNL     1       8.325  -2.056  24.215  0.00  0.00    +0.181 A 
ATOM      2  O   UNL     1       8.115  -2.844  23.064  0.00  0.00    -0.451 OA
ATOM      3  C   UNL     1       7.264  -3.914  23.092  0.00  0.00    +0.147 A 
ATOM      4  C   UNL     1       6.782  -4.427  24.275  0.00  0.00    +0.109 A 
ATOM      5  C   UNL     1       5.940  -5.549  24.291  0.00  0.00    +0.135 A 
ATOM      6  C   UNL     1       5.576  -6.165  23.108  0.00  0.00    +0.091 A 
ATOM      7  C   UNL     1       6.066  -5.647  21.916  0.00  0.00    +0.124 A 
ATOM      8  C   UNL     1       7.196  -3.784  25.497  0.00  0.00    +0.238 A 
ATOM      9  O   UNL     1       6.944  -4.411  26.527  0.00  0.00    -0.283 OA
ATOM     10  C   UNL     1       6.902  -4.527  21.895  0.00  0.00    +0.092 A 
ATOM     11  C   UNL     1       7.850  -2.421  25.442  0.00  0.00    +0.211 A 
ENDROOT
BRANCH   1  13
ATOM     12  C   UNL     1      10.040  -0.170  24.660  0.00  0.00    +0.015 A 
ATOM     13  C   UNL     1       9.084  -0.800  23.841  0.00  0.00    +0.025 A 
ATOM     14  C   UNL     1       8.820  -0.171  22.597  0.00  0.00    +0.060 A 
ATOM     15  C   UNL     1       9.399   1.051  22.257  0.00  0.00    +0.159 A 
ATOM     16  C   UNL     1      10.253   1.697  23.134  0.00  0.00    +0.158 A 
ATOM     17  C   UNL     1      10.607   1.077  24.323  0.00  0.00    +0.050 A 
BRANCH  15  18
ATOM     18  O   UNL     1       9.101   1.627  21.053  0.00  0.00    -0.503 OA
ATOM     19  H   UNL     1       9.148   2.590  21.218  0.00  0.00    +0.292 HD
ENDBRANCH  15  18
BRANCH  16  20
ATOM     20  O   UNL     1      10.702   2.941  22.794  0.00  0.00    -0.503 OA
ATOM     21  H   UNL     1      10.303   3.181  21.939  0.00  0.00    +0.292 HD
ENDBRANCH  16  20
ENDBRANCH   1  13
BRANCH   5  22
ATOM     22  O   UNL     1       5.436  -6.098  25.442  0.00  0.00    -0.506 OA
ATOM     23  H   UNL     1       5.303  -7.062  25.280  0.00  0.00    +0.292 HD
ENDBRANCH   5  22
BRANCH   7  24
ATOM     24  O   UNL     1       5.731  -6.227  20.725  0.00  0.00    -0.507 OA
ATOM     25  H   UNL     1       6.063  -5.663  20.006  0.00  0.00    +0.292 HD
ENDBRANCH   7  24
BRANCH  11  26
ATOM     26  O   UNL     1       7.931  -1.618  26.605  0.00  0.00    -0.482 OA
BRANCH  26  27
ATOM     27  C   UNL     1       6.860  -0.656  26.693  0.00  0.00    +0.263 C 
BRANCH  27  28
ATOM     28  C   UNL     1       5.504  -1.015  26.085  0.00  0.00    +0.183 C 
BRANCH  28  29
ATOM     29  O   UNL     1       4.842   0.099  25.506  0.00  0.00    -0.386 OA
ATOM     30  H   UNL     1       5.166   0.897  25.963  0.00  0.00    +0.210 HD
ENDBRANCH  28  29
BRANCH  28  31
ATOM     31  C   UNL     1       4.571  -1.763  27.048  0.00  0.00    +0.182 C 
BRANCH  31  32
ATOM     32  O   UNL     1       5.286  -2.422  28.108  0.00  0.00    -0.386 OA
ATOM     33  H   UNL     1       5.734  -3.207  27.721  0.00  0.00    +0.210 HD
ENDBRANCH  31  32
BRANCH  31  34
ATOM     34  C   UNL     1       3.699  -2.795  26.308  0.00  0.00    +0.208 C 
BRANCH  34  35
ATOM     35  O   UNL     1       3.887  -2.654  24.899  0.00  0.00    -0.382 OA
ATOM     36  H   UNL     1       4.063  -1.702  24.752  0.00  0.00    +0.210 HD
ENDBRANCH  34  35
BRANCH  34  37
ATOM     37  C   UNL     1       2.213  -2.606  26.593  0.00  0.00    +0.257 C 
ATOM     38  O   UNL     1       1.520  -1.756  26.035  0.00  0.00    -0.298 OA
ENDBRANCH  34  37
ENDBRANCH  31  34
ENDBRANCH  28  31
ENDBRANCH  27  28
ENDBRANCH  26  27
ENDBRANCH  11  26
TORSDOF 14
ENDMDL
MODEL 9
REMARK VINA RESULT:      -5.8      2.322      5.833
REMARK  Name = 
REMARK  14 active torsions:
REMARK  status: ('A' for Active; 'I' for Inactive)
REMARK    1  A    between atoms: C_3  and  O_31
REMARK    2  A    between atoms: C_4  and  O_30
REMARK    3  A    between atoms: C_6  and  C_7
REMARK    4  A    between atoms: C_8  and  O_20
REMARK    5  A    between atoms: C_12  and  O_19
REMARK    6  A    between atoms: C_14  and  O_18
REMARK    7  A    between atoms: O_20  and  C_21
REMARK    8  A    between atoms: C_21  and  C_22
REMARK    9  A    between atoms: C_22  and  C_23
REMARK   10  A    between atoms: C_22  and  O_29
REMARK   11  A    between atoms: C_23  and  C_24
REMARK   12  A    between atoms: C_23  and  O_28
REMARK   13  A    between atoms: C_24  and  C_25
REMARK   14  A    between atoms: C_24  and  O_27
REMARK                            x       y       z     vdW  Elec       q    Type
REMARK                         _______ _______ _______ _____ _____    ______ ____
ROOT
ATOM      1  C   UNL     1       6.927  -2.758  24.913  0.00  0.00    +0.181 A 
ATOM      2  O   UNL     1       5.722  -2.356  25.529  0.00  0.00    -0.451 OA
ATOM      3  C   UNL     1       5.695  -1.296  26.391  0.00  0.00    +0.147 A 
ATOM      4  C   UNL     1       6.849  -0.742  26.897  0.00  0.00    +0.109 A 
ATOM      5  C   UNL     1       6.805   0.321  27.812  0.00  0.00    +0.135 A 
ATOM      6  C   UNL     1       5.590   0.837  28.224  0.00  0.00    +0.091 A 
ATOM      7  C   UNL     1       4.427   0.275  27.713  0.00  0.00    +0.124 A 
ATOM      8  C   UNL     1       8.104  -1.313  26.473  0.00  0.00    +0.238 A 
ATOM      9  O   UNL     1       9.086  -0.957  27.125  0.00  0.00    -0.283 OA
ATOM     10  C   UNL     1       4.467  -0.782  26.800  0.00  0.00    +0.092 A 
ATOM     11  C   UNL     1       8.137  -2.244  25.282  0.00  0.00    +0.211 A 
ENDROOT
BRANCH   1  13
ATOM     12  C   UNL     1       6.873  -3.545  22.448  0.00  0.00    +0.015 A 
ATOM     13  C   UNL     1       6.630  -3.761  23.818  0.00  0.00    +0.025 A 
ATOM     14  C   UNL     1       6.039  -5.006  24.155  0.00  0.00    +0.060 A 
ATOM     15  C   UNL     1       5.633  -5.914  23.178  0.00  0.00    +0.159 A 
ATOM     16  C   UNL     1       5.790  -5.621  21.834  0.00  0.00    +0.158 A 
ATOM     17  C   UNL     1       6.441  -4.455  21.461  0.00  0.00    +0.050 A 
BRANCH  15  18
ATOM     18  O   UNL     1       5.054  -7.093  23.552  0.00  0.00    -0.503 OA
ATOM     19  H   UNL     1       5.727  -7.776  23.355  0.00  0.00    +0.292 HD
ENDBRANCH  15  18
BRANCH  16  20
ATOM     20  O   UNL     1       5.274  -6.497  20.922  0.00  0.00    -0.503 OA
ATOM     21  H   UNL     1       4.475  -6.896  21.308  0.00  0.00    +0.292 HD
ENDBRANCH  16  20
ENDBRANCH   1  13
BRANCH   5  22
ATOM     22  O   UNL     1       7.926   0.904  28.345  0.00  0.00    -0.506 OA
ATOM     23  H   UNL     1       8.373   1.407  27.623  0.00  0.00    +0.292 HD
ENDBRANCH   5  22
BRANCH   7  24
ATOM     24  O   UNL     1       3.207   0.754  28.097  0.00  0.00    -0.507 OA
ATOM     25  H   UNL     1       3.102   0.597  29.051  0.00  0.00    +0.292 HD
ENDBRANCH   7  24
BRANCH  11  26
ATOM     26  O   UNL     1       9.360  -2.524  24.625  0.00  0.00    -0.482 OA
BRANCH  26  27
ATOM     27  C   UNL     1       9.898  -1.375  23.938  0.00  0.00    +0.263 C 
BRANCH  27  28
ATOM     28  C   UNL     1       9.156  -0.843  22.712  0.00  0.00    +0.183 C 
BRANCH  28  29
ATOM     29  O   UNL     1       9.941  -0.876  21.529  0.00  0.00    -0.386 OA
ATOM     30  H   UNL     1      10.487  -0.069  21.523  0.00  0.00    +0.210 HD
ENDBRANCH  28  29
BRANCH  28  31
ATOM     31  C   UNL     1       8.537   0.547  22.916  0.00  0.00    +0.182 C 
BRANCH  31  32
ATOM     32  O   UNL     1       7.171   0.483  23.361  0.00  0.00    -0.386 OA
ATOM     33  H   UNL     1       6.810  -0.390  23.088  0.00  0.00    +0.210 HD
ENDBRANCH  31  32
BRANCH  31  34
ATOM     34  C   UNL     1       8.612   1.397  21.634  0.00  0.00    +0.208 C 
BRANCH  34  35
ATOM     35  O   UNL     1       9.902   2.002  21.539  0.00  0.00    -0.382 OA
ATOM     36  H   UNL     1      10.165   1.914  20.599  0.00  0.00    +0.210 HD
ENDBRANCH  34  35
BRANCH  34  37
ATOM     37  C   UNL     1       7.579   2.519  21.623  0.00  0.00    +0.257 C 
ATOM     38  O   UNL     1       7.510   3.384  22.495  0.00  0.00    -0.298 OA
ENDBRANCH  34  37
ENDBRANCH  31  34
ENDBRANCH  28  31
ENDBRANCH  27  28
ENDBRANCH  26  27
ENDBRANCH  11  26
TORSDOF 14
ENDMDL
