MODEL 1
REMARK VINA RESULT:      -6.9      0.000      0.000
REMARK  Name = 
REMARK  25 active torsions:
REMARK  status: ('A' for Active; 'I' for Inactive)
REMARK    1  A    between atoms: C_1  and  O_2
REMARK    2  A    between atoms: O_2  and  C_3
REMARK    3  A    between atoms: C_4  and  O_64
REMARK    4  A    between atoms: C_7  and  C_9
REMARK    5  A    between atoms: C_10  and  O_36
REMARK    6  A    between atoms: C_14  and  O_35
REMARK    7  A    between atoms: C_16  and  O_20
REMARK    8  A    between atoms: O_20  and  C_21
REMARK    9  A    between atoms: C_23  and  O_34
REMARK   10  A    between atoms: C_24  and  O_33
REMARK   11  A    between atoms: C_26  and  O_32
REMARK   12  A    between atoms: C_28  and  C_30
REMARK   13  A    between atoms: C_30  and  O_31
REMARK   14  A    between atoms: O_36  and  C_37
REMARK   15  A    between atoms: C_39  and  O_63
REMARK   16  A    between atoms: C_40  and  O_62
REMARK   17  A    between atoms: C_41  and  O_61
REMARK   18  A    between atoms: C_43  and  C_45
REMARK   19  A    between atoms: C_45  and  O_46
REMARK   20  A    between atoms: O_46  and  C_47
REMARK   21  A    between atoms: C_49  and  O_60
REMARK   22  A    between atoms: C_50  and  O_59
REMARK   23  A    between atoms: C_52  and  O_58
REMARK   24  A    between atoms: C_54  and  C_56
REMARK   25  A    between atoms: C_56  and  O_57
REMARK                            x       y       z     vdW  Elec       q    Type
REMARK                         _______ _______ _______ _____ _____    ______ ____
ROOT
ATOM      1  C   UNL     1       4.205  -1.571  26.949  0.00  0.00    +0.181 A 
ATOM      2  O   UNL     1       3.737  -0.300  26.662  0.00  0.00    -0.451 OA
ATOM      3  C   UNL     1       4.658   0.684  26.403  0.00  0.00    +0.147 A 
ATOM      4  C   UNL     1       6.031   0.452  26.501  0.00  0.00    +0.109 A 
ATOM      5  C   UNL     1       6.890   1.534  26.305  0.00  0.00    +0.135 A 
ATOM      6  C   UNL     1       6.390   2.810  25.977  0.00  0.00    +0.092 A 
ATOM      7  C   UNL     1       5.019   3.016  25.798  0.00  0.00    +0.131 A 
ATOM      8  C   UNL     1       6.518  -0.925  26.784  0.00  0.00    +0.238 A 
ATOM      9  O   UNL     1       7.731  -1.161  26.827  0.00  0.00    -0.283 OA
ATOM     10  C   UNL     1       4.155   1.941  26.033  0.00  0.00    +0.093 A 
ATOM     11  C   UNL     1       5.494  -1.981  27.020  0.00  0.00    +0.214 A 
ENDROOT
BRANCH   1  14
ATOM     12  C   UNL     1       1.697  -4.340  26.644  0.00  0.00    +0.162 A 
ATOM     13  C   UNL     1       2.539  -3.288  26.286  0.00  0.00    +0.061 A 
ATOM     14  C   UNL     1       3.129  -2.505  27.280  0.00  0.00    +0.025 A 
ATOM     15  C   UNL     1       2.785  -2.704  28.628  0.00  0.00    +0.015 A 
ATOM     16  C   UNL     1       1.980  -3.778  28.988  0.00  0.00    +0.050 A 
ATOM     17  C   UNL     1       1.429  -4.580  27.998  0.00  0.00    +0.158 A 
BRANCH  12  19
ATOM     18  C   UNL     1       2.100  -5.317  24.559  0.00  0.00    +0.277 C 
ATOM     19  O   UNL     1       1.167  -5.046  25.601  0.00  0.00    -0.491 OA
ENDBRANCH  12  19
BRANCH  17  20
ATOM     20  O   UNL     1       0.585  -5.564  28.416  0.00  0.00    -0.503 OA
ATOM     21  H   UNL     1      -0.222  -5.450  27.888  0.00  0.00    +0.292 HD
ENDBRANCH  17  20
ENDBRANCH   1  14
BRANCH   5  22
ATOM     22  O   UNL     1       8.253   1.435  26.412  0.00  0.00    -0.506 OA
ATOM     23  H   UNL     1       8.649   1.679  25.543  0.00  0.00    +0.292 HD
ENDBRANCH   5  22
BRANCH   7  24
ATOM     24  O   UNL     1       4.418   4.193  25.404  0.00  0.00    -0.461 OA
BRANCH  24  25
ATOM     25  C   UNL     1       4.032   4.299  24.017  0.00  0.00    +0.339 C 
ATOM     26  O   UNL     1       5.169   4.197  23.155  0.00  0.00    -0.331 OA
ATOM     27  C   UNL     1       6.077   5.318  23.197  0.00  0.00    +0.179 C 
ATOM     28  C   UNL     1       5.355   6.650  22.899  0.00  0.00    +0.177 C 
ATOM     29  C   UNL     1       4.169   6.830  23.849  0.00  0.00    +0.180 C 
ATOM     30  C   UNL     1       3.251   5.609  23.744  0.00  0.00    +0.214 C 
BRANCH  30  31
ATOM     31  O   UNL     1       2.111   5.763  24.596  0.00  0.00    -0.383 OA
ATOM     32  H   UNL     1       1.364   6.047  24.037  0.00  0.00    +0.210 HD
ENDBRANCH  30  31
BRANCH  29  33
ATOM     33  O   UNL     1       4.589   7.051  25.199  0.00  0.00    -0.386 OA
ATOM     34  H   UNL     1       5.531   7.319  25.200  0.00  0.00    +0.210 HD
ENDBRANCH  29  33
BRANCH  28  35
ATOM     35  O   UNL     1       4.895   6.646  21.541  0.00  0.00    -0.386 OA
ATOM     36  H   UNL     1       4.717   7.560  21.258  0.00  0.00    +0.210 HD
ENDBRANCH  28  35
BRANCH  27  37
ATOM     37  C   UNL     1       7.180   5.072  22.148  0.00  0.00    +0.190 C 
BRANCH  37  38
ATOM     38  O   UNL     1       7.632   6.288  21.547  0.00  0.00    -0.392 OA
ATOM     39  H   UNL     1       8.600   6.310  21.596  0.00  0.00    +0.210 HD
ENDBRANCH  37  38
ENDBRANCH  27  37
ENDBRANCH  24  25
ENDBRANCH   7  24
BRANCH  11  40
ATOM     40  O   UNL     1       5.784  -3.328  27.243  0.00  0.00    -0.453 OA
BRANCH  40  41
ATOM     41  C   UNL     1       6.156  -4.273  26.220  0.00  0.00    +0.340 C 
ATOM     42  O   UNL     1       6.300  -3.561  24.960  0.00  0.00    -0.331 OA
ATOM     43  C   UNL     1       6.718  -4.382  23.852  0.00  0.00    +0.179 C 
ATOM     44  C   UNL     1       8.127  -4.921  24.138  0.00  0.00    +0.177 C 
ATOM     45  C   UNL     1       8.115  -5.702  25.457  0.00  0.00    +0.180 C 
ATOM     46  C   UNL     1       7.532  -4.866  26.608  0.00  0.00    +0.214 C 
BRANCH  46  47
ATOM     47  O   UNL     1       7.480  -5.665  27.797  0.00  0.00    -0.383 OA
ATOM     48  H   UNL     1       8.306  -5.521  28.304  0.00  0.00    +0.210 HD
ENDBRANCH  46  47
BRANCH  45  49
ATOM     49  O   UNL     1       9.454  -6.146  25.732  0.00  0.00    -0.386 OA
ATOM     50  H   UNL     1      10.076  -5.513  25.329  0.00  0.00    +0.210 HD
ENDBRANCH  45  49
BRANCH  44  51
ATOM     51  O   UNL     1       8.565  -5.748  23.054  0.00  0.00    -0.386 OA
ATOM     52  H   UNL     1       9.222  -5.249  22.534  0.00  0.00    +0.210 HD
ENDBRANCH  44  51
BRANCH  43  53
ATOM     53  C   UNL     1       6.735  -3.607  22.502  0.00  0.00    +0.197 C 
BRANCH  53  54
ATOM     54  O   UNL     1       7.825  -2.675  22.369  0.00  0.00    -0.346 OA
BRANCH  54  55
ATOM     55  C   UNL     1       8.059  -1.912  23.560  0.00  0.00    +0.282 C 
ATOM     56  O   UNL     1       7.447  -0.638  23.476  0.00  0.00    -0.341 OA
ATOM     57  C   UNL     1       7.931   0.141  22.372  0.00  0.00    +0.178 C 
ATOM     58  C   UNL     1       9.429   0.445  22.523  0.00  0.00    +0.177 C 
ATOM     59  C   UNL     1      10.215  -0.860  22.700  0.00  0.00    +0.179 C 
ATOM     60  C   UNL     1       9.576  -1.739  23.792  0.00  0.00    +0.201 C 
BRANCH  60  61
ATOM     61  O   UNL     1      10.243  -3.003  23.877  0.00  0.00    -0.384 OA
ATOM     62  H   UNL     1       9.911  -3.426  24.692  0.00  0.00    +0.210 HD
ENDBRANCH  60  61
BRANCH  59  63
ATOM     63  O   UNL     1      10.315  -1.551  21.445  0.00  0.00    -0.386 OA
ATOM     64  H   UNL     1      10.542  -2.483  21.627  0.00  0.00    +0.210 HD
ENDBRANCH  59  63
BRANCH  58  65
ATOM     65  O   UNL     1       9.637   1.299  23.657  0.00  0.00    -0.386 OA
ATOM     66  H   UNL     1       9.300   2.180  23.428  0.00  0.00    +0.210 HD
ENDBRANCH  58  65
BRANCH  57  67
ATOM     67  C   UNL     1       7.119   1.420  22.336  0.00  0.00    +0.190 C 
BRANCH  67  68
ATOM     68  O   UNL     1       5.826   1.274  22.901  0.00  0.00    -0.392 OA
ATOM     69  H   UNL     1       5.810   1.841  23.691  0.00  0.00    +0.210 HD
ENDBRANCH  67  68
ENDBRANCH  57  67
ENDBRANCH  54  55
ENDBRANCH  53  54
ENDBRANCH  43  53
ENDBRANCH  40  41
ENDBRANCH  11  40
TORSDOF 24
ENDMDL
MODEL 2
REMARK VINA RESULT:      -6.6      1.950      8.296
REMARK  Name = 
REMARK  25 active torsions:
REMARK  status: ('A' for Active; 'I' for Inactive)
REMARK    1  A    between atoms: C_1  and  O_2
REMARK    2  A    between atoms: O_2  and  C_3
REMARK    3  A    between atoms: C_4  and  O_64
REMARK    4  A    between atoms: C_7  and  C_9
REMARK    5  A    between atoms: C_10  and  O_36
REMARK    6  A    between atoms: C_14  and  O_35
REMARK    7  A    between atoms: C_16  and  O_20
REMARK    8  A    between atoms: O_20  and  C_21
REMARK    9  A    between atoms: C_23  and  O_34
REMARK   10  A    between atoms: C_24  and  O_33
REMARK   11  A    between atoms: C_26  and  O_32
REMARK   12  A    between atoms: C_28  and  C_30
REMARK   13  A    between atoms: C_30  and  O_31
REMARK   14  A    between atoms: O_36  and  C_37
REMARK   15  A    between atoms: C_39  and  O_63
REMARK   16  A    between atoms: C_40  and  O_62
REMARK   17  A    between atoms: C_41  and  O_61
REMARK   18  A    between atoms: C_43  and  C_45
REMARK   19  A    between atoms: C_45  and  O_46
REMARK   20  A    between atoms: O_46  and  C_47
REMARK   21  A    between atoms: C_49  and  O_60
REMARK   22  A    between atoms: C_50  and  O_59
REMARK   23  A    between atoms: C_52  and  O_58
REMARK   24  A    between atoms: C_54  and  C_56
REMARK   25  A    between atoms: C_56  and  O_57
REMARK                            x       y       z     vdW  Elec       q    Type
REMARK                         _______ _______ _______ _____ _____    ______ ____
ROOT
ATOM      1  C   UNL     1       4.380   1.544  26.349  0.00  0.00    +0.181 A 
ATOM      2  O   UNL     1       4.019   0.209  26.412  0.00  0.00    -0.451 OA
ATOM      3  C   UNL     1       5.014  -0.722  26.575  0.00  0.00    +0.147 A 
ATOM      4  C   UNL     1       6.363  -0.362  26.596  0.00  0.00    +0.109 A 
ATOM      5  C   UNL     1       7.308  -1.385  26.679  0.00  0.00    +0.135 A 
ATOM      6  C   UNL     1       6.914  -2.734  26.781  0.00  0.00    +0.092 A 
ATOM      7  C   UNL     1       5.561  -3.081  26.844  0.00  0.00    +0.131 A 
ATOM      8  C   UNL     1       6.732   1.078  26.553  0.00  0.00    +0.238 A 
ATOM      9  O   UNL     1       7.918   1.420  26.620  0.00  0.00    -0.283 OA
ATOM     10  C   UNL     1       4.613  -2.059  26.721  0.00  0.00    +0.093 A 
ATOM     11  C   UNL     1       5.627   2.068  26.418  0.00  0.00    +0.214 A 
ENDROOT
BRANCH   1  14
ATOM     12  C   UNL     1       1.543   3.924  26.933  0.00  0.00    +0.162 A 
ATOM     13  C   UNL     1       2.465   2.902  27.157  0.00  0.00    +0.061 A 
ATOM     14  C   UNL     1       3.238   2.424  26.097  0.00  0.00    +0.025 A 
ATOM     15  C   UNL     1       3.006   2.890  24.792  0.00  0.00    +0.015 A 
ATOM     16  C   UNL     1       2.118   3.936  24.576  0.00  0.00    +0.050 A 
ATOM     17  C   UNL     1       1.383   4.438  25.640  0.00  0.00    +0.158 A 
BRANCH  12  19
ATOM     18  C   UNL     1       1.566   5.173  28.909  0.00  0.00    +0.277 C 
ATOM     19  O   UNL     1       0.834   4.323  28.031  0.00  0.00    -0.491 OA
ENDBRANCH  12  19
BRANCH  17  20
ATOM     20  O   UNL     1       0.473   5.407  25.343  0.00  0.00    -0.503 OA
ATOM     21  H   UNL     1       0.021   5.600  26.181  0.00  0.00    +0.292 HD
ENDBRANCH  17  20
ENDBRANCH   1  14
BRANCH   5  22
ATOM     22  O   UNL     1       8.659  -1.156  26.671  0.00  0.00    -0.506 OA
ATOM     23  H   UNL     1       9.118  -2.003  26.877  0.00  0.00    +0.292 HD
ENDBRANCH   5  22
BRANCH   7  24
ATOM     24  O   UNL     1       5.055  -4.351  27.018  0.00  0.00    -0.461 OA
BRANCH  24  25
ATOM     25  C   UNL     1       5.711  -5.421  26.306  0.00  0.00    +0.339 C 
ATOM     26  O   UNL     1       5.821  -5.121  24.911  0.00  0.00    -0.331 OA
ATOM     27  C   UNL     1       4.577  -5.126  24.179  0.00  0.00    +0.179 C 
ATOM     28  C   UNL     1       3.828  -6.468  24.334  0.00  0.00    +0.177 C 
ATOM     29  C   UNL     1       3.629  -6.792  25.816  0.00  0.00    +0.180 C 
ATOM     30  C   UNL     1       4.988  -6.774  26.522  0.00  0.00    +0.214 C 
BRANCH  30  31
ATOM     31  O   UNL     1       4.840  -7.109  27.906  0.00  0.00    -0.383 OA
ATOM     32  H   UNL     1       3.886  -7.091  28.111  0.00  0.00    +0.210 HD
ENDBRANCH  30  31
BRANCH  29  33
ATOM     33  O   UNL     1       2.705  -5.896  26.444  0.00  0.00    -0.386 OA
ATOM     34  H   UNL     1       3.201  -5.280  27.021  0.00  0.00    +0.210 HD
ENDBRANCH  29  33
BRANCH  28  35
ATOM     35  O   UNL     1       4.586  -7.510  23.706  0.00  0.00    -0.386 OA
ATOM     36  H   UNL     1       5.188  -7.909  24.358  0.00  0.00    +0.210 HD
ENDBRANCH  28  35
BRANCH  27  37
ATOM     37  C   UNL     1       4.901  -4.875  22.693  0.00  0.00    +0.190 C 
BRANCH  37  38
ATOM     38  O   UNL     1       6.139  -5.472  22.304  0.00  0.00    -0.392 OA
ATOM     39  H   UNL     1       5.944  -6.268  21.787  0.00  0.00    +0.210 HD
ENDBRANCH  37  38
ENDBRANCH  27  37
ENDBRANCH  24  25
ENDBRANCH   7  24
BRANCH  11  40
ATOM     40  O   UNL     1       5.800   3.453  26.418  0.00  0.00    -0.453 OA
BRANCH  40  41
ATOM     41  C   UNL     1       6.495   4.198  25.398  0.00  0.00    +0.340 C 
ATOM     42  O   UNL     1       6.681   3.339  24.239  0.00  0.00    -0.331 OA
ATOM     43  C   UNL     1       7.327   3.974  23.118  0.00  0.00    +0.179 C 
ATOM     44  C   UNL     1       6.424   5.104  22.603  0.00  0.00    +0.177 C 
ATOM     45  C   UNL     1       6.145   6.093  23.741  0.00  0.00    +0.180 C 
ATOM     46  C   UNL     1       5.591   5.386  24.988  0.00  0.00    +0.214 C 
BRANCH  46  47
ATOM     47  O   UNL     1       5.416   6.343  26.039  0.00  0.00    -0.383 OA
ATOM     48  H   UNL     1       4.456   6.488  26.171  0.00  0.00    +0.210 HD
ENDBRANCH  46  47
BRANCH  45  49
ATOM     49  O   UNL     1       5.253   7.108  23.250  0.00  0.00    -0.386 OA
ATOM     50  H   UNL     1       5.771   7.742  22.721  0.00  0.00    +0.210 HD
ENDBRANCH  45  49
BRANCH  44  51
ATOM     51  O   UNL     1       7.045   5.760  21.491  0.00  0.00    -0.386 OA
ATOM     52  H   UNL     1       6.411   6.401  21.120  0.00  0.00    +0.210 HD
ENDBRANCH  44  51
BRANCH  43  53
ATOM     53  C   UNL     1       7.618   2.985  21.953  0.00  0.00    +0.197 C 
BRANCH  53  54
ATOM     54  O   UNL     1       7.826   1.623  22.369  0.00  0.00    -0.346 OA
BRANCH  54  55
ATOM     55  C   UNL     1       8.769   0.923  21.547  0.00  0.00    +0.282 C 
ATOM     56  O   UNL     1       8.423  -0.445  21.429  0.00  0.00    -0.341 OA
ATOM     57  C   UNL     1       8.382  -1.120  22.695  0.00  0.00    +0.178 C 
ATOM     58  C   UNL     1       9.765  -1.131  23.363  0.00  0.00    +0.177 C 
ATOM     59  C   UNL     1      10.300   0.301  23.488  0.00  0.00    +0.179 C 
ATOM     60  C   UNL     1      10.188   1.044  22.143  0.00  0.00    +0.201 C 
BRANCH  60  61
ATOM     61  O   UNL     1      10.583   2.413  22.288  0.00  0.00    -0.384 OA
ATOM     62  H   UNL     1      11.473   2.478  21.894  0.00  0.00    +0.210 HD
ENDBRANCH  60  61
BRANCH  59  63
ATOM     63  O   UNL     1       9.615   0.994  24.542  0.00  0.00    -0.386 OA
ATOM     64  H   UNL     1       9.794   1.950  24.447  0.00  0.00    +0.210 HD
ENDBRANCH  59  63
BRANCH  58  65
ATOM     65  O   UNL     1      10.671  -1.926  22.585  0.00  0.00    -0.386 OA
ATOM     66  H   UNL     1      10.140  -2.483  21.992  0.00  0.00    +0.210 HD
ENDBRANCH  58  65
BRANCH  57  67
ATOM     67  C   UNL     1       7.894  -2.532  22.435  0.00  0.00    +0.190 C 
BRANCH  67  68
ATOM     68  O   UNL     1       8.099  -3.403  23.537  0.00  0.00    -0.392 OA
ATOM     69  H   UNL     1       7.221  -3.556  23.927  0.00  0.00    +0.210 HD
ENDBRANCH  67  68
ENDBRANCH  57  67
ENDBRANCH  54  55
ENDBRANCH  53  54
ENDBRANCH  43  53
ENDBRANCH  40  41
ENDBRANCH  11  40
TORSDOF 24
ENDMDL
MODEL 3
REMARK VINA RESULT:      -6.4      2.152      4.026
REMARK  Name = 
REMARK  25 active torsions:
REMARK  status: ('A' for Active; 'I' for Inactive)
REMARK    1  A    between atoms: C_1  and  O_2
REMARK    2  A    between atoms: O_2  and  C_3
REMARK    3  A    between atoms: C_4  and  O_64
REMARK    4  A    between atoms: C_7  and  C_9
REMARK    5  A    between atoms: C_10  and  O_36
REMARK    6  A    between atoms: C_14  and  O_35
REMARK    7  A    between atoms: C_16  and  O_20
REMARK    8  A    between atoms: O_20  and  C_21
REMARK    9  A    between atoms: C_23  and  O_34
REMARK   10  A    between atoms: C_24  and  O_33
REMARK   11  A    between atoms: C_26  and  O_32
REMARK   12  A    between atoms: C_28  and  C_30
REMARK   13  A    between atoms: C_30  and  O_31
REMARK   14  A    between atoms: O_36  and  C_37
REMARK   15  A    between atoms: C_39  and  O_63
REMARK   16  A    between atoms: C_40  and  O_62
REMARK   17  A    between atoms: C_41  and  O_61
REMARK   18  A    between atoms: C_43  and  C_45
REMARK   19  A    between atoms: C_45  and  O_46
REMARK   20  A    between atoms: O_46  and  C_47
REMARK   21  A    between atoms: C_49  and  O_60
REMARK   22  A    between atoms: C_50  and  O_59
REMARK   23  A    between atoms: C_52  and  O_58
REMARK   24  A    between atoms: C_54  and  C_56
REMARK   25  A    between atoms: C_56  and  O_57
REMARK                            x       y       z     vdW  Elec       q    Type
REMARK                         _______ _______ _______ _____ _____    ______ ____
ROOT
ATOM      1  C   UNL     1       3.841  -2.450  25.844  0.00  0.00    +0.181 A 
ATOM      2  O   UNL     1       4.486  -1.348  25.310  0.00  0.00    -0.451 OA
ATOM      3  C   UNL     1       4.721  -0.275  26.134  0.00  0.00    +0.147 A 
ATOM      4  C   UNL     1       4.258  -0.243  27.451  0.00  0.00    +0.109 A 
ATOM      5  C   UNL     1       4.467   0.924  28.186  0.00  0.00    +0.135 A 
ATOM      6  C   UNL     1       5.161   2.019  27.632  0.00  0.00    +0.092 A 
ATOM      7  C   UNL     1       5.695   1.948  26.342  0.00  0.00    +0.131 A 
ATOM      8  C   UNL     1       3.589  -1.445  28.017  0.00  0.00    +0.238 A 
ATOM      9  O   UNL     1       3.215  -1.455  29.195  0.00  0.00    -0.283 OA
ATOM     10  C   UNL     1       5.452   0.793  25.591  0.00  0.00    +0.093 A 
ATOM     11  C   UNL     1       3.386  -2.610  27.109  0.00  0.00    +0.214 A 
ENDROOT
BRANCH   1  14
ATOM     12  C   UNL     1       4.374  -5.356  23.536  0.00  0.00    +0.162 A 
ATOM     13  C   UNL     1       4.641  -4.214  24.291  0.00  0.00    +0.061 A 
ATOM     14  C   UNL     1       3.585  -3.489  24.846  0.00  0.00    +0.025 A 
ATOM     15  C   UNL     1       2.258  -3.842  24.548  0.00  0.00    +0.015 A 
ATOM     16  C   UNL     1       1.992  -5.002  23.832  0.00  0.00    +0.050 A 
ATOM     17  C   UNL     1       3.046  -5.744  23.318  0.00  0.00    +0.158 A 
BRANCH  12  19
ATOM     18  C   UNL     1       5.766  -5.656  21.683  0.00  0.00    +0.277 C 
ATOM     19  O   UNL     1       5.472  -5.996  23.035  0.00  0.00    -0.491 OA
ENDBRANCH  12  19
BRANCH  17  20
ATOM     20  O   UNL     1       2.712  -6.823  22.557  0.00  0.00    -0.503 OA
ATOM     21  H   UNL     1       1.768  -6.976  22.730  0.00  0.00    +0.292 HD
ENDBRANCH  17  20
ENDBRANCH   1  14
BRANCH   5  22
ATOM     22  O   UNL     1       4.026   1.085  29.473  0.00  0.00    -0.506 OA
ATOM     23  H   UNL     1       4.321   1.969  29.793  0.00  0.00    +0.292 HD
ENDBRANCH   5  22
BRANCH   7  24
ATOM     24  O   UNL     1       6.454   2.918  25.722  0.00  0.00    -0.461 OA
BRANCH  24  25
ATOM     25  C   UNL     1       6.225   3.124  24.312  0.00  0.00    +0.339 C 
ATOM     26  O   UNL     1       7.336   2.664  23.536  0.00  0.00    -0.331 OA
ATOM     27  C   UNL     1       8.542   3.446  23.661  0.00  0.00    +0.179 C 
ATOM     28  C   UNL     1       8.296   4.934  23.328  0.00  0.00    +0.177 C 
ATOM     29  C   UNL     1       7.157   5.484  24.189  0.00  0.00    +0.180 C 
ATOM     30  C   UNL     1       5.915   4.610  23.999  0.00  0.00    +0.214 C 
BRANCH  30  31
ATOM     31  O   UNL     1       4.819   5.120  24.766  0.00  0.00    -0.383 OA
ATOM     32  H   UNL     1       5.193   5.658  25.489  0.00  0.00    +0.210 HD
ENDBRANCH  30  31
BRANCH  29  33
ATOM     33  O   UNL     1       7.522   5.577  25.570  0.00  0.00    -0.386 OA
ATOM     34  H   UNL     1       7.046   4.885  26.072  0.00  0.00    +0.210 HD
ENDBRANCH  29  33
BRANCH  28  35
ATOM     35  O   UNL     1       7.961   5.060  21.939  0.00  0.00    -0.386 OA
ATOM     36  H   UNL     1       8.417   4.366  21.433  0.00  0.00    +0.210 HD
ENDBRANCH  28  35
BRANCH  27  37
ATOM     37  C   UNL     1       9.590   2.859  22.694  0.00  0.00    +0.190 C 
BRANCH  37  38
ATOM     38  O   UNL     1       8.985   2.242  21.556  0.00  0.00    -0.392 OA
ATOM     39  H   UNL     1       8.964   2.889  20.834  0.00  0.00    +0.210 HD
ENDBRANCH  37  38
ENDBRANCH  27  37
ENDBRANCH  24  25
ENDBRANCH   7  24
BRANCH  11  40
ATOM     40  O   UNL     1       2.827  -3.828  27.499  0.00  0.00    -0.453 OA
BRANCH  40  41
ATOM     41  C   UNL     1       3.537  -5.081  27.559  0.00  0.00    +0.340 C 
ATOM     42  O   UNL     1       4.965  -4.809  27.514  0.00  0.00    -0.331 OA
ATOM     43  C   UNL     1       5.802  -5.978  27.613  0.00  0.00    +0.179 C 
ATOM     44  C   UNL     1       5.589  -6.624  28.989  0.00  0.00    +0.177 C 
ATOM     45  C   UNL     1       4.105  -6.964  29.169  0.00  0.00    +0.180 C 
ATOM     46  C   UNL     1       3.206  -5.742  28.918  0.00  0.00    +0.214 C 
BRANCH  46  47
ATOM     47  O   UNL     1       1.832  -6.132  29.030  0.00  0.00    -0.383 OA
ATOM     48  H   UNL     1       1.788  -7.110  29.066  0.00  0.00    +0.210 HD
ENDBRANCH  46  47
BRANCH  45  49
ATOM     49  O   UNL     1       3.923  -7.513  30.484  0.00  0.00    -0.386 OA
ATOM     50  H   UNL     1       3.724  -6.782  31.097  0.00  0.00    +0.210 HD
ENDBRANCH  45  49
BRANCH  44  51
ATOM     51  O   UNL     1       6.405  -7.794  29.113  0.00  0.00    -0.386 OA
ATOM     52  H   UNL     1       6.729  -7.847  30.032  0.00  0.00    +0.210 HD
ENDBRANCH  44  51
BRANCH  43  53
ATOM     53  C   UNL     1       7.313  -5.652  27.433  0.00  0.00    +0.197 C 
BRANCH  53  54
ATOM     54  O   UNL     1       7.590  -4.662  26.424  0.00  0.00    -0.346 OA
BRANCH  54  55
ATOM     55  C   UNL     1       8.943  -4.188  26.462  0.00  0.00    +0.282 C 
ATOM     56  O   UNL     1       8.997  -2.842  26.897  0.00  0.00    -0.341 OA
ATOM     57  C   UNL     1       8.259  -1.952  26.047  0.00  0.00    +0.178 C 
ATOM     58  C   UNL     1       8.850  -1.920  24.630  0.00  0.00    +0.177 C 
ATOM     59  C   UNL     1       8.921  -3.341  24.058  0.00  0.00    +0.179 C 
ATOM     60  C   UNL     1       9.586  -4.302  25.062  0.00  0.00    +0.201 C 
BRANCH  60  61
ATOM     61  O   UNL     1       9.549  -5.648  24.574  0.00  0.00    -0.384 OA
ATOM     62  H   UNL     1       9.860  -6.208  25.311  0.00  0.00    +0.210 HD
ENDBRANCH  60  61
BRANCH  59  63
ATOM     63  O   UNL     1       7.610  -3.786  23.677  0.00  0.00    -0.386 OA
ATOM     64  H   UNL     1       7.695  -4.661  23.251  0.00  0.00    +0.210 HD
ENDBRANCH  59  63
BRANCH  58  65
ATOM     65  O   UNL     1      10.163  -1.342  24.667  0.00  0.00    -0.386 OA
ATOM     66  H   UNL     1      10.112  -0.467  24.250  0.00  0.00    +0.210 HD
ENDBRANCH  58  65
BRANCH  57  67
ATOM     67  C   UNL     1       8.308  -0.578  26.686  0.00  0.00    +0.190 C 
BRANCH  67  68
ATOM     68  O   UNL     1       9.403  -0.417  27.574  0.00  0.00    -0.392 OA
ATOM     69  H   UNL     1       9.285  -1.085  28.272  0.00  0.00    +0.210 HD
ENDBRANCH  67  68
ENDBRANCH  57  67
ENDBRANCH  54  55
ENDBRANCH  53  54
ENDBRANCH  43  53
ENDBRANCH  40  41
ENDBRANCH  11  40
TORSDOF 24
ENDMDL
MODEL 4
REMARK VINA RESULT:      -6.4      1.989      8.432
REMARK  Name = 
REMARK  25 active torsions:
REMARK  status: ('A' for Active; 'I' for Inactive)
REMARK    1  A    between atoms: C_1  and  O_2
REMARK    2  A    between atoms: O_2  and  C_3
REMARK    3  A    between atoms: C_4  and  O_64
REMARK    4  A    between atoms: C_7  and  C_9
REMARK    5  A    between atoms: C_10  and  O_36
REMARK    6  A    between atoms: C_14  and  O_35
REMARK    7  A    between atoms: C_16  and  O_20
REMARK    8  A    between atoms: O_20  and  C_21
REMARK    9  A    between atoms: C_23  and  O_34
REMARK   10  A    between atoms: C_24  and  O_33
REMARK   11  A    between atoms: C_26  and  O_32
REMARK   12  A    between atoms: C_28  and  C_30
REMARK   13  A    between atoms: C_30  and  O_31
REMARK   14  A    between atoms: O_36  and  C_37
REMARK   15  A    between atoms: C_39  and  O_63
REMARK   16  A    between atoms: C_40  and  O_62
REMARK   17  A    between atoms: C_41  and  O_61
REMARK   18  A    between atoms: C_43  and  C_45
REMARK   19  A    between atoms: C_45  and  O_46
REMARK   20  A    between atoms: O_46  and  C_47
REMARK   21  A    between atoms: C_49  and  O_60
REMARK   22  A    between atoms: C_50  and  O_59
REMARK   23  A    between atoms: C_52  and  O_58
REMARK   24  A    between atoms: C_54  and  C_56
REMARK   25  A    between atoms: C_56  and  O_57
REMARK                            x       y       z     vdW  Elec       q    Type
REMARK                         _______ _______ _______ _____ _____    ______ ____
ROOT
ATOM      1  C   UNL     1       4.897   0.869  26.271  0.00  0.00    +0.181 A 
ATOM      2  O   UNL     1       4.328  -0.365  26.007  0.00  0.00    -0.451 OA
ATOM      3  C   UNL     1       5.144  -1.468  26.019  0.00  0.00    +0.147 A 
ATOM      4  C   UNL     1       6.524  -1.362  26.206  0.00  0.00    +0.109 A 
ATOM      5  C   UNL     1       7.285  -2.527  26.115  0.00  0.00    +0.135 A 
ATOM      6  C   UNL     1       6.678  -3.777  25.884  0.00  0.00    +0.092 A 
ATOM      7  C   UNL     1       5.288  -3.889  25.781  0.00  0.00    +0.131 A 
ATOM      8  C   UNL     1       7.115  -0.031  26.513  0.00  0.00    +0.238 A 
ATOM      9  O   UNL     1       8.327   0.077  26.731  0.00  0.00    -0.283 OA
ATOM     10  C   UNL     1       4.528  -2.715  25.834  0.00  0.00    +0.093 A 
ATOM     11  C   UNL     1       6.196   1.142  26.535  0.00  0.00    +0.214 A 
ENDROOT
BRANCH   1  14
ATOM     12  C   UNL     1       2.610   3.430  24.766  0.00  0.00    +0.162 A 
ATOM     13  C   UNL     1       3.693   2.565  24.914  0.00  0.00    +0.061 A 
ATOM     14  C   UNL     1       3.936   1.967  26.152  0.00  0.00    +0.025 A 
ATOM     15  C   UNL     1       3.163   2.325  27.269  0.00  0.00    +0.015 A 
ATOM     16  C   UNL     1       2.059   3.154  27.113  0.00  0.00    +0.050 A 
ATOM     17  C   UNL     1       1.796   3.713  25.870  0.00  0.00    +0.158 A 
BRANCH  12  19
ATOM     18  C   UNL     1       3.413   3.499  22.572  0.00  0.00    +0.277 C 
ATOM     19  O   UNL     1       2.456   3.967  23.518  0.00  0.00    -0.491 OA
ENDBRANCH  12  19
BRANCH  17  20
ATOM     20  O   UNL     1       0.747   4.580  25.807  0.00  0.00    -0.503 OA
ATOM     21  H   UNL     1       0.135   4.194  25.159  0.00  0.00    +0.292 HD
ENDBRANCH  17  20
ENDBRANCH   1  14
BRANCH   5  22
ATOM     22  O   UNL     1       8.650  -2.540  26.245  0.00  0.00    -0.506 OA
ATOM     23  H   UNL     1       9.041  -2.766  25.370  0.00  0.00    +0.292 HD
ENDBRANCH   5  22
BRANCH   7  24
ATOM     24  O   UNL     1       4.575  -5.059  25.632  0.00  0.00    -0.461 OA
BRANCH  24  25
ATOM     25  C   UNL     1       3.160  -4.935  25.373  0.00  0.00    +0.339 C 
ATOM     26  O   UNL     1       2.390  -5.552  26.409  0.00  0.00    -0.331 OA
ATOM     27  C   UNL     1       2.460  -6.993  26.455  0.00  0.00    +0.179 C 
ATOM     28  C   UNL     1       2.062  -7.628  25.104  0.00  0.00    +0.177 C 
ATOM     29  C   UNL     1       2.914  -7.043  23.976  0.00  0.00    +0.180 C 
ATOM     30  C   UNL     1       2.785  -5.518  23.988  0.00  0.00    +0.214 C 
BRANCH  30  31
ATOM     31  O   UNL     1       3.543  -4.941  22.919  0.00  0.00    -0.383 OA
ATOM     32  H   UNL     1       4.006  -5.668  22.462  0.00  0.00    +0.210 HD
ENDBRANCH  30  31
BRANCH  29  33
ATOM     33  O   UNL     1       4.284  -7.449  24.069  0.00  0.00    -0.386 OA
ATOM     34  H   UNL     1       4.795  -6.744  24.516  0.00  0.00    +0.210 HD
ENDBRANCH  29  33
BRANCH  28  35
ATOM     35  O   UNL     1       0.675  -7.372  24.850  0.00  0.00    -0.386 OA
ATOM     36  H   UNL     1       0.585  -6.883  24.013  0.00  0.00    +0.210 HD
ENDBRANCH  28  35
BRANCH  27  37
ATOM     37  C   UNL     1       1.505  -7.478  27.564  0.00  0.00    +0.190 C 
BRANCH  37  38
ATOM     38  O   UNL     1       1.185  -8.864  27.431  0.00  0.00    -0.392 OA
ATOM     39  H   UNL     1       1.991  -9.380  27.589  0.00  0.00    +0.210 HD
ENDBRANCH  37  38
ENDBRANCH  27  37
ENDBRANCH  24  25
ENDBRANCH   7  24
BRANCH  11  40
ATOM     40  O   UNL     1       6.583   2.443  26.859  0.00  0.00    -0.453 OA
BRANCH  40  41
ATOM     41  C   UNL     1       7.209   3.369  25.949  0.00  0.00    +0.340 C 
ATOM     42  O   UNL     1       7.204   2.787  24.616  0.00  0.00    -0.331 OA
ATOM     43  C   UNL     1       7.763   3.631  23.591  0.00  0.00    +0.179 C 
ATOM     44  C   UNL     1       6.889   4.886  23.453  0.00  0.00    +0.177 C 
ATOM     45  C   UNL     1       6.810   5.603  24.805  0.00  0.00    +0.180 C 
ATOM     46  C   UNL     1       6.351   4.656  25.926  0.00  0.00    +0.214 C 
BRANCH  46  47
ATOM     47  O   UNL     1       6.361   5.357  27.175  0.00  0.00    -0.383 OA
ATOM     48  H   UNL     1       7.000   4.917  27.773  0.00  0.00    +0.210 HD
ENDBRANCH  46  47
BRANCH  45  49
ATOM     49  O   UNL     1       5.942   6.740  24.664  0.00  0.00    -0.386 OA
ATOM     50  H   UNL     1       6.407   7.526  25.005  0.00  0.00    +0.210 HD
ENDBRANCH  45  49
BRANCH  44  51
ATOM     51  O   UNL     1       7.426   5.749  22.443  0.00  0.00    -0.386 OA
ATOM     52  H   UNL     1       6.819   6.504  22.329  0.00  0.00    +0.210 HD
ENDBRANCH  44  51
BRANCH  43  53
ATOM     53  C   UNL     1       7.852   2.920  22.209  0.00  0.00    +0.197 C 
BRANCH  53  54
ATOM     54  O   UNL     1       7.764   1.484  22.275  0.00  0.00    -0.346 OA
BRANCH  54  55
ATOM     55  C   UNL     1       8.706   0.826  21.418  0.00  0.00    +0.282 C 
ATOM     56  O   UNL     1       8.455  -0.567  21.364  0.00  0.00    -0.341 OA
ATOM     57  C   UNL     1       8.539  -1.198  22.651  0.00  0.00    +0.178 C 
ATOM     58  C   UNL     1       9.957  -1.086  23.232  0.00  0.00    +0.177 C 
ATOM     59  C   UNL     1      10.391   0.384  23.278  0.00  0.00    +0.179 C 
ATOM     60  C   UNL     1      10.145   1.070  21.921  0.00  0.00    +0.201 C 
BRANCH  60  61
ATOM     61  O   UNL     1      10.445   2.468  21.999  0.00  0.00    -0.384 OA
ATOM     62  H   UNL     1       9.940   2.808  22.762  0.00  0.00    +0.210 HD
ENDBRANCH  60  61
BRANCH  59  63
ATOM     63  O   UNL     1       9.721   1.063  24.351  0.00  0.00    -0.386 OA
ATOM     64  H   UNL     1       8.797   1.229  24.079  0.00  0.00    +0.210 HD
ENDBRANCH  59  63
BRANCH  58  65
ATOM     65  O   UNL     1      10.871  -1.841  22.424  0.00  0.00    -0.386 OA
ATOM     66  H   UNL     1      11.771  -1.627  22.719  0.00  0.00    +0.210 HD
ENDBRANCH  58  65
BRANCH  57  67
ATOM     67  C   UNL     1       8.142  -2.649  22.465  0.00  0.00    +0.190 C 
BRANCH  67  68
ATOM     68  O   UNL     1       8.882  -3.538  23.288  0.00  0.00    -0.392 OA
ATOM     69  H   UNL     1       9.073  -4.319  22.740  0.00  0.00    +0.210 HD
ENDBRANCH  67  68
ENDBRANCH  57  67
ENDBRANCH  54  55
ENDBRANCH  53  54
ENDBRANCH  43  53
ENDBRANCH  40  41
ENDBRANCH  11  40
TORSDOF 24
ENDMDL
MODEL 5
REMARK VINA RESULT:      -6.4      2.241      4.266
REMARK  Name = 
REMARK  25 active torsions:
REMARK  status: ('A' for Active; 'I' for Inactive)
REMARK    1  A    between atoms: C_1  and  O_2
REMARK    2  A    between atoms: O_2  and  C_3
REMARK    3  A    between atoms: C_4  and  O_64
REMARK    4  A    between atoms: C_7  and  C_9
REMARK    5  A    between atoms: C_10  and  O_36
REMARK    6  A    between atoms: C_14  and  O_35
REMARK    7  A    between atoms: C_16  and  O_20
REMARK    8  A    between atoms: O_20  and  C_21
REMARK    9  A    between atoms: C_23  and  O_34
REMARK   10  A    between atoms: C_24  and  O_33
REMARK   11  A    between atoms: C_26  and  O_32
REMARK   12  A    between atoms: C_28  and  C_30
REMARK   13  A    between atoms: C_30  and  O_31
REMARK   14  A    between atoms: O_36  and  C_37
REMARK   15  A    between atoms: C_39  and  O_63
REMARK   16  A    between atoms: C_40  and  O_62
REMARK   17  A    between atoms: C_41  and  O_61
REMARK   18  A    between atoms: C_43  and  C_45
REMARK   19  A    between atoms: C_45  and  O_46
REMARK   20  A    between atoms: O_46  and  C_47
REMARK   21  A    between atoms: C_49  and  O_60
REMARK   22  A    between atoms: C_50  and  O_59
REMARK   23  A    between atoms: C_52  and  O_58
REMARK   24  A    between atoms: C_54  and  C_56
REMARK   25  A    between atoms: C_56  and  O_57
REMARK                            x       y       z     vdW  Elec       q    Type
REMARK                         _______ _______ _______ _____ _____    ______ ____
ROOT
ATOM      1  C   UNL     1       3.705  -1.901  26.341  0.00  0.00    +0.181 A 
ATOM      2  O   UNL     1       4.292  -0.880  25.614  0.00  0.00    -0.451 OA
ATOM      3  C   UNL     1       5.008   0.071  26.297  0.00  0.00    +0.147 A 
ATOM      4  C   UNL     1       5.084   0.074  27.692  0.00  0.00    +0.109 A 
ATOM      5  C   UNL     1       5.761   1.129  28.305  0.00  0.00    +0.135 A 
ATOM      6  C   UNL     1       6.384   2.135  27.540  0.00  0.00    +0.092 A 
ATOM      7  C   UNL     1       6.376   2.081  26.143  0.00  0.00    +0.131 A 
ATOM      8  C   UNL     1       4.469  -1.044  28.456  0.00  0.00    +0.238 A 
ATOM      9  O   UNL     1       4.567  -1.086  29.688  0.00  0.00    -0.283 OA
ATOM     10  C   UNL     1       5.664   1.045  25.529  0.00  0.00    +0.093 A 
ATOM     11  C   UNL     1       3.734  -2.084  27.682  0.00  0.00    +0.214 A 
ENDROOT
BRANCH   1  14
ATOM     12  C   UNL     1       2.782  -4.739  24.073  0.00  0.00    +0.162 A 
ATOM     13  C   UNL     1       3.536  -3.731  24.671  0.00  0.00    +0.061 A 
ATOM     14  C   UNL     1       2.910  -2.801  25.504  0.00  0.00    +0.025 A 
ATOM     15  C   UNL     1       1.512  -2.813  25.645  0.00  0.00    +0.015 A 
ATOM     16  C   UNL     1       0.766  -3.841  25.083  0.00  0.00    +0.050 A 
ATOM     17  C   UNL     1       1.399  -4.789  24.290  0.00  0.00    +0.158 A 
BRANCH  12  19
ATOM     18  C   UNL     1       4.101  -6.666  23.987  0.00  0.00    +0.277 C 
ATOM     19  O   UNL     1       3.483  -5.599  23.275  0.00  0.00    -0.491 OA
ENDBRANCH  12  19
BRANCH  17  20
ATOM     20  O   UNL     1       0.596  -5.720  23.705  0.00  0.00    -0.503 OA
ATOM     21  H   UNL     1       0.903  -6.575  24.049  0.00  0.00    +0.292 HD
ENDBRANCH  17  20
ENDBRANCH   1  14
BRANCH   5  22
ATOM     22  O   UNL     1       5.870   1.257  29.665  0.00  0.00    -0.506 OA
ATOM     23  H   UNL     1       5.134   0.753  30.082  0.00  0.00    +0.292 HD
ENDBRANCH   5  22
BRANCH   7  24
ATOM     24  O   UNL     1       7.010   2.960  25.292  0.00  0.00    -0.461 OA
BRANCH  24  25
ATOM     25  C   UNL     1       7.286   2.491  23.954  0.00  0.00    +0.339 C 
ATOM     26  O   UNL     1       8.275   1.457  23.963  0.00  0.00    -0.331 OA
ATOM     27  C   UNL     1       9.610   1.883  24.305  0.00  0.00    +0.179 C 
ATOM     28  C   UNL     1      10.101   3.022  23.384  0.00  0.00    +0.177 C 
ATOM     29  C   UNL     1       9.101   4.180  23.401  0.00  0.00    +0.180 C 
ATOM     30  C   UNL     1       7.714   3.653  23.023  0.00  0.00    +0.214 C 
BRANCH  30  31
ATOM     31  O   UNL     1       6.761   4.721  22.995  0.00  0.00    -0.383 OA
ATOM     32  H   UNL     1       6.219   4.608  22.192  0.00  0.00    +0.210 HD
ENDBRANCH  30  31
BRANCH  29  33
ATOM     33  O   UNL     1       9.076   4.852  24.665  0.00  0.00    -0.386 OA
ATOM     34  H   UNL     1       8.159   5.136  24.856  0.00  0.00    +0.210 HD
ENDBRANCH  29  33
BRANCH  28  35
ATOM     35  O   UNL     1      10.245   2.522  22.048  0.00  0.00    -0.386 OA
ATOM     36  H   UNL     1      11.124   2.761  21.707  0.00  0.00    +0.210 HD
ENDBRANCH  28  35
BRANCH  27  37
ATOM     37  C   UNL     1      10.544   0.664  24.175  0.00  0.00    +0.190 C 
BRANCH  37  38
ATOM     38  O   UNL     1      10.180  -0.179  23.080  0.00  0.00    -0.392 OA
ATOM     39  H   UNL     1      10.948  -0.723  22.846  0.00  0.00    +0.210 HD
ENDBRANCH  37  38
ENDBRANCH  27  37
ENDBRANCH  24  25
ENDBRANCH   7  24
BRANCH  11  40
ATOM     40  O   UNL     1       3.150  -3.221  28.242  0.00  0.00    -0.453 OA
BRANCH  40  41
ATOM     41  C   UNL     1       3.596  -4.574  28.019  0.00  0.00    +0.340 C 
ATOM     42  O   UNL     1       5.034  -4.559  27.801  0.00  0.00    -0.331 OA
ATOM     43  C   UNL     1       5.625  -5.859  27.610  0.00  0.00    +0.179 C 
ATOM     44  C   UNL     1       5.453  -6.675  28.898  0.00  0.00    +0.177 C 
ATOM     45  C   UNL     1       3.963  -6.769  29.247  0.00  0.00    +0.180 C 
ATOM     46  C   UNL     1       3.304  -5.382  29.307  0.00  0.00    +0.214 C 
BRANCH  46  47
ATOM     47  O   UNL     1       1.903  -5.531  29.566  0.00  0.00    -0.383 OA
ATOM     48  H   UNL     1       1.783  -6.254  30.217  0.00  0.00    +0.210 HD
ENDBRANCH  46  47
BRANCH  45  49
ATOM     49  O   UNL     1       3.832  -7.487  30.485  0.00  0.00    -0.386 OA
ATOM     50  H   UNL     1       3.416  -6.898  31.140  0.00  0.00    +0.210 HD
ENDBRANCH  45  49
BRANCH  44  51
ATOM     51  O   UNL     1       6.026  -7.978  28.734  0.00  0.00    -0.386 OA
ATOM     52  H   UNL     1       5.578  -8.419  27.988  0.00  0.00    +0.210 HD
ENDBRANCH  44  51
BRANCH  43  53
ATOM     53  C   UNL     1       7.139  -5.785  27.254  0.00  0.00    +0.197 C 
BRANCH  53  54
ATOM     54  O   UNL     1       7.409  -5.497  25.869  0.00  0.00    -0.346 OA
BRANCH  54  55
ATOM     55  C   UNL     1       6.978  -4.188  25.475  0.00  0.00    +0.282 C 
ATOM     56  O   UNL     1       6.424  -4.207  24.171  0.00  0.00    -0.341 OA
ATOM     57  C   UNL     1       7.355  -4.664  23.179  0.00  0.00    +0.178 C 
ATOM     58  C   UNL     1       8.559  -3.717  23.070  0.00  0.00    +0.177 C 
ATOM     59  C   UNL     1       9.218  -3.544  24.443  0.00  0.00    +0.179 C 
ATOM     60  C   UNL     1       8.165  -3.201  25.514  0.00  0.00    +0.201 C 
BRANCH  60  61
ATOM     61  O   UNL     1       8.764  -3.151  26.814  0.00  0.00    -0.384 OA
ATOM     62  H   UNL     1       8.782  -2.207  27.064  0.00  0.00    +0.210 HD
ENDBRANCH  60  61
BRANCH  59  63
ATOM     63  O   UNL     1       9.966  -4.721  24.784  0.00  0.00    -0.386 OA
ATOM     64  H   UNL     1      10.749  -4.765  24.202  0.00  0.00    +0.210 HD
ENDBRANCH  59  63
BRANCH  58  65
ATOM     65  O   UNL     1       8.129  -2.443  22.569  0.00  0.00    -0.386 OA
ATOM     66  H   UNL     1       8.127  -2.492  21.599  0.00  0.00    +0.210 HD
ENDBRANCH  58  65
BRANCH  57  67
ATOM     67  C   UNL     1       6.605  -4.741  21.863  0.00  0.00    +0.190 C 
BRANCH  67  68
ATOM     68  O   UNL     1       5.494  -3.859  21.804  0.00  0.00    -0.392 OA
ATOM     69  H   UNL     1       5.155  -3.790  22.713  0.00  0.00    +0.210 HD
ENDBRANCH  67  68
ENDBRANCH  57  67
ENDBRANCH  54  55
ENDBRANCH  53  54
ENDBRANCH  43  53
ENDBRANCH  40  41
ENDBRANCH  11  40
TORSDOF 24
ENDMDL
MODEL 6
REMARK VINA RESULT:      -6.2      2.255      8.051
REMARK  Name = 
REMARK  25 active torsions:
REMARK  status: ('A' for Active; 'I' for Inactive)
REMARK    1  A    between atoms: C_1  and  O_2
REMARK    2  A    between atoms: O_2  and  C_3
REMARK    3  A    between atoms: C_4  and  O_64
REMARK    4  A    between atoms: C_7  and  C_9
REMARK    5  A    between atoms: C_10  and  O_36
REMARK    6  A    between atoms: C_14  and  O_35
REMARK    7  A    between atoms: C_16  and  O_20
REMARK    8  A    between atoms: O_20  and  C_21
REMARK    9  A    between atoms: C_23  and  O_34
REMARK   10  A    between atoms: C_24  and  O_33
REMARK   11  A    between atoms: C_26  and  O_32
REMARK   12  A    between atoms: C_28  and  C_30
REMARK   13  A    between atoms: C_30  and  O_31
REMARK   14  A    between atoms: O_36  and  C_37
REMARK   15  A    between atoms: C_39  and  O_63
REMARK   16  A    between atoms: C_40  and  O_62
REMARK   17  A    between atoms: C_41  and  O_61
REMARK   18  A    between atoms: C_43  and  C_45
REMARK   19  A    between atoms: C_45  and  O_46
REMARK   20  A    between atoms: O_46  and  C_47
REMARK   21  A    between atoms: C_49  and  O_60
REMARK   22  A    between atoms: C_50  and  O_59
REMARK   23  A    between atoms: C_52  and  O_58
REMARK   24  A    between atoms: C_54  and  C_56
REMARK   25  A    between atoms: C_56  and  O_57
REMARK                            x       y       z     vdW  Elec       q    Type
REMARK                         _______ _______ _______ _____ _____    ______ ____
ROOT
ATOM      1  C   UNL     1       4.916   1.307  26.095  0.00  0.00    +0.181 A 
ATOM      2  O   UNL     1       4.277   0.084  26.201  0.00  0.00    -0.451 OA
ATOM      3  C   UNL     1       5.044  -1.028  26.444  0.00  0.00    +0.147 A 
ATOM      4  C   UNL     1       6.438  -0.961  26.504  0.00  0.00    +0.109 A 
ATOM      5  C   UNL     1       7.140  -2.156  26.669  0.00  0.00    +0.135 A 
ATOM      6  C   UNL     1       6.464  -3.383  26.812  0.00  0.00    +0.092 A 
ATOM      7  C   UNL     1       5.067  -3.432  26.835  0.00  0.00    +0.131 A 
ATOM      8  C   UNL     1       7.108   0.364  26.415  0.00  0.00    +0.238 A 
ATOM      9  O   UNL     1       8.337   0.450  26.515  0.00  0.00    -0.283 OA
ATOM     10  C   UNL     1       4.363  -2.240  26.631  0.00  0.00    +0.093 A 
ATOM     11  C   UNL     1       6.244   1.558  26.192  0.00  0.00    +0.214 A 
ENDROOT
BRANCH   1  14
ATOM     12  C   UNL     1       2.913   3.764  24.094  0.00  0.00    +0.162 A 
ATOM     13  C   UNL     1       3.952   2.910  24.463  0.00  0.00    +0.061 A 
ATOM     14  C   UNL     1       3.996   2.395  25.760  0.00  0.00    +0.025 A 
ATOM     15  C   UNL     1       3.065   2.826  26.720  0.00  0.00    +0.015 A 
ATOM     16  C   UNL     1       2.007   3.643  26.342  0.00  0.00    +0.050 A 
ATOM     17  C   UNL     1       1.943   4.119  25.040  0.00  0.00    +0.158 A 
BRANCH  12  19
ATOM     18  C   UNL     1       2.512   3.261  21.847  0.00  0.00    +0.277 C 
ATOM     19  O   UNL     1       2.957   4.217  22.806  0.00  0.00    -0.491 OA
ENDBRANCH  12  19
BRANCH  17  20
ATOM     20  O   UNL     1       0.925   4.980  24.761  0.00  0.00    -0.503 OA
ATOM     21  H   UNL     1       0.678   4.794  23.840  0.00  0.00    +0.292 HD
ENDBRANCH  17  20
ENDBRANCH   1  14
BRANCH   5  22
ATOM     22  O   UNL     1       8.508  -2.219  26.706  0.00  0.00    -0.506 OA
ATOM     23  H   UNL     1       8.863  -1.307  26.590  0.00  0.00    +0.292 HD
ENDBRANCH   5  22
BRANCH   7  24
ATOM     24  O   UNL     1       4.295  -4.555  27.044  0.00  0.00    -0.461 OA
BRANCH  24  25
ATOM     25  C   UNL     1       4.801  -5.802  26.520  0.00  0.00    +0.339 C 
ATOM     26  O   UNL     1       5.091  -5.696  25.123  0.00  0.00    -0.331 OA
ATOM     27  C   UNL     1       3.940  -5.567  24.262  0.00  0.00    +0.179 C 
ATOM     28  C   UNL     1       2.941  -6.727  24.466  0.00  0.00    +0.177 C 
ATOM     29  C   UNL     1       2.551  -6.831  25.942  0.00  0.00    +0.180 C 
ATOM     30  C   UNL     1       3.818  -6.970  26.789  0.00  0.00    +0.214 C 
BRANCH  30  31
ATOM     31  O   UNL     1       3.484  -7.105  28.175  0.00  0.00    -0.383 OA
ATOM     32  H   UNL     1       4.216  -7.585  28.607  0.00  0.00    +0.210 HD
ENDBRANCH  30  31
BRANCH  29  33
ATOM     33  O   UNL     1       1.759  -5.717  26.370  0.00  0.00    -0.386 OA
ATOM     34  H   UNL     1       0.970  -6.051  26.843  0.00  0.00    +0.210 HD
ENDBRANCH  29  33
BRANCH  28  35
ATOM     35  O   UNL     1       3.543  -7.954  24.035  0.00  0.00    -0.386 OA
ATOM     36  H   UNL     1       4.496  -7.933  24.231  0.00  0.00    +0.210 HD
ENDBRANCH  28  35
BRANCH  27  37
ATOM     37  C   UNL     1       4.440  -5.557  22.804  0.00  0.00    +0.190 C 
BRANCH  37  38
ATOM     38  O   UNL     1       4.765  -4.239  22.355  0.00  0.00    -0.392 OA
ATOM     39  H   UNL     1       4.443  -4.138  21.447  0.00  0.00    +0.210 HD
ENDBRANCH  37  38
ENDBRANCH  27  37
ENDBRANCH  24  25
ENDBRANCH   7  24
BRANCH  11  40
ATOM     40  O   UNL     1       6.709   2.873  26.140  0.00  0.00    -0.453 OA
BRANCH  40  41
ATOM     41  C   UNL     1       8.048   3.261  25.770  0.00  0.00    +0.340 C 
ATOM     42  O   UNL     1       8.344   2.713  24.456  0.00  0.00    -0.331 OA
ATOM     43  C   UNL     1       9.643   3.064  23.939  0.00  0.00    +0.179 C 
ATOM     44  C   UNL     1       9.697   4.584  23.730  0.00  0.00    +0.177 C 
ATOM     45  C   UNL     1       9.398   5.292  25.056  0.00  0.00    +0.180 C 
ATOM     46  C   UNL     1       8.078   4.805  25.676  0.00  0.00    +0.214 C 
BRANCH  46  47
ATOM     47  O   UNL     1       7.883   5.445  26.943  0.00  0.00    -0.383 OA
ATOM     48  H   UNL     1       7.292   4.885  27.487  0.00  0.00    +0.210 HD
ENDBRANCH  46  47
BRANCH  45  49
ATOM     49  O   UNL     1       9.398   6.710  24.822  0.00  0.00    -0.386 OA
ATOM     50  H   UNL     1       9.034   6.875  23.934  0.00  0.00    +0.210 HD
ENDBRANCH  45  49
BRANCH  44  51
ATOM     51  O   UNL     1      10.982   4.963  23.223  0.00  0.00    -0.386 OA
ATOM     52  H   UNL     1      10.981   4.835  22.256  0.00  0.00    +0.210 HD
ENDBRANCH  44  51
BRANCH  43  53
ATOM     53  C   UNL     1       9.966   2.354  22.592  0.00  0.00    +0.197 C 
BRANCH  53  54
ATOM     54  O   UNL     1      10.259   0.950  22.718  0.00  0.00    -0.346 OA
BRANCH  54  55
ATOM     55  C   UNL     1       9.632   0.154  21.703  0.00  0.00    +0.282 C 
ATOM     56  O   UNL     1       8.236   0.392  21.663  0.00  0.00    -0.341 OA
ATOM     57  C   UNL     1       7.583   0.089  22.904  0.00  0.00    +0.178 C 
ATOM     58  C   UNL     1       7.708  -1.403  23.246  0.00  0.00    +0.177 C 
ATOM     59  C   UNL     1       9.183  -1.820  23.251  0.00  0.00    +0.179 C 
ATOM     60  C   UNL     1       9.890  -1.345  21.967  0.00  0.00    +0.201 C 
BRANCH  60  61
ATOM     61  O   UNL     1      11.290  -1.636  22.024  0.00  0.00    -0.384 OA
ATOM     62  H   UNL     1      11.424  -2.148  22.844  0.00  0.00    +0.210 HD
ENDBRANCH  60  61
BRANCH  59  63
ATOM     63  O   UNL     1       9.832  -1.328  24.434  0.00  0.00    -0.386 OA
ATOM     64  H   UNL     1       9.249  -1.503  25.198  0.00  0.00    +0.210 HD
ENDBRANCH  59  63
BRANCH  58  65
ATOM     65  O   UNL     1       6.982  -2.182  22.283  0.00  0.00    -0.386 OA
ATOM     66  H   UNL     1       7.527  -2.952  22.056  0.00  0.00    +0.210 HD
ENDBRANCH  58  65
BRANCH  57  67
ATOM     67  C   UNL     1       6.129   0.492  22.757  0.00  0.00    +0.190 C 
BRANCH  67  68
ATOM     68  O   UNL     1       5.963   1.860  22.418  0.00  0.00    -0.392 OA
ATOM     69  H   UNL     1       5.643   1.875  21.499  0.00  0.00    +0.210 HD
ENDBRANCH  67  68
ENDBRANCH  57  67
ENDBRANCH  54  55
ENDBRANCH  53  54
ENDBRANCH  43  53
ENDBRANCH  40  41
ENDBRANCH  11  40
TORSDOF 24
ENDMDL
MODEL 7
REMARK VINA RESULT:      -6.2      2.679      5.552
REMARK  Name = 
REMARK  25 active torsions:
REMARK  status: ('A' for Active; 'I' for Inactive)
REMARK    1  A    between atoms: C_1  and  O_2
REMARK    2  A    between atoms: O_2  and  C_3
REMARK    3  A    between atoms: C_4  and  O_64
REMARK    4  A    between atoms: C_7  and  C_9
REMARK    5  A    between atoms: C_10  and  O_36
REMARK    6  A    between atoms: C_14  and  O_35
REMARK    7  A    between atoms: C_16  and  O_20
REMARK    8  A    between atoms: O_20  and  C_21
REMARK    9  A    between atoms: C_23  and  O_34
REMARK   10  A    between atoms: C_24  and  O_33
REMARK   11  A    between atoms: C_26  and  O_32
REMARK   12  A    between atoms: C_28  and  C_30
REMARK   13  A    between atoms: C_30  and  O_31
REMARK   14  A    between atoms: O_36  and  C_37
REMARK   15  A    between atoms: C_39  and  O_63
REMARK   16  A    between atoms: C_40  and  O_62
REMARK   17  A    between atoms: C_41  and  O_61
REMARK   18  A    between atoms: C_43  and  C_45
REMARK   19  A    between atoms: C_45  and  O_46
REMARK   20  A    between atoms: O_46  and  C_47
REMARK   21  A    between atoms: C_49  and  O_60
REMARK   22  A    between atoms: C_50  and  O_59
REMARK   23  A    between atoms: C_52  and  O_58
REMARK   24  A    between atoms: C_54  and  C_56
REMARK   25  A    between atoms: C_56  and  O_57
REMARK                            x       y       z     vdW  Elec       q    Type
REMARK                         _______ _______ _______ _____ _____    ______ ____
ROOT
ATOM      1  C   UNL     1       4.912  -2.935  27.486  0.00  0.00    +0.181 A 
ATOM      2  O   UNL     1       5.764  -1.994  26.933  0.00  0.00    -0.451 OA
ATOM      3  C   UNL     1       6.888  -2.442  26.284  0.00  0.00    +0.147 A 
ATOM      4  C   UNL     1       7.224  -3.797  26.245  0.00  0.00    +0.109 A 
ATOM      5  C   UNL     1       8.430  -4.151  25.638  0.00  0.00    +0.135 A 
ATOM      6  C   UNL     1       9.261  -3.178  25.048  0.00  0.00    +0.092 A 
ATOM      7  C   UNL     1       8.878  -1.834  25.018  0.00  0.00    +0.131 A 
ATOM      8  C   UNL     1       6.285  -4.797  26.821  0.00  0.00    +0.238 A 
ATOM      9  O   UNL     1       6.541  -6.004  26.753  0.00  0.00    -0.283 OA
ATOM     10  C   UNL     1       7.688  -1.474  25.660  0.00  0.00    +0.093 A 
ATOM     11  C   UNL     1       5.053  -4.282  27.482  0.00  0.00    +0.214 A 
ENDROOT
BRANCH   1  14
ATOM     12  C   UNL     1       1.532  -1.494  28.228  0.00  0.00    +0.162 A 
ATOM     13  C   UNL     1       2.683  -1.843  27.522  0.00  0.00    +0.061 A 
ATOM     14  C   UNL     1       3.797  -2.325  28.212  0.00  0.00    +0.025 A 
ATOM     15  C   UNL     1       3.798  -2.350  29.617  0.00  0.00    +0.015 A 
ATOM     16  C   UNL     1       2.639  -2.042  30.317  0.00  0.00    +0.050 A 
ATOM     17  C   UNL     1       1.519  -1.604  29.624  0.00  0.00    +0.158 A 
BRANCH  12  19
ATOM     18  C   UNL     1       0.592   0.354  27.149  0.00  0.00    +0.277 C 
ATOM     19  O   UNL     1       0.496  -1.032  27.466  0.00  0.00    -0.491 OA
ENDBRANCH  12  19
BRANCH  17  20
ATOM     20  O   UNL     1       0.444  -1.243  30.379  0.00  0.00    -0.503 OA
ATOM     21  H   UNL     1      -0.250  -1.007  29.741  0.00  0.00    +0.292 HD
ENDBRANCH  17  20
ENDBRANCH   1  14
BRANCH   5  22
ATOM     22  O   UNL     1       8.881  -5.443  25.572  0.00  0.00    -0.506 OA
ATOM     23  H   UNL     1       9.518  -5.587  26.309  0.00  0.00    +0.292 HD
ENDBRANCH   5  22
BRANCH   7  24
ATOM     24  O   UNL     1       9.565  -0.806  24.407  0.00  0.00    -0.461 OA
BRANCH  24  25
ATOM     25  C   UNL     1       9.426   0.509  24.987  0.00  0.00    +0.339 C 
ATOM     26  O   UNL     1       8.087   0.994  24.852  0.00  0.00    -0.331 OA
ATOM     27  C   UNL     1       7.683   1.324  23.507  0.00  0.00    +0.179 C 
ATOM     28  C   UNL     1       8.641   2.345  22.856  0.00  0.00    +0.177 C 
ATOM     29  C   UNL     1      10.081   1.830  22.919  0.00  0.00    +0.180 C 
ATOM     30  C   UNL     1      10.437   1.508  24.372  0.00  0.00    +0.214 C 
BRANCH  30  31
ATOM     31  O   UNL     1      11.792   1.057  24.469  0.00  0.00    -0.383 OA
ATOM     32  H   UNL     1      11.822   0.142  24.130  0.00  0.00    +0.210 HD
ENDBRANCH  30  31
BRANCH  29  33
ATOM     33  O   UNL     1      10.284   0.695  22.070  0.00  0.00    -0.386 OA
ATOM     34  H   UNL     1       9.850  -0.084  22.472  0.00  0.00    +0.210 HD
ENDBRANCH  29  33
BRANCH  28  35
ATOM     35  O   UNL     1       8.542   3.597  23.548  0.00  0.00    -0.386 OA
ATOM     36  H   UNL     1       7.862   3.529  24.241  0.00  0.00    +0.210 HD
ENDBRANCH  28  35
BRANCH  27  37
ATOM     37  C   UNL     1       6.258   1.908  23.570  0.00  0.00    +0.190 C 
BRANCH  37  38
ATOM     38  O   UNL     1       5.346   1.031  24.235  0.00  0.00    -0.392 OA
ATOM     39  H   UNL     1       5.663   0.121  24.124  0.00  0.00    +0.210 HD
ENDBRANCH  37  38
ENDBRANCH  27  37
ENDBRANCH  24  25
ENDBRANCH   7  24
BRANCH  11  40
ATOM     40  O   UNL     1       4.049  -5.088  28.022  0.00  0.00    -0.453 OA
BRANCH  40  41
ATOM     41  C   UNL     1       2.855  -5.497  27.325  0.00  0.00    +0.340 C 
ATOM     42  O   UNL     1       2.958  -5.073  25.937  0.00  0.00    -0.331 OA
ATOM     43  C   UNL     1       1.845  -5.461  25.108  0.00  0.00    +0.179 C 
ATOM     44  C   UNL     1       1.798  -6.993  25.027  0.00  0.00    +0.177 C 
ATOM     45  C   UNL     1       1.689  -7.575  26.441  0.00  0.00    +0.180 C 
ATOM     46  C   UNL     1       2.798  -7.043  27.363  0.00  0.00    +0.214 C 
BRANCH  46  47
ATOM     47  O   UNL     1       2.608  -7.563  28.684  0.00  0.00    -0.383 OA
ATOM     48  H   UNL     1       2.383  -8.514  28.615  0.00  0.00    +0.210 HD
ENDBRANCH  46  47
BRANCH  45  49
ATOM     49  O   UNL     1       1.705  -9.009  26.342  0.00  0.00    -0.386 OA
ATOM     50  H   UNL     1       1.295  -9.263  25.495  0.00  0.00    +0.210 HD
ENDBRANCH  45  49
BRANCH  44  51
ATOM     51  O   UNL     1       0.695  -7.407  24.213  0.00  0.00    -0.386 OA
ATOM     52  H   UNL     1       0.306  -6.616  23.796  0.00  0.00    +0.210 HD
ENDBRANCH  44  51
BRANCH  43  53
ATOM     53  C   UNL     1       1.938  -4.878  23.668  0.00  0.00    +0.197 C 
BRANCH  53  54
ATOM     54  O   UNL     1       3.165  -5.189  22.981  0.00  0.00    -0.346 OA
BRANCH  54  55
ATOM     55  C   UNL     1       4.319  -5.093  23.825  0.00  0.00    +0.282 C 
ATOM     56  O   UNL     1       5.011  -3.878  23.603  0.00  0.00    -0.341 OA
ATOM     57  C   UNL     1       5.464  -3.735  22.248  0.00  0.00    +0.178 C 
ATOM     58  C   UNL     1       6.481  -4.828  21.885  0.00  0.00    +0.177 C 
ATOM     59  C   UNL     1       5.881  -6.214  22.152  0.00  0.00    +0.179 C 
ATOM     60  C   UNL     1       5.270  -6.282  23.564  0.00  0.00    +0.201 C 
BRANCH  60  61
ATOM     61  O   UNL     1       4.612  -7.537  23.771  0.00  0.00    -0.384 OA
ATOM     62  H   UNL     1       5.262  -8.107  24.224  0.00  0.00    +0.210 HD
ENDBRANCH  60  61
BRANCH  59  63
ATOM     63  O   UNL     1       4.921  -6.541  21.136  0.00  0.00    -0.386 OA
ATOM     64  H   UNL     1       5.239  -7.329  20.656  0.00  0.00    +0.210 HD
ENDBRANCH  59  63
BRANCH  58  65
ATOM     65  O   UNL     1       7.675  -4.653  22.661  0.00  0.00    -0.386 OA
ATOM     66  H   UNL     1       8.427  -4.930  22.112  0.00  0.00    +0.210 HD
ENDBRANCH  58  65
BRANCH  57  67
ATOM     67  C   UNL     1       6.082  -2.356  22.125  0.00  0.00    +0.190 C 
BRANCH  67  68
ATOM     68  O   UNL     1       5.728  -1.491  23.192  0.00  0.00    -0.392 OA
ATOM     69  H   UNL     1       6.457  -1.543  23.835  0.00  0.00    +0.210 HD
ENDBRANCH  67  68
ENDBRANCH  57  67
ENDBRANCH  54  55
ENDBRANCH  53  54
ENDBRANCH  43  53
ENDBRANCH  40  41
ENDBRANCH  11  40
TORSDOF 24
ENDMDL
MODEL 8
REMARK VINA RESULT:      -6.1      2.500      4.275
REMARK  Name = 
REMARK  25 active torsions:
REMARK  status: ('A' for Active; 'I' for Inactive)
REMARK    1  A    between atoms: C_1  and  O_2
REMARK    2  A    between atoms: O_2  and  C_3
REMARK    3  A    between atoms: C_4  and  O_64
REMARK    4  A    between atoms: C_7  and  C_9
REMARK    5  A    between atoms: C_10  and  O_36
REMARK    6  A    between atoms: C_14  and  O_35
REMARK    7  A    between atoms: C_16  and  O_20
REMARK    8  A    between atoms: O_20  and  C_21
REMARK    9  A    between atoms: C_23  and  O_34
REMARK   10  A    between atoms: C_24  and  O_33
REMARK   11  A    between atoms: C_26  and  O_32
REMARK   12  A    between atoms: C_28  and  C_30
REMARK   13  A    between atoms: C_30  and  O_31
REMARK   14  A    between atoms: O_36  and  C_37
REMARK   15  A    between atoms: C_39  and  O_63
REMARK   16  A    between atoms: C_40  and  O_62
REMARK   17  A    between atoms: C_41  and  O_61
REMARK   18  A    between atoms: C_43  and  C_45
REMARK   19  A    between atoms: C_45  and  O_46
REMARK   20  A    between atoms: O_46  and  C_47
REMARK   21  A    between atoms: C_49  and  O_60
REMARK   22  A    between atoms: C_50  and  O_59
REMARK   23  A    between atoms: C_52  and  O_58
REMARK   24  A    between atoms: C_54  and  C_56
REMARK   25  A    between atoms: C_56  and  O_57
REMARK                            x       y       z     vdW  Elec       q    Type
REMARK                         _______ _______ _______ _____ _____    ______ ____
ROOT
ATOM      1  C   UNL     1       5.389  -2.460  26.629  0.00  0.00    +0.181 A 
ATOM      2  O   UNL     1       4.397  -1.758  27.291  0.00  0.00    -0.451 OA
ATOM      3  C   UNL     1       4.729  -0.555  27.863  0.00  0.00    +0.147 A 
ATOM      4  C   UNL     1       6.041  -0.076  27.861  0.00  0.00    +0.109 A 
ATOM      5  C   UNL     1       6.301   1.113  28.542  0.00  0.00    +0.135 A 
ATOM      6  C   UNL     1       5.266   1.830  29.176  0.00  0.00    +0.092 A 
ATOM      7  C   UNL     1       3.942   1.388  29.103  0.00  0.00    +0.131 A 
ATOM      8  C   UNL     1       7.090  -0.831  27.123  0.00  0.00    +0.238 A 
ATOM      9  O   UNL     1       8.247  -0.398  27.067  0.00  0.00    -0.283 OA
ATOM     10  C   UNL     1       3.687   0.176  28.453  0.00  0.00    +0.093 A 
ATOM     11  C   UNL     1       6.689  -2.112  26.476  0.00  0.00    +0.214 A 
ENDROOT
BRANCH   1  14
ATOM     12  C   UNL     1       4.006  -5.092  24.345  0.00  0.00    +0.162 A 
ATOM     13  C   UNL     1       4.226  -3.844  24.927  0.00  0.00    +0.061 A 
ATOM     14  C   UNL     1       4.924  -3.756  26.133  0.00  0.00    +0.025 A 
ATOM     15  C   UNL     1       5.302  -4.926  26.813  0.00  0.00    +0.015 A 
ATOM     16  C   UNL     1       5.120  -6.167  26.214  0.00  0.00    +0.050 A 
ATOM     17  C   UNL     1       4.463  -6.246  24.994  0.00  0.00    +0.158 A 
BRANCH  12  19
ATOM     18  C   UNL     1       1.908  -5.245  23.328  0.00  0.00    +0.277 C 
ATOM     19  O   UNL     1       3.313  -5.075  23.168  0.00  0.00    -0.491 OA
ENDBRANCH  12  19
BRANCH  17  20
ATOM     20  O   UNL     1       4.247  -7.499  24.504  0.00  0.00    -0.503 OA
ATOM     21  H   UNL     1       4.668  -8.099  25.142  0.00  0.00    +0.292 HD
ENDBRANCH  17  20
ENDBRANCH   1  14
BRANCH   5  22
ATOM     22  O   UNL     1       7.554   1.661  28.639  0.00  0.00    -0.506 OA
ATOM     23  H   UNL     1       7.809   2.006  27.752  0.00  0.00    +0.292 HD
ENDBRANCH   5  22
BRANCH   7  24
ATOM     24  O   UNL     1       2.839   2.038  29.614  0.00  0.00    -0.461 OA
BRANCH  24  25
ATOM     25  C   UNL     1       1.874   2.538  28.663  0.00  0.00    +0.339 C 
ATOM     26  O   UNL     1       2.504   2.893  27.428  0.00  0.00    -0.331 OA
ATOM     27  C   UNL     1       3.355   4.057  27.481  0.00  0.00    +0.179 C 
ATOM     28  C   UNL     1       2.600   5.293  28.019  0.00  0.00    +0.177 C 
ATOM     29  C   UNL     1       1.968   4.974  29.376  0.00  0.00    +0.180 C 
ATOM     30  C   UNL     1       1.079   3.736  29.238  0.00  0.00    +0.214 C 
BRANCH  30  31
ATOM     31  O   UNL     1       0.444   3.432  30.485  0.00  0.00    -0.383 OA
ATOM     32  H   UNL     1      -0.515   3.576  30.368  0.00  0.00    +0.210 HD
ENDBRANCH  30  31
BRANCH  29  33
ATOM     33  O   UNL     1       2.953   4.796  30.400  0.00  0.00    -0.386 OA
ATOM     34  H   UNL     1       2.660   5.266  31.207  0.00  0.00    +0.210 HD
ENDBRANCH  29  33
BRANCH  28  35
ATOM     35  O   UNL     1       1.581   5.670  27.084  0.00  0.00    -0.386 OA
ATOM     36  H   UNL     1       0.706   5.525  27.484  0.00  0.00    +0.210 HD
ENDBRANCH  28  35
BRANCH  27  37
ATOM     37  C   UNL     1       3.867   4.335  26.055  0.00  0.00    +0.190 C 
BRANCH  37  38
ATOM     38  O   UNL     1       5.287   4.493  26.013  0.00  0.00    -0.392 OA
ATOM     39  H   UNL     1       5.689   3.761  26.506  0.00  0.00    +0.210 HD
ENDBRANCH  37  38
ENDBRANCH  27  37
ENDBRANCH  24  25
ENDBRANCH   7  24
BRANCH  11  40
ATOM     40  O   UNL     1       7.537  -2.908  25.704  0.00  0.00    -0.453 OA
BRANCH  40  41
ATOM     41  C   UNL     1       7.877  -2.656  24.326  0.00  0.00    +0.340 C 
ATOM     42  O   UNL     1       7.424  -1.320  23.972  0.00  0.00    -0.331 OA
ATOM     43  C   UNL     1       7.742  -0.916  22.625  0.00  0.00    +0.179 C 
ATOM     44  C   UNL     1       9.268  -0.843  22.479  0.00  0.00    +0.177 C 
ATOM     45  C   UNL     1       9.880  -2.204  22.828  0.00  0.00    +0.180 C 
ATOM     46  C   UNL     1       9.420  -2.697  24.210  0.00  0.00    +0.214 C 
BRANCH  46  47
ATOM     47  O   UNL     1       9.963  -4.000  24.455  0.00  0.00    -0.383 OA
ATOM     48  H   UNL     1       9.266  -4.666  24.281  0.00  0.00    +0.210 HD
ENDBRANCH  46  47
BRANCH  45  49
ATOM     49  O   UNL     1      11.310  -2.093  22.739  0.00  0.00    -0.386 OA
ATOM     50  H   UNL     1      11.530  -1.203  22.410  0.00  0.00    +0.210 HD
ENDBRANCH  45  49
BRANCH  44  51
ATOM     51  O   UNL     1       9.614  -0.450  21.145  0.00  0.00    -0.386 OA
ATOM     52  H   UNL     1      10.478   0.003  21.173  0.00  0.00    +0.210 HD
ENDBRANCH  44  51
BRANCH  43  53
ATOM     53  C   UNL     1       7.128   0.465  22.251  0.00  0.00    +0.197 C 
BRANCH  53  54
ATOM     54  O   UNL     1       7.903   1.596  22.692  0.00  0.00    -0.346 OA
BRANCH  54  55
ATOM     55  C   UNL     1       7.354   2.231  23.855  0.00  0.00    +0.282 C 
ATOM     56  O   UNL     1       6.613   3.385  23.500  0.00  0.00    -0.341 OA
ATOM     57  C   UNL     1       7.406   4.366  22.815  0.00  0.00    +0.178 C 
ATOM     58  C   UNL     1       8.533   4.895  23.714  0.00  0.00    +0.177 C 
ATOM     59  C   UNL     1       9.381   3.729  24.236  0.00  0.00    +0.179 C 
ATOM     60  C   UNL     1       8.485   2.626  24.830  0.00  0.00    +0.201 C 
BRANCH  60  61
ATOM     61  O   UNL     1       9.268   1.490  25.214  0.00  0.00    -0.384 OA
ATOM     62  H   UNL     1       9.034   0.779  24.587  0.00  0.00    +0.210 HD
ENDBRANCH  60  61
BRANCH  59  63
ATOM     63  O   UNL     1      10.228   3.227  23.191  0.00  0.00    -0.386 OA
ATOM     64  H   UNL     1      10.325   2.263  23.312  0.00  0.00    +0.210 HD
ENDBRANCH  59  63
BRANCH  58  65
ATOM     65  O   UNL     1       7.971   5.623  24.816  0.00  0.00    -0.386 OA
ATOM     66  H   UNL     1       7.585   6.441  24.463  0.00  0.00    +0.210 HD
ENDBRANCH  58  65
BRANCH  57  67
ATOM     67  C   UNL     1       6.472   5.486  22.400  0.00  0.00    +0.190 C 
BRANCH  67  68
ATOM     68  O   UNL     1       5.386   5.666  23.296  0.00  0.00    -0.392 OA
ATOM     69  H   UNL     1       4.878   6.423  22.957  0.00  0.00    +0.210 HD
ENDBRANCH  67  68
ENDBRANCH  57  67
ENDBRANCH  54  55
ENDBRANCH  53  54
ENDBRANCH  43  53
ENDBRANCH  40  41
ENDBRANCH  11  40
TORSDOF 24
ENDMDL
MODEL 9
REMARK VINA RESULT:      -5.9      2.441      8.826
REMARK  Name = 
REMARK  25 active torsions:
REMARK  status: ('A' for Active; 'I' for Inactive)
REMARK    1  A    between atoms: C_1  and  O_2
REMARK    2  A    between atoms: O_2  and  C_3
REMARK    3  A    between atoms: C_4  and  O_64
REMARK    4  A    between atoms: C_7  and  C_9
REMARK    5  A    between atoms: C_10  and  O_36
REMARK    6  A    between atoms: C_14  and  O_35
REMARK    7  A    between atoms: C_16  and  O_20
REMARK    8  A    between atoms: O_20  and  C_21
REMARK    9  A    between atoms: C_23  and  O_34
REMARK   10  A    between atoms: C_24  and  O_33
REMARK   11  A    between atoms: C_26  and  O_32
REMARK   12  A    between atoms: C_28  and  C_30
REMARK   13  A    between atoms: C_30  and  O_31
REMARK   14  A    between atoms: O_36  and  C_37
REMARK   15  A    between atoms: C_39  and  O_63
REMARK   16  A    between atoms: C_40  and  O_62
REMARK   17  A    between atoms: C_41  and  O_61
REMARK   18  A    between atoms: C_43  and  C_45
REMARK   19  A    between atoms: C_45  and  O_46
REMARK   20  A    between atoms: O_46  and  C_47
REMARK   21  A    between atoms: C_49  and  O_60
REMARK   22  A    between atoms: C_50  and  O_59
REMARK   23  A    between atoms: C_52  and  O_58
REMARK   24  A    between atoms: C_54  and  C_56
REMARK   25  A    between atoms: C_56  and  O_57
REMARK                            x       y       z     vdW  Elec       q    Type
REMARK                         _______ _______ _______ _____ _____    ______ ____
ROOT
ATOM      1  C   UNL     1       4.609   2.405  26.943  0.00  0.00    +0.181 A 
ATOM      2  O   UNL     1       4.924   1.138  27.402  0.00  0.00    -0.451 OA
ATOM      3  C   UNL     1       5.435   0.234  26.505  0.00  0.00    +0.147 A 
ATOM      4  C   UNL     1       5.564   0.537  25.147  0.00  0.00    +0.109 A 
ATOM      5  C   UNL     1       6.011  -0.473  24.295  0.00  0.00    +0.135 A 
ATOM      6  C   UNL     1       6.362  -1.743  24.793  0.00  0.00    +0.092 A 
ATOM      7  C   UNL     1       6.312  -2.013  26.164  0.00  0.00    +0.131 A 
ATOM      8  C   UNL     1       5.244   1.911  24.675  0.00  0.00    +0.238 A 
ATOM      9  O   UNL     1       5.398   2.213  23.486  0.00  0.00    -0.283 OA
ATOM     10  C   UNL     1       5.826  -1.013  27.014  0.00  0.00    +0.093 A 
ATOM     11  C   UNL     1       4.731   2.882  25.682  0.00  0.00    +0.214 A 
ENDROOT
BRANCH   1  14
ATOM     12  C   UNL     1       4.186   5.065  29.551  0.00  0.00    +0.162 A 
ATOM     13  C   UNL     1       4.794   4.100  28.748  0.00  0.00    +0.061 A 
ATOM     14  C   UNL     1       4.003   3.244  27.979  0.00  0.00    +0.025 A 
ATOM     15  C   UNL     1       2.604   3.277  28.102  0.00  0.00    +0.015 A 
ATOM     16  C   UNL     1       1.999   4.265  28.870  0.00  0.00    +0.050 A 
ATOM     17  C   UNL     1       2.789   5.142  29.600  0.00  0.00    +0.158 A 
BRANCH  12  19
ATOM     18  C   UNL     1       6.284   6.093  29.611  0.00  0.00    +0.277 C 
ATOM     19  O   UNL     1       5.042   5.854  30.266  0.00  0.00    -0.491 OA
ENDBRANCH  12  19
BRANCH  17  20
ATOM     20  O   UNL     1       2.129   6.032  30.393  0.00  0.00    -0.503 OA
ATOM     21  H   UNL     1       1.935   6.791  29.820  0.00  0.00    +0.292 HD
ENDBRANCH  17  20
ENDBRANCH   1  14
BRANCH   5  22
ATOM     22  O   UNL     1       6.141  -0.305  22.941  0.00  0.00    -0.506 OA
ATOM     23  H   UNL     1       6.923   0.271  22.775  0.00  0.00    +0.292 HD
ENDBRANCH   5  22
BRANCH   7  24
ATOM     24  O   UNL     1       6.700  -3.185  26.777  0.00  0.00    -0.461 OA
BRANCH  24  25
ATOM     25  C   UNL     1       6.536  -4.404  26.021  0.00  0.00    +0.339 C 
ATOM     26  O   UNL     1       5.180  -4.569  25.595  0.00  0.00    -0.331 OA
ATOM     27  C   UNL     1       4.232  -4.854  26.645  0.00  0.00    +0.179 C 
ATOM     28  C   UNL     1       4.642  -6.099  27.462  0.00  0.00    +0.177 C 
ATOM     29  C   UNL     1       6.067  -5.933  27.996  0.00  0.00    +0.180 C 
ATOM     30  C   UNL     1       7.011  -5.639  26.827  0.00  0.00    +0.214 C 
BRANCH  30  31
ATOM     31  O   UNL     1       8.360  -5.513  27.291  0.00  0.00    -0.383 OA
ATOM     32  H   UNL     1       8.324  -5.280  28.237  0.00  0.00    +0.210 HD
ENDBRANCH  30  31
BRANCH  29  33
ATOM     33  O   UNL     1       6.150  -4.916  29.000  0.00  0.00    -0.386 OA
ATOM     34  H   UNL     1       5.295  -4.441  29.043  0.00  0.00    +0.210 HD
ENDBRANCH  29  33
BRANCH  28  35
ATOM     35  O   UNL     1       4.569  -7.261  26.625  0.00  0.00    -0.386 OA
ATOM     36  H   UNL     1       5.215  -7.179  25.902  0.00  0.00    +0.210 HD
ENDBRANCH  28  35
BRANCH  27  37
ATOM     37  C   UNL     1       2.856  -5.085  25.991  0.00  0.00    +0.190 C 
BRANCH  37  38
ATOM     38  O   UNL     1       2.964  -5.744  24.727  0.00  0.00    -0.392 OA
ATOM     39  H   UNL     1       2.112  -6.160  24.527  0.00  0.00    +0.210 HD
ENDBRANCH  37  38
ENDBRANCH  27  37
ENDBRANCH  24  25
ENDBRANCH   7  24
BRANCH  11  40
ATOM     40  O   UNL     1       4.438   4.220  25.412  0.00  0.00    -0.453 OA
BRANCH  40  41
ATOM     41  C   UNL     1       5.411   5.223  25.056  0.00  0.00    +0.340 C 
ATOM     42  O   UNL     1       6.733   4.617  25.082  0.00  0.00    -0.331 OA
ATOM     43  C   UNL     1       7.805   5.501  24.698  0.00  0.00    +0.179 C 
ATOM     44  C   UNL     1       7.609   5.909  23.231  0.00  0.00    +0.177 C 
ATOM     45  C   UNL     1       6.235   6.567  23.063  0.00  0.00    +0.180 C 
ATOM     46  C   UNL     1       5.107   5.677  23.609  0.00  0.00    +0.214 C 
BRANCH  46  47
ATOM     47  O   UNL     1       3.857   6.368  23.491  0.00  0.00    -0.383 OA
ATOM     48  H   UNL     1       3.391   6.317  24.351  0.00  0.00    +0.210 HD
ENDBRANCH  46  47
BRANCH  45  49
ATOM     49  O   UNL     1       6.053   6.887  21.674  0.00  0.00    -0.386 OA
ATOM     50  H   UNL     1       6.872   7.299  21.344  0.00  0.00    +0.210 HD
ENDBRANCH  45  49
BRANCH  44  51
ATOM     51  O   UNL     1       8.658   6.795  22.824  0.00  0.00    -0.386 OA
ATOM     52  H   UNL     1       8.465   7.683  23.179  0.00  0.00    +0.210 HD
ENDBRANCH  44  51
BRANCH  43  53
ATOM     53  C   UNL     1       9.209   4.850  24.862  0.00  0.00    +0.197 C 
BRANCH  53  54
ATOM     54  O   UNL     1       9.504   3.826  23.893  0.00  0.00    -0.346 OA
BRANCH  54  55
ATOM     55  C   UNL     1       8.551   2.755  23.902  0.00  0.00    +0.282 C 
ATOM     56  O   UNL     1       8.983   1.699  24.742  0.00  0.00    -0.341 OA
ATOM     57  C   UNL     1      10.242   1.143  24.335  0.00  0.00    +0.178 C 
ATOM     58  C   UNL     1      10.142   0.507  22.940  0.00  0.00    +0.177 C 
ATOM     59  C   UNL     1       9.609   1.532  21.932  0.00  0.00    +0.179 C 
ATOM     60  C   UNL     1       8.338   2.218  22.470  0.00  0.00    +0.201 C 
BRANCH  60  61
ATOM     61  O   UNL     1       7.906   3.252  21.579  0.00  0.00    -0.384 OA
ATOM     62  H   UNL     1       8.579   3.295  20.873  0.00  0.00    +0.210 HD
ENDBRANCH  60  61
BRANCH  59  63
ATOM     63  O   UNL     1      10.633   2.483  21.605  0.00  0.00    -0.386 OA
ATOM     64  H   UNL     1      10.803   3.034  22.393  0.00  0.00    +0.210 HD
ENDBRANCH  59  63
BRANCH  58  65
ATOM     65  O   UNL     1       9.270  -0.631  22.990  0.00  0.00    -0.386 OA
ATOM     66  H   UNL     1       8.553  -0.427  23.612  0.00  0.00    +0.210 HD
ENDBRANCH  58  65
BRANCH  57  67
ATOM     67  C   UNL     1      10.634   0.112  25.375  0.00  0.00    +0.190 C 
BRANCH  67  68
ATOM     68  O   UNL     1       9.537  -0.336  26.155  0.00  0.00    -0.392 OA
ATOM     69  H   UNL     1       9.207  -1.142  25.721  0.00  0.00    +0.210 HD
ENDBRANCH  67  68
ENDBRANCH  57  67
ENDBRANCH  54  55
ENDBRANCH  53  54
ENDBRANCH  43  53
ENDBRANCH  40  41
ENDBRANCH  11  40
TORSDOF 24
ENDMDL
