MODEL 1
REMARK VINA RESULT:      -7.1      0.000      0.000
REMARK  Name = 
REMARK  8 active torsions:
REMARK  status: ('A' for Active; 'I' for Inactive)
REMARK    1  A    between atoms: C_1  and  O_2
REMARK    2  A    between atoms: O_2  and  C_3
REMARK    3  A    between atoms: C_4  and  O_23
REMARK    4  A    between atoms: C_6  and  C_9
REMARK    5  A    between atoms: C_10  and  O_22
REMARK    6  A    between atoms: C_14  and  O_21
REMARK    7  A    between atoms: C_16  and  O_20
REMARK    8  A    between atoms: O_23  and  C_24
REMARK                            x       y       z     vdW  Elec       q    Type
REMARK                         _______ _______ _______ _____ _____    ______ ____
ROOT
ATOM      1  C   UNL     1       7.690  -3.745  25.118  0.00  0.00    +0.181 A 
ATOM      2  O   UNL     1       6.633  -4.159  24.308  0.00  0.00    -0.451 OA
ATOM      3  C   UNL     1       5.833  -5.188  24.737  0.00  0.00    +0.147 A 
ATOM      4  C   UNL     1       5.975  -5.785  25.985  0.00  0.00    +0.109 A 
ATOM      5  C   UNL     1       5.083  -6.783  26.398  0.00  0.00    +0.135 A 
ATOM      6  C   UNL     1       4.072  -7.216  25.547  0.00  0.00    +0.091 A 
ATOM      7  C   UNL     1       3.962  -6.642  24.285  0.00  0.00    +0.124 A 
ATOM      8  C   UNL     1       7.088  -5.367  26.835  0.00  0.00    +0.238 A 
ATOM      9  O   UNL     1       7.227  -5.864  27.951  0.00  0.00    -0.283 OA
ATOM     10  C   UNL     1       4.827  -5.627  23.875  0.00  0.00    +0.092 A 
ATOM     11  C   UNL     1       8.011  -4.339  26.288  0.00  0.00    +0.208 A 
ENDROOT
BRANCH   1  15
ATOM     12  C   UNL     1       9.874  -0.301  23.707  0.00  0.00    +0.162 A 
ATOM     13  C   UNL     1      10.095  -1.563  23.165  0.00  0.00    +0.050 A 
ATOM     14  C   UNL     1       9.391  -2.665  23.641  0.00  0.00    +0.015 A 
ATOM     15  C   UNL     1       8.385  -2.532  24.609  0.00  0.00    +0.025 A 
ATOM     16  C   UNL     1       8.139  -1.246  25.130  0.00  0.00    +0.061 A 
ATOM     17  C   UNL     1       8.881  -0.132  24.694  0.00  0.00    +0.162 A 
BRANCH  12  19
ATOM     18  C   UNL     1      10.087   1.430  22.116  0.00  0.00    +0.277 C 
ATOM     19  O   UNL     1      10.579   0.807  23.302  0.00  0.00    -0.491 OA
ENDBRANCH  12  19
BRANCH  17  20
ATOM     20  O   UNL     1       8.739   1.144  25.179  0.00  0.00    -0.491 OA
ATOM     21  C   UNL     1       7.515   1.824  24.941  0.00  0.00    +0.277 C 
ENDBRANCH  17  20
ENDBRANCH   1  15
BRANCH   5  22
ATOM     22  O   UNL     1       5.146  -7.376  27.630  0.00  0.00    -0.506 OA
ATOM     23  H   UNL     1       4.846  -6.720  28.302  0.00  0.00    +0.292 HD
ENDBRANCH   5  22
BRANCH   7  24
ATOM     24  O   UNL     1       3.002  -7.053  23.409  0.00  0.00    -0.507 OA
ATOM     25  H   UNL     1       2.890  -8.016  23.496  0.00  0.00    +0.292 HD
ENDBRANCH   7  24
BRANCH  11  26
ATOM     26  O   UNL     1       9.121  -4.038  27.062  0.00  0.00    -0.501 OA
ATOM     27  H   UNL     1       9.102  -3.088  27.270  0.00  0.00    +0.292 HD
ENDBRANCH  11  26
TORSDOF 6
ENDMDL
MODEL 2
REMARK VINA RESULT:      -7.0      0.974      1.701
REMARK  Name = 
REMARK  8 active torsions:
REMARK  status: ('A' for Active; 'I' for Inactive)
REMARK    1  A    between atoms: C_1  and  O_2
REMARK    2  A    between atoms: O_2  and  C_3
REMARK    3  A    between atoms: C_4  and  O_23
REMARK    4  A    between atoms: C_6  and  C_9
REMARK    5  A    between atoms: C_10  and  O_22
REMARK    6  A    between atoms: C_14  and  O_21
REMARK    7  A    between atoms: C_16  and  O_20
REMARK    8  A    between atoms: O_23  and  C_24
REMARK                            x       y       z     vdW  Elec       q    Type
REMARK                         _______ _______ _______ _____ _____    ______ ____
ROOT
ATOM      1  C   UNL     1       7.775  -3.627  25.192  0.00  0.00    +0.181 A 
ATOM      2  O   UNL     1       6.768  -3.842  24.251  0.00  0.00    -0.451 OA
ATOM      3  C   UNL     1       5.892  -4.880  24.444  0.00  0.00    +0.147 A 
ATOM      4  C   UNL     1       5.907  -5.680  25.581  0.00  0.00    +0.109 A 
ATOM      5  C   UNL     1       4.941  -6.679  25.758  0.00  0.00    +0.135 A 
ATOM      6  C   UNL     1       3.983  -6.909  24.777  0.00  0.00    +0.091 A 
ATOM      7  C   UNL     1       3.999  -6.132  23.623  0.00  0.00    +0.124 A 
ATOM      8  C   UNL     1       6.967  -5.471  26.566  0.00  0.00    +0.238 A 
ATOM      9  O   UNL     1       6.994  -6.150  27.590  0.00  0.00    -0.283 OA
ATOM     10  C   UNL     1       4.938  -5.114  23.451  0.00  0.00    +0.092 A 
ATOM     11  C   UNL     1       7.974  -4.422  26.266  0.00  0.00    +0.208 A 
ENDROOT
BRANCH   1  15
ATOM     12  C   UNL     1       9.896   0.069  24.513  0.00  0.00    +0.162 A 
ATOM     13  C   UNL     1       9.399  -0.254  25.773  0.00  0.00    +0.050 A 
ATOM     14  C   UNL     1       8.706  -1.444  25.970  0.00  0.00    +0.015 A 
ATOM     15  C   UNL     1       8.562  -2.389  24.944  0.00  0.00    +0.025 A 
ATOM     16  C   UNL     1       9.097  -2.075  23.680  0.00  0.00    +0.061 A 
ATOM     17  C   UNL     1       9.755  -0.850  23.454  0.00  0.00    +0.162 A 
BRANCH  12  19
ATOM     18  C   UNL     1       9.697   2.401  24.209  0.00  0.00    +0.277 C 
ATOM     19  O   UNL     1      10.544   1.254  24.261  0.00  0.00    -0.491 OA
ENDBRANCH  12  19
BRANCH  17  20
ATOM     20  O   UNL     1      10.266  -0.445  22.246  0.00  0.00    -0.491 OA
ATOM     21  C   UNL     1       9.360  -0.012  21.242  0.00  0.00    +0.277 C 
ENDBRANCH  17  20
ENDBRANCH   1  15
BRANCH   5  22
ATOM     22  O   UNL     1       4.880  -7.468  26.875  0.00  0.00    -0.506 OA
ATOM     23  H   UNL     1       5.716  -7.987  26.931  0.00  0.00    +0.292 HD
ENDBRANCH   5  22
BRANCH   7  24
ATOM     24  O   UNL     1       3.094  -6.338  22.625  0.00  0.00    -0.507 OA
ATOM     25  H   UNL     1       2.488  -5.577  22.590  0.00  0.00    +0.292 HD
ENDBRANCH   7  24
BRANCH  11  26
ATOM     26  O   UNL     1       9.032  -4.315  27.156  0.00  0.00    -0.501 OA
ATOM     27  H   UNL     1       8.914  -3.502  27.677  0.00  0.00    +0.292 HD
ENDBRANCH  11  26
TORSDOF 6
ENDMDL
MODEL 3
REMARK VINA RESULT:      -6.8      2.682      4.195
REMARK  Name = 
REMARK  8 active torsions:
REMARK  status: ('A' for Active; 'I' for Inactive)
REMARK    1  A    between atoms: C_1  and  O_2
REMARK    2  A    between atoms: O_2  and  C_3
REMARK    3  A    between atoms: C_4  and  O_23
REMARK    4  A    between atoms: C_6  and  C_9
REMARK    5  A    between atoms: C_10  and  O_22
REMARK    6  A    between atoms: C_14  and  O_21
REMARK    7  A    between atoms: C_16  and  O_20
REMARK    8  A    between atoms: O_23  and  C_24
REMARK                            x       y       z     vdW  Elec       q    Type
REMARK                         _______ _______ _______ _____ _____    ______ ____
ROOT
ATOM      1  C   UNL     1       8.086  -0.457  23.177  0.00  0.00    +0.181 A 
ATOM      2  O   UNL     1       6.858  -1.083  22.966  0.00  0.00    -0.451 OA
ATOM      3  C   UNL     1       6.788  -2.451  23.050  0.00  0.00    +0.147 A 
ATOM      4  C   UNL     1       7.870  -3.241  23.421  0.00  0.00    +0.109 A 
ATOM      5  C   UNL     1       7.722  -4.626  23.561  0.00  0.00    +0.135 A 
ATOM      6  C   UNL     1       6.499  -5.231  23.290  0.00  0.00    +0.091 A 
ATOM      7  C   UNL     1       5.431  -4.439  22.880  0.00  0.00    +0.124 A 
ATOM      8  C   UNL     1       9.165  -2.595  23.630  0.00  0.00    +0.238 A 
ATOM      9  O   UNL     1      10.135  -3.266  23.977  0.00  0.00    -0.283 OA
ATOM     10  C   UNL     1       5.561  -3.055  22.766  0.00  0.00    +0.092 A 
ATOM     11  C   UNL     1       9.235  -1.128  23.408  0.00  0.00    +0.208 A 
ENDROOT
BRANCH   1  15
ATOM     12  C   UNL     1       7.982   3.856  23.137  0.00  0.00    +0.162 A 
ATOM     13  C   UNL     1       7.777   3.122  21.972  0.00  0.00    +0.050 A 
ATOM     14  C   UNL     1       7.827   1.732  22.001  0.00  0.00    +0.015 A 
ATOM     15  C   UNL     1       7.996   1.028  23.203  0.00  0.00    +0.025 A 
ATOM     16  C   UNL     1       8.168   1.774  24.384  0.00  0.00    +0.061 A 
ATOM     17  C   UNL     1       8.171   3.182  24.360  0.00  0.00    +0.162 A 
BRANCH  12  19
ATOM     18  C   UNL     1       7.241   5.841  22.096  0.00  0.00    +0.277 C 
ATOM     19  O   UNL     1       7.990   5.231  23.146  0.00  0.00    -0.491 OA
ENDBRANCH  12  19
BRANCH  17  20
ATOM     20  O   UNL     1       8.376   3.986  25.454  0.00  0.00    -0.491 OA
ATOM     21  C   UNL     1       7.362   4.046  26.446  0.00  0.00    +0.277 C 
ENDBRANCH  17  20
ENDBRANCH   1  15
BRANCH   5  22
ATOM     22  O   UNL     1       8.739  -5.449  23.964  0.00  0.00    -0.506 OA
ATOM     23  H   UNL     1       9.527  -4.890  24.158  0.00  0.00    +0.292 HD
ENDBRANCH   5  22
BRANCH   7  24
ATOM     24  O   UNL     1       4.222  -4.992  22.580  0.00  0.00    -0.507 OA
ATOM     25  H   UNL     1       3.884  -4.580  21.766  0.00  0.00    +0.292 HD
ENDBRANCH   7  24
BRANCH  11  26
ATOM     26  O   UNL     1      10.493  -0.553  23.503  0.00  0.00    -0.501 OA
ATOM     27  H   UNL     1      11.026  -0.854  22.747  0.00  0.00    +0.292 HD
ENDBRANCH  11  26
TORSDOF 6
ENDMDL
MODEL 4
REMARK VINA RESULT:      -6.8      2.645      3.556
REMARK  Name = 
REMARK  8 active torsions:
REMARK  status: ('A' for Active; 'I' for Inactive)
REMARK    1  A    between atoms: C_1  and  O_2
REMARK    2  A    between atoms: O_2  and  C_3
REMARK    3  A    between atoms: C_4  and  O_23
REMARK    4  A    between atoms: C_6  and  C_9
REMARK    5  A    between atoms: C_10  and  O_22
REMARK    6  A    between atoms: C_14  and  O_21
REMARK    7  A    between atoms: C_16  and  O_20
REMARK    8  A    between atoms: O_23  and  C_24
REMARK                            x       y       z     vdW  Elec       q    Type
REMARK                         _______ _______ _______ _____ _____    ______ ____
ROOT
ATOM      1  C   UNL     1       8.891  -1.534  24.525  0.00  0.00    +0.181 A 
ATOM      2  O   UNL     1       7.794  -1.502  25.385  0.00  0.00    -0.451 OA
ATOM      3  C   UNL     1       7.400  -2.663  26.000  0.00  0.00    +0.147 A 
ATOM      4  C   UNL     1       8.098  -3.859  25.874  0.00  0.00    +0.109 A 
ATOM      5  C   UNL     1       7.691  -4.995  26.584  0.00  0.00    +0.135 A 
ATOM      6  C   UNL     1       6.559  -4.950  27.390  0.00  0.00    +0.091 A 
ATOM      7  C   UNL     1       5.843  -3.761  27.480  0.00  0.00    +0.124 A 
ATOM      8  C   UNL     1       9.242  -3.906  24.965  0.00  0.00    +0.238 A 
ATOM      9  O   UNL     1       9.889  -4.944  24.847  0.00  0.00    -0.283 OA
ATOM     10  C   UNL     1       6.257  -2.616  26.800  0.00  0.00    +0.092 A 
ATOM     11  C   UNL     1       9.565  -2.663  24.217  0.00  0.00    +0.208 A 
ENDROOT
BRANCH   1  15
ATOM     12  C   UNL     1      10.063   2.435  23.302  0.00  0.00    +0.162 A 
ATOM     13  C   UNL     1      10.841   1.698  24.190  0.00  0.00    +0.050 A 
ATOM     14  C   UNL     1      10.441   0.425  24.584  0.00  0.00    +0.015 A 
ATOM     15  C   UNL     1       9.302  -0.189  24.040  0.00  0.00    +0.025 A 
ATOM     16  C   UNL     1       8.538   0.547  23.114  0.00  0.00    +0.061 A 
ATOM     17  C   UNL     1       8.904   1.856  22.747  0.00  0.00    +0.162 A 
BRANCH  12  19
ATOM     18  C   UNL     1      11.674   4.158  23.369  0.00  0.00    +0.277 C 
ATOM     19  O   UNL     1      10.394   3.714  22.922  0.00  0.00    -0.491 OA
ENDBRANCH  12  19
BRANCH  17  20
ATOM     20  O   UNL     1       8.194   2.658  21.889  0.00  0.00    -0.491 OA
ATOM     21  C   UNL     1       6.846   2.966  22.213  0.00  0.00    +0.277 C 
ENDBRANCH  17  20
ENDBRANCH   1  15
BRANCH   5  22
ATOM     22  O   UNL     1       8.363  -6.187  26.533  0.00  0.00    -0.506 OA
ATOM     23  H   UNL     1       9.125  -6.137  27.157  0.00  0.00    +0.292 HD
ENDBRANCH   5  22
BRANCH   7  24
ATOM     24  O   UNL     1       4.714  -3.678  28.239  0.00  0.00    -0.507 OA
ATOM     25  H   UNL     1       4.657  -4.469  28.803  0.00  0.00    +0.292 HD
ENDBRANCH   7  24
BRANCH  11  26
ATOM     26  O   UNL     1      10.581  -2.759  23.279  0.00  0.00    -0.501 OA
ATOM     27  H   UNL     1      10.385  -3.507  22.689  0.00  0.00    +0.292 HD
ENDBRANCH  11  26
TORSDOF 6
ENDMDL
MODEL 5
REMARK VINA RESULT:      -6.6      1.557      3.052
REMARK  Name = 
REMARK  8 active torsions:
REMARK  status: ('A' for Active; 'I' for Inactive)
REMARK    1  A    between atoms: C_1  and  O_2
REMARK    2  A    between atoms: O_2  and  C_3
REMARK    3  A    between atoms: C_4  and  O_23
REMARK    4  A    between atoms: C_6  and  C_9
REMARK    5  A    between atoms: C_10  and  O_22
REMARK    6  A    between atoms: C_14  and  O_21
REMARK    7  A    between atoms: C_16  and  O_20
REMARK    8  A    between atoms: O_23  and  C_24
REMARK                            x       y       z     vdW  Elec       q    Type
REMARK                         _______ _______ _______ _____ _____    ______ ____
ROOT
ATOM      1  C   UNL     1       6.452  -3.541  23.861  0.00  0.00    +0.181 A 
ATOM      2  O   UNL     1       6.532  -4.121  25.126  0.00  0.00    -0.451 OA
ATOM      3  C   UNL     1       5.745  -5.209  25.409  0.00  0.00    +0.147 A 
ATOM      4  C   UNL     1       4.929  -5.817  24.461  0.00  0.00    +0.109 A 
ATOM      5  C   UNL     1       4.203  -6.969  24.786  0.00  0.00    +0.135 A 
ATOM      6  C   UNL     1       4.258  -7.493  26.073  0.00  0.00    +0.091 A 
ATOM      7  C   UNL     1       5.044  -6.855  27.027  0.00  0.00    +0.124 A 
ATOM      8  C   UNL     1       4.828  -5.209  23.135  0.00  0.00    +0.238 A 
ATOM      9  O   UNL     1       4.130  -5.735  22.272  0.00  0.00    -0.283 OA
ATOM     10  C   UNL     1       5.794  -5.724  26.706  0.00  0.00    +0.092 A 
ATOM     11  C   UNL     1       5.597  -3.959  22.902  0.00  0.00    +0.208 A 
ENDROOT
BRANCH   1  15
ATOM     12  C   UNL     1       9.441  -0.466  23.388  0.00  0.00    +0.162 A 
ATOM     13  C   UNL     1       9.801  -1.806  23.503  0.00  0.00    +0.050 A 
ATOM     14  C   UNL     1       8.824  -2.782  23.668  0.00  0.00    +0.015 A 
ATOM     15  C   UNL     1       7.457  -2.468  23.636  0.00  0.00    +0.025 A 
ATOM     16  C   UNL     1       7.097  -1.115  23.483  0.00  0.00    +0.061 A 
ATOM     17  C   UNL     1       8.077  -0.111  23.367  0.00  0.00    +0.162 A 
BRANCH  12  19
ATOM     18  C   UNL     1      11.069   0.851  24.477  0.00  0.00    +0.277 C 
ATOM     19  O   UNL     1      10.374   0.537  23.271  0.00  0.00    -0.491 OA
ENDBRANCH  12  19
BRANCH  17  20
ATOM     20  O   UNL     1       7.816   1.232  23.260  0.00  0.00    -0.491 OA
ATOM     21  C   UNL     1       6.725   1.645  22.450  0.00  0.00    +0.277 C 
ENDBRANCH  17  20
ENDBRANCH   1  15
BRANCH   5  22
ATOM     22  O   UNL     1       3.418  -7.636  23.884  0.00  0.00    -0.506 OA
ATOM     23  H   UNL     1       2.660  -8.035  24.372  0.00  0.00    +0.292 HD
ENDBRANCH   5  22
BRANCH   7  24
ATOM     24  O   UNL     1       5.109  -7.319  28.307  0.00  0.00    -0.507 OA
ATOM     25  H   UNL     1       5.779  -8.023  28.351  0.00  0.00    +0.292 HD
ENDBRANCH   7  24
BRANCH  11  26
ATOM     26  O   UNL     1       5.401  -3.339  21.678  0.00  0.00    -0.501 OA
ATOM     27  H   UNL     1       4.445  -3.309  21.498  0.00  0.00    +0.292 HD
ENDBRANCH  11  26
TORSDOF 6
ENDMDL
MODEL 6
REMARK VINA RESULT:      -6.6      1.681      7.854
REMARK  Name = 
REMARK  8 active torsions:
REMARK  status: ('A' for Active; 'I' for Inactive)
REMARK    1  A    between atoms: C_1  and  O_2
REMARK    2  A    between atoms: O_2  and  C_3
REMARK    3  A    between atoms: C_4  and  O_23
REMARK    4  A    between atoms: C_6  and  C_9
REMARK    5  A    between atoms: C_10  and  O_22
REMARK    6  A    between atoms: C_14  and  O_21
REMARK    7  A    between atoms: C_16  and  O_20
REMARK    8  A    between atoms: O_23  and  C_24
REMARK                            x       y       z     vdW  Elec       q    Type
REMARK                         _______ _______ _______ _____ _____    ______ ____
ROOT
ATOM      1  C   UNL     1       8.462  -1.578  24.474  0.00  0.00    +0.181 A 
ATOM      2  O   UNL     1       8.131  -0.393  25.129  0.00  0.00    -0.451 OA
ATOM      3  C   UNL     1       8.537   0.801  24.587  0.00  0.00    +0.147 A 
ATOM      4  C   UNL     1       9.193   0.890  23.364  0.00  0.00    +0.109 A 
ATOM      5  C   UNL     1       9.519   2.141  22.825  0.00  0.00    +0.135 A 
ATOM      6  C   UNL     1       9.227   3.305  23.527  0.00  0.00    +0.091 A 
ATOM      7  C   UNL     1       8.607   3.206  24.769  0.00  0.00    +0.124 A 
ATOM      8  C   UNL     1       9.557  -0.348  22.676  0.00  0.00    +0.238 A 
ATOM      9  O   UNL     1      10.120  -0.299  21.585  0.00  0.00    -0.283 OA
ATOM     10  C   UNL     1       8.252   1.966  25.301  0.00  0.00    +0.092 A 
ATOM     11  C   UNL     1       9.214  -1.625  23.352  0.00  0.00    +0.208 A 
ENDROOT
BRANCH   1  15
ATOM     12  C   UNL     1       6.825  -5.174  26.207  0.00  0.00    +0.162 A 
ATOM     13  C   UNL     1       7.902  -4.518  26.797  0.00  0.00    +0.050 A 
ATOM     14  C   UNL     1       8.425  -3.368  26.217  0.00  0.00    +0.015 A 
ATOM     15  C   UNL     1       7.840  -2.784  25.083  0.00  0.00    +0.025 A 
ATOM     16  C   UNL     1       6.728  -3.431  24.510  0.00  0.00    +0.061 A 
ATOM     17  C   UNL     1       6.221  -4.626  25.058  0.00  0.00    +0.162 A 
BRANCH  12  19
ATOM     18  C   UNL     1       5.629  -6.198  27.966  0.00  0.00    +0.277 C 
ATOM     19  O   UNL     1       6.306  -6.340  26.718  0.00  0.00    -0.491 OA
ENDBRANCH  12  19
BRANCH  17  20
ATOM     20  O   UNL     1       5.173  -5.344  24.540  0.00  0.00    -0.491 OA
ATOM     21  C   UNL     1       5.340  -5.963  23.273  0.00  0.00    +0.277 C 
ENDBRANCH  17  20
ENDBRANCH   1  15
BRANCH   5  22
ATOM     22  O   UNL     1      10.125   2.293  21.607  0.00  0.00    -0.506 OA
ATOM     23  H   UNL     1      11.024   2.670  21.757  0.00  0.00    +0.292 HD
ENDBRANCH   5  22
BRANCH   7  24
ATOM     24  O   UNL     1       8.324   4.318  25.503  0.00  0.00    -0.507 OA
ATOM     25  H   UNL     1       8.214   5.073  24.898  0.00  0.00    +0.292 HD
ENDBRANCH   7  24
BRANCH  11  26
ATOM     26  O   UNL     1       9.665  -2.783  22.739  0.00  0.00    -0.501 OA
ATOM     27  H   UNL     1       9.482  -2.717  21.785  0.00  0.00    +0.292 HD
ENDBRANCH  11  26
TORSDOF 6
ENDMDL
MODEL 7
REMARK VINA RESULT:      -6.5      1.834      7.357
REMARK  Name = 
REMARK  8 active torsions:
REMARK  status: ('A' for Active; 'I' for Inactive)
REMARK    1  A    between atoms: C_1  and  O_2
REMARK    2  A    between atoms: O_2  and  C_3
REMARK    3  A    between atoms: C_4  and  O_23
REMARK    4  A    between atoms: C_6  and  C_9
REMARK    5  A    between atoms: C_10  and  O_22
REMARK    6  A    between atoms: C_14  and  O_21
REMARK    7  A    between atoms: C_16  and  O_20
REMARK    8  A    between atoms: O_23  and  C_24
REMARK                            x       y       z     vdW  Elec       q    Type
REMARK                         _______ _______ _______ _____ _____    ______ ____
ROOT
ATOM      1  C   UNL     1       7.687  -2.851  24.650  0.00  0.00    +0.181 A 
ATOM      2  O   UNL     1       6.869  -1.739  24.451  0.00  0.00    -0.451 OA
ATOM      3  C   UNL     1       7.325  -0.713  23.662  0.00  0.00    +0.147 A 
ATOM      4  C   UNL     1       8.535  -0.766  22.979  0.00  0.00    +0.109 A 
ATOM      5  C   UNL     1       8.915   0.280  22.130  0.00  0.00    +0.135 A 
ATOM      6  C   UNL     1       8.106   1.403  21.994  0.00  0.00    +0.091 A 
ATOM      7  C   UNL     1       6.916   1.467  22.712  0.00  0.00    +0.124 A 
ATOM      8  C   UNL     1       9.405  -1.921  23.192  0.00  0.00    +0.238 A 
ATOM      9  O   UNL     1      10.472  -2.004  22.587  0.00  0.00    -0.283 OA
ATOM     10  C   UNL     1       6.514   0.416  23.537  0.00  0.00    +0.092 A 
ATOM     11  C   UNL     1       8.938  -2.956  24.151  0.00  0.00    +0.208 A 
ENDROOT
BRANCH   1  15
ATOM     12  C   UNL     1       5.929  -6.111  26.864  0.00  0.00    +0.162 A 
ATOM     13  C   UNL     1       6.735  -5.167  27.494  0.00  0.00    +0.050 A 
ATOM     14  C   UNL     1       7.305  -4.130  26.762  0.00  0.00    +0.015 A 
ATOM     15  C   UNL     1       7.020  -3.949  25.400  0.00  0.00    +0.025 A 
ATOM     16  C   UNL     1       6.175  -4.886  24.774  0.00  0.00    +0.061 A 
ATOM     17  C   UNL     1       5.635  -5.970  25.493  0.00  0.00    +0.162 A 
BRANCH  12  19
ATOM     18  C   UNL     1       4.601  -6.831  28.677  0.00  0.00    +0.277 C 
ATOM     19  O   UNL     1       5.385  -7.179  27.537  0.00  0.00    -0.491 OA
ENDBRANCH  12  19
BRANCH  17  20
ATOM     20  O   UNL     1       4.841  -6.951  24.954  0.00  0.00    -0.491 OA
ATOM     21  C   UNL     1       3.703  -6.560  24.200  0.00  0.00    +0.277 C 
ENDBRANCH  17  20
ENDBRANCH   1  15
BRANCH   5  22
ATOM     22  O   UNL     1      10.073   0.265  21.399  0.00  0.00    -0.506 OA
ATOM     23  H   UNL     1      10.833   0.267  22.028  0.00  0.00    +0.292 HD
ENDBRANCH   5  22
BRANCH   7  24
ATOM     24  O   UNL     1       6.103   2.558  22.628  0.00  0.00    -0.507 OA
ATOM     25  H   UNL     1       5.607   2.514  21.792  0.00  0.00    +0.292 HD
ENDBRANCH   7  24
BRANCH  11  26
ATOM     26  O   UNL     1       9.825  -3.985  24.423  0.00  0.00    -0.501 OA
ATOM     27  H   UNL     1       9.707  -4.256  25.350  0.00  0.00    +0.292 HD
ENDBRANCH  11  26
TORSDOF 6
ENDMDL
MODEL 8
REMARK VINA RESULT:      -6.4      1.739      7.353
REMARK  Name = 
REMARK  8 active torsions:
REMARK  status: ('A' for Active; 'I' for Inactive)
REMARK    1  A    between atoms: C_1  and  O_2
REMARK    2  A    between atoms: O_2  and  C_3
REMARK    3  A    between atoms: C_4  and  O_23
REMARK    4  A    between atoms: C_6  and  C_9
REMARK    5  A    between atoms: C_10  and  O_22
REMARK    6  A    between atoms: C_14  and  O_21
REMARK    7  A    between atoms: C_16  and  O_20
REMARK    8  A    between atoms: O_23  and  C_24
REMARK                            x       y       z     vdW  Elec       q    Type
REMARK                         _______ _______ _______ _____ _____    ______ ____
ROOT
ATOM      1  C   UNL     1       7.162  -3.657  24.170  0.00  0.00    +0.181 A 
ATOM      2  O   UNL     1       6.470  -2.455  24.029  0.00  0.00    -0.451 OA
ATOM      3  C   UNL     1       7.167  -1.325  23.680  0.00  0.00    +0.147 A 
ATOM      4  C   UNL     1       8.524  -1.338  23.376  0.00  0.00    +0.109 A 
ATOM      5  C   UNL     1       9.167  -0.168  22.955  0.00  0.00    +0.135 A 
ATOM      6  C   UNL     1       8.464   1.029  22.878  0.00  0.00    +0.091 A 
ATOM      7  C   UNL     1       7.117   1.043  23.223  0.00  0.00    +0.124 A 
ATOM      8  C   UNL     1       9.261  -2.591  23.534  0.00  0.00    +0.238 A 
ATOM      9  O   UNL     1      10.457  -2.637  23.255  0.00  0.00    -0.283 OA
ATOM     10  C   UNL     1       6.459  -0.123  23.614  0.00  0.00    +0.092 A 
ATOM     11  C   UNL     1       8.502  -3.766  24.035  0.00  0.00    +0.208 A 
ENDROOT
BRANCH   1  15
ATOM     12  C   UNL     1       4.433  -6.936  24.812  0.00  0.00    +0.162 A 
ATOM     13  C   UNL     1       4.555  -6.338  23.562  0.00  0.00    +0.050 A 
ATOM     14  C   UNL     1       5.431  -5.273  23.376  0.00  0.00    +0.015 A 
ATOM     15  C   UNL     1       6.274  -4.827  24.404  0.00  0.00    +0.025 A 
ATOM     16  C   UNL     1       6.173  -5.459  25.659  0.00  0.00    +0.061 A 
ATOM     17  C   UNL     1       5.253  -6.503  25.873  0.00  0.00    +0.162 A 
BRANCH  12  19
ATOM     18  C   UNL     1       2.376  -7.942  24.238  0.00  0.00    +0.277 C 
ATOM     19  O   UNL     1       3.546  -7.959  25.054  0.00  0.00    -0.491 OA
ENDBRANCH  12  19
BRANCH  17  20
ATOM     20  O   UNL     1       5.057  -7.143  27.072  0.00  0.00    -0.491 OA
ATOM     21  C   UNL     1       5.125  -6.375  28.265  0.00  0.00    +0.277 C 
ENDBRANCH  17  20
ENDBRANCH   1  15
BRANCH   5  22
ATOM     22  O   UNL     1      10.489  -0.129  22.602  0.00  0.00    -0.506 OA
ATOM     23  H   UNL     1      10.542  -0.018  21.624  0.00  0.00    +0.292 HD
ENDBRANCH   5  22
BRANCH   7  24
ATOM     24  O   UNL     1       6.395   2.199  23.185  0.00  0.00    -0.507 OA
ATOM     25  H   UNL     1       5.486   2.009  23.479  0.00  0.00    +0.292 HD
ENDBRANCH   7  24
BRANCH  11  26
ATOM     26  O   UNL     1       9.241  -4.912  24.283  0.00  0.00    -0.501 OA
ATOM     27  H   UNL     1       8.642  -5.678  24.248  0.00  0.00    +0.292 HD
ENDBRANCH  11  26
TORSDOF 6
ENDMDL
MODEL 9
REMARK VINA RESULT:      -6.4      2.244      3.006
REMARK  Name = 
REMARK  8 active torsions:
REMARK  status: ('A' for Active; 'I' for Inactive)
REMARK    1  A    between atoms: C_1  and  O_2
REMARK    2  A    between atoms: O_2  and  C_3
REMARK    3  A    between atoms: C_4  and  O_23
REMARK    4  A    between atoms: C_6  and  C_9
REMARK    5  A    between atoms: C_10  and  O_22
REMARK    6  A    between atoms: C_14  and  O_21
REMARK    7  A    between atoms: C_16  and  O_20
REMARK    8  A    between atoms: O_23  and  C_24
REMARK                            x       y       z     vdW  Elec       q    Type
REMARK                         _______ _______ _______ _____ _____    ______ ____
ROOT
ATOM      1  C   UNL     1       8.344  -1.464  24.188  0.00  0.00    +0.181 A 
ATOM      2  O   UNL     1       7.944  -2.085  23.005  0.00  0.00    -0.451 OA
ATOM      3  C   UNL     1       7.338  -3.314  23.074  0.00  0.00    +0.147 A 
ATOM      4  C   UNL     1       7.026  -3.936  24.278  0.00  0.00    +0.109 A 
ATOM      5  C   UNL     1       6.342  -5.158  24.287  0.00  0.00    +0.135 A 
ATOM      6  C   UNL     1       6.005  -5.782  23.091  0.00  0.00    +0.091 A 
ATOM      7  C   UNL     1       6.356  -5.174  21.891  0.00  0.00    +0.124 A 
ATOM      8  C   UNL     1       7.453  -3.300  25.523  0.00  0.00    +0.238 A 
ATOM      9  O   UNL     1       7.175  -3.817  26.602  0.00  0.00    -0.283 OA
ATOM     10  C   UNL     1       7.012  -3.942  21.870  0.00  0.00    +0.092 A 
ATOM     11  C   UNL     1       8.218  -2.031  25.408  0.00  0.00    +0.208 A 
ENDROOT
BRANCH   1  15
ATOM     12  C   UNL     1       9.863   2.556  23.796  0.00  0.00    +0.162 A 
ATOM     13  C   UNL     1      10.708   1.496  24.110  0.00  0.00    +0.050 A 
ATOM     14  C   UNL     1      10.199   0.208  24.246  0.00  0.00    +0.015 A 
ATOM     15  C   UNL     1       8.850  -0.080  23.988  0.00  0.00    +0.025 A 
ATOM     16  C   UNL     1       8.005   0.990  23.635  0.00  0.00    +0.061 A 
ATOM     17  C   UNL     1       8.498   2.306  23.545  0.00  0.00    +0.162 A 
BRANCH  12  19
ATOM     18  C   UNL     1      11.693   3.981  23.360  0.00  0.00    +0.277 C 
ATOM     19  O   UNL     1      10.313   3.851  23.699  0.00  0.00    -0.491 OA
ENDBRANCH  12  19
BRANCH  17  20
ATOM     20  O   UNL     1       7.738   3.411  23.253  0.00  0.00    -0.491 OA
ATOM     21  C   UNL     1       6.754   3.302  22.235  0.00  0.00    +0.277 C 
ENDBRANCH  17  20
ENDBRANCH   1  15
BRANCH   5  22
ATOM     22  O   UNL     1       5.970  -5.796  25.440  0.00  0.00    -0.506 OA
ATOM     23  H   UNL     1       5.052  -6.135  25.321  0.00  0.00    +0.292 HD
ENDBRANCH   5  22
BRANCH   7  24
ATOM     24  O   UNL     1       6.068  -5.761  20.695  0.00  0.00    -0.507 OA
ATOM     25  H   UNL     1       6.853  -5.706  20.123  0.00  0.00    +0.292 HD
ENDBRANCH   7  24
BRANCH  11  26
ATOM     26  O   UNL     1       8.710  -1.503  26.591  0.00  0.00    -0.501 OA
ATOM     27  H   UNL     1       8.010  -0.967  27.003  0.00  0.00    +0.292 HD
ENDBRANCH  11  26
TORSDOF 6
ENDMDL
