MODEL 1
REMARK VINA RESULT:      -7.3      0.000      0.000
REMARK  Name = 
REMARK  21 active torsions:
REMARK  status: ('A' for Active; 'I' for Inactive)
REMARK    1  A    between atoms: C_1  and  C_2
REMARK    2  A    between atoms: C_3  and  O_60
REMARK    3  A    between atoms: C_5  and  O_59
REMARK    4  A    between atoms: C_7  and  O_58
REMARK    5  A    between atoms: C_8  and  O_11
REMARK    6  A    between atoms: O_11  and  C_12
REMARK    7  A    between atoms: C_14  and  O_57
REMARK    8  A    between atoms: C_19  and  C_49
REMARK    9  A    between atoms: C_20  and  O_23
REMARK   10  A    between atoms: O_23  and  C_24
REMARK   11  A    between atoms: C_26  and  O_36
REMARK   12  A    between atoms: C_27  and  O_35
REMARK   13  A    between atoms: C_28  and  O_34
REMARK   14  A    between atoms: C_30  and  C_32
REMARK   15  A    between atoms: C_32  and  O_33
REMARK   16  A    between atoms: O_36  and  C_37
REMARK   17  A    between atoms: C_39  and  O_48
REMARK   18  A    between atoms: C_41  and  O_47
REMARK   19  A    between atoms: C_42  and  O_46
REMARK   20  A    between atoms: C_51  and  O_56
REMARK   21  A    between atoms: C_52  and  O_55
REMARK                            x       y       z     vdW  Elec       q    Type
REMARK                         _______ _______ _______ _____ _____    ______ ____
ROOT
ATOM      1  C   UNL     1       5.513  -4.744  26.768  0.00  0.00    +0.131 A 
ATOM      2  C   UNL     1       5.005  -3.448  26.874  0.00  0.00    +0.093 A 
ATOM      3  C   UNL     1       5.841  -2.329  26.802  0.00  0.00    +0.147 A 
ATOM      4  O   UNL     1       5.250  -1.100  26.945  0.00  0.00    -0.451 OA
ATOM      5  C   UNL     1       5.938   0.022  26.484  0.00  0.00    +0.181 A 
ATOM      6  C   UNL     1       7.264   0.028  26.204  0.00  0.00    +0.214 A 
ATOM      7  C   UNL     1       8.003  -1.239  26.552  0.00  0.00    +0.238 A 
ATOM      8  O   UNL     1       9.200  -1.233  26.811  0.00  0.00    -0.283 OA
ATOM      9  C   UNL     1       7.204  -2.482  26.607  0.00  0.00    +0.109 A 
ATOM     10  C   UNL     1       7.725  -3.775  26.474  0.00  0.00    +0.135 A 
ATOM     11  C   UNL     1       6.887  -4.901  26.558  0.00  0.00    +0.092 A 
ENDROOT
BRANCH   5  12
ATOM     12  C   UNL     1       5.057   1.215  26.378  0.00  0.00    +0.025 A 
ATOM     13  C   UNL     1       4.700   1.960  27.530  0.00  0.00    +0.015 A 
ATOM     14  C   UNL     1       3.825   3.038  27.438  0.00  0.00    +0.050 A 
ATOM     15  C   UNL     1       3.270   3.371  26.212  0.00  0.00    +0.158 A 
ATOM     16  C   UNL     1       3.589   2.639  25.074  0.00  0.00    +0.159 A 
ATOM     17  C   UNL     1       4.469   1.561  25.148  0.00  0.00    +0.060 A 
BRANCH  16  18
ATOM     18  O   UNL     1       3.002   3.020  23.898  0.00  0.00    -0.503 OA
ATOM     19  H   UNL     1       3.424   2.531  23.173  0.00  0.00    +0.292 HD
ENDBRANCH  16  18
BRANCH  15  20
ATOM     20  O   UNL     1       2.395   4.412  26.141  0.00  0.00    -0.503 OA
ATOM     21  H   UNL     1       2.658   5.003  26.876  0.00  0.00    +0.292 HD
ENDBRANCH  15  20
ENDBRANCH   5  12
BRANCH  10  22
ATOM     22  O   UNL     1       9.056  -3.962  26.233  0.00  0.00    -0.506 OA
ATOM     23  H   UNL     1       9.387  -4.718  26.745  0.00  0.00    +0.292 HD
ENDBRANCH  10  22
BRANCH   6  24
ATOM     24  O   UNL     1       7.888   1.106  25.554  0.00  0.00    -0.453 OA
BRANCH  24  25
ATOM     25  C   UNL     1       7.830   1.132  24.120  0.00  0.00    +0.340 C 
ATOM     26  O   UNL     1       8.057  -0.200  23.605  0.00  0.00    -0.331 OA
ATOM     27  C   UNL     1       9.393  -0.573  23.234  0.00  0.00    +0.179 C 
ATOM     28  C   UNL     1      10.018   0.404  22.249  0.00  0.00    +0.177 C 
ATOM     29  C   UNL     1      10.072   1.767  22.903  0.00  0.00    +0.180 C 
ATOM     30  C   UNL     1       8.704   2.244  23.440  0.00  0.00    +0.221 C 
BRANCH  29  31
ATOM     31  O   UNL     1      10.617   2.683  21.929  0.00  0.00    -0.386 OA
ATOM     32  H   UNL     1      11.427   3.070  22.317  0.00  0.00    +0.210 HD
ENDBRANCH  29  31
BRANCH  28  33
ATOM     33  O   UNL     1       9.276   0.492  21.027  0.00  0.00    -0.386 OA
ATOM     34  H   UNL     1       8.419   0.054  21.203  0.00  0.00    +0.210 HD
ENDBRANCH  28  33
BRANCH  30  35
ATOM     35  O   UNL     1       8.769   3.565  24.021  0.00  0.00    -0.337 OA
BRANCH  35  36
ATOM     36  C   UNL     1       8.593   4.764  23.262  0.00  0.00    +0.282 C 
ATOM     37  O   UNL     1       8.322   5.860  24.165  0.00  0.00    -0.346 OA
ATOM     38  C   UNL     1       7.106   5.723  24.910  0.00  0.00    +0.197 C 
ATOM     39  C   UNL     1       5.869   5.450  24.045  0.00  0.00    +0.171 C 
ATOM     40  C   UNL     1       6.170   4.393  22.991  0.00  0.00    +0.178 C 
ATOM     41  C   UNL     1       7.457   4.726  22.224  0.00  0.00    +0.201 C 
BRANCH  41  42
ATOM     42  O   UNL     1       7.368   5.960  21.490  0.00  0.00    -0.384 OA
ATOM     43  H   UNL     1       7.980   5.885  20.729  0.00  0.00    +0.210 HD
ENDBRANCH  41  42
BRANCH  40  44
ATOM     44  O   UNL     1       5.054   4.261  22.106  0.00  0.00    -0.386 OA
ATOM     45  H   UNL     1       5.407   4.369  21.202  0.00  0.00    +0.210 HD
ENDBRANCH  40  44
BRANCH  39  46
ATOM     46  O   UNL     1       5.423   6.633  23.364  0.00  0.00    -0.387 OA
ATOM     47  H   UNL     1       4.444   6.577  23.391  0.00  0.00    +0.210 HD
ENDBRANCH  39  46
ENDBRANCH  35  36
ENDBRANCH  30  35
BRANCH  27  48
ATOM     48  C   UNL     1       9.316  -1.959  22.577  0.00  0.00    +0.190 C 
BRANCH  48  49
ATOM     49  O   UNL     1       9.682  -2.957  23.527  0.00  0.00    -0.392 OA
ATOM     50  H   UNL     1       9.068  -2.843  24.275  0.00  0.00    +0.210 HD
ENDBRANCH  48  49
ENDBRANCH  27  48
ENDBRANCH  24  25
ENDBRANCH   6  24
BRANCH   1  51
ATOM     51  O   UNL     1       4.780  -5.909  26.874  0.00  0.00    -0.461 OA
BRANCH  51  55
ATOM     52  C   UNL     1       0.597  -6.187  26.129  0.00  0.00    +0.041 C 
ATOM     53  C   UNL     1       1.582  -7.271  25.692  0.00  0.00    +0.150 C 
ATOM     54  O   UNL     1       2.823  -7.137  26.398  0.00  0.00    -0.334 OA
ATOM     55  C   UNL     1       3.625  -6.012  26.017  0.00  0.00    +0.339 C 
ATOM     56  C   UNL     1       4.042  -6.209  24.537  0.00  0.00    +0.214 C 
ATOM     57  C   UNL     1       2.743  -6.196  23.700  0.00  0.00    +0.180 C 
ATOM     58  C   UNL     1       1.782  -7.308  24.167  0.00  0.00    +0.174 C 
BRANCH  58  59
ATOM     59  O   UNL     1       2.292  -8.593  23.781  0.00  0.00    -0.387 OA
ATOM     60  H   UNL     1       1.715  -9.266  24.207  0.00  0.00    +0.210 HD
ENDBRANCH  58  59
BRANCH  57  61
ATOM     61  O   UNL     1       3.018  -6.294  22.300  0.00  0.00    -0.386 OA
ATOM     62  H   UNL     1       2.322  -5.803  21.821  0.00  0.00    +0.210 HD
ENDBRANCH  57  61
BRANCH  56  63
ATOM     63  O   UNL     1       4.707  -7.482  24.371  0.00  0.00    -0.383 OA
ATOM     64  H   UNL     1       5.586  -7.292  23.990  0.00  0.00    +0.210 HD
ENDBRANCH  56  63
ENDBRANCH  51  55
ENDBRANCH   1  51
TORSDOF 20
ENDMDL
MODEL 2
REMARK VINA RESULT:      -7.0      2.077      9.867
REMARK  Name = 
REMARK  21 active torsions:
REMARK  status: ('A' for Active; 'I' for Inactive)
REMARK    1  A    between atoms: C_1  and  C_2
REMARK    2  A    between atoms: C_3  and  O_60
REMARK    3  A    between atoms: C_5  and  O_59
REMARK    4  A    between atoms: C_7  and  O_58
REMARK    5  A    between atoms: C_8  and  O_11
REMARK    6  A    between atoms: O_11  and  C_12
REMARK    7  A    between atoms: C_14  and  O_57
REMARK    8  A    between atoms: C_19  and  C_49
REMARK    9  A    between atoms: C_20  and  O_23
REMARK   10  A    between atoms: O_23  and  C_24
REMARK   11  A    between atoms: C_26  and  O_36
REMARK   12  A    between atoms: C_27  and  O_35
REMARK   13  A    between atoms: C_28  and  O_34
REMARK   14  A    between atoms: C_30  and  C_32
REMARK   15  A    between atoms: C_32  and  O_33
REMARK   16  A    between atoms: O_36  and  C_37
REMARK   17  A    between atoms: C_39  and  O_48
REMARK   18  A    between atoms: C_41  and  O_47
REMARK   19  A    between atoms: C_42  and  O_46
REMARK   20  A    between atoms: C_51  and  O_56
REMARK   21  A    between atoms: C_52  and  O_55
REMARK                            x       y       z     vdW  Elec       q    Type
REMARK                         _______ _______ _______ _____ _____    ______ ____
ROOT
ATOM      1  C   UNL     1       4.838   2.551  25.599  0.00  0.00    +0.131 A 
ATOM      2  C   UNL     1       5.763   1.505  25.599  0.00  0.00    +0.093 A 
ATOM      3  C   UNL     1       5.570   0.362  26.381  0.00  0.00    +0.147 A 
ATOM      4  O   UNL     1       6.549  -0.598  26.333  0.00  0.00    -0.451 OA
ATOM      5  C   UNL     1       6.229  -1.889  26.749  0.00  0.00    +0.181 A 
ATOM      6  C   UNL     1       5.135  -2.191  27.491  0.00  0.00    +0.214 A 
ATOM      7  C   UNL     1       4.332  -1.007  27.967  0.00  0.00    +0.238 A 
ATOM      8  O   UNL     1       3.651  -1.062  28.984  0.00  0.00    -0.283 OA
ATOM      9  C   UNL     1       4.440   0.234  27.172  0.00  0.00    +0.109 A 
ATOM     10  C   UNL     1       3.492   1.264  27.164  0.00  0.00    +0.135 A 
ATOM     11  C   UNL     1       3.689   2.419  26.386  0.00  0.00    +0.092 A 
ENDROOT
BRANCH   5  12
ATOM     12  C   UNL     1       7.248  -2.884  26.321  0.00  0.00    +0.025 A 
ATOM     13  C   UNL     1       7.355  -4.139  26.970  0.00  0.00    +0.015 A 
ATOM     14  C   UNL     1       8.350  -5.044  26.611  0.00  0.00    +0.050 A 
ATOM     15  C   UNL     1       9.266  -4.704  25.628  0.00  0.00    +0.158 A 
ATOM     16  C   UNL     1       9.193  -3.469  24.995  0.00  0.00    +0.159 A 
ATOM     17  C   UNL     1       8.198  -2.555  25.338  0.00  0.00    +0.060 A 
BRANCH  16  18
ATOM     18  O   UNL     1      10.132  -3.199  24.038  0.00  0.00    -0.503 OA
ATOM     19  H   UNL     1      10.061  -2.260  23.797  0.00  0.00    +0.292 HD
ENDBRANCH  16  18
BRANCH  15  20
ATOM     20  O   UNL     1      10.250  -5.589  25.305  0.00  0.00    -0.503 OA
ATOM     21  H   UNL     1      10.122  -5.759  24.350  0.00  0.00    +0.292 HD
ENDBRANCH  15  20
ENDBRANCH   5  12
BRANCH  10  22
ATOM     22  O   UNL     1       2.344   1.151  27.893  0.00  0.00    -0.506 OA
ATOM     23  H   UNL     1       1.658   1.737  27.533  0.00  0.00    +0.292 HD
ENDBRANCH  10  22
BRANCH   6  24
ATOM     24  O   UNL     1       4.730  -3.516  27.724  0.00  0.00    -0.453 OA
BRANCH  24  25
ATOM     25  C   UNL     1       3.473  -3.927  27.164  0.00  0.00    +0.340 C 
ATOM     26  O   UNL     1       2.598  -4.377  28.224  0.00  0.00    -0.331 OA
ATOM     27  C   UNL     1       2.564  -5.779  28.536  0.00  0.00    +0.179 C 
ATOM     28  C   UNL     1       2.275  -6.639  27.314  0.00  0.00    +0.177 C 
ATOM     29  C   UNL     1       3.372  -6.408  26.299  0.00  0.00    +0.180 C 
ATOM     30  C   UNL     1       3.580  -4.917  25.951  0.00  0.00    +0.221 C 
BRANCH  29  31
ATOM     31  O   UNL     1       3.044  -7.193  25.134  0.00  0.00    -0.386 OA
ATOM     32  H   UNL     1       3.763  -7.842  25.009  0.00  0.00    +0.210 HD
ENDBRANCH  29  31
BRANCH  28  33
ATOM     33  O   UNL     1       1.007  -6.333  26.722  0.00  0.00    -0.386 OA
ATOM     34  H   UNL     1       0.629  -7.191  26.442  0.00  0.00    +0.210 HD
ENDBRANCH  28  33
BRANCH  30  35
ATOM     35  O   UNL     1       4.602  -4.721  24.949  0.00  0.00    -0.337 OA
BRANCH  35  36
ATOM     36  C   UNL     1       4.352  -4.097  23.687  0.00  0.00    +0.282 C 
ATOM     37  O   UNL     1       3.744  -5.060  22.796  0.00  0.00    -0.346 OA
ATOM     38  C   UNL     1       4.577  -6.183  22.484  0.00  0.00    +0.197 C 
ATOM     39  C   UNL     1       5.969  -5.805  21.962  0.00  0.00    +0.171 C 
ATOM     40  C   UNL     1       6.577  -4.691  22.805  0.00  0.00    +0.178 C 
ATOM     41  C   UNL     1       5.592  -3.526  22.977  0.00  0.00    +0.201 C 
BRANCH  41  42
ATOM     42  O   UNL     1       5.247  -2.896  21.731  0.00  0.00    -0.384 OA
ATOM     43  H   UNL     1       6.079  -2.784  21.227  0.00  0.00    +0.210 HD
ENDBRANCH  41  42
BRANCH  40  44
ATOM     44  O   UNL     1       7.805  -4.254  22.216  0.00  0.00    -0.386 OA
ATOM     45  H   UNL     1       8.254  -5.058  21.891  0.00  0.00    +0.210 HD
ENDBRANCH  40  44
BRANCH  39  46
ATOM     46  O   UNL     1       5.922  -5.349  20.602  0.00  0.00    -0.387 OA
ATOM     47  H   UNL     1       5.956  -6.171  20.067  0.00  0.00    +0.210 HD
ENDBRANCH  39  46
ENDBRANCH  35  36
ENDBRANCH  30  35
BRANCH  27  48
ATOM     48  C   UNL     1       1.448  -5.991  29.568  0.00  0.00    +0.190 C 
BRANCH  48  49
ATOM     49  O   UNL     1       0.963  -7.328  29.477  0.00  0.00    -0.392 OA
ATOM     50  H   UNL     1       0.526  -7.390  28.608  0.00  0.00    +0.210 HD
ENDBRANCH  48  49
ENDBRANCH  27  48
ENDBRANCH  24  25
ENDBRANCH   6  24
BRANCH   1  51
ATOM     51  O   UNL     1       4.961   3.736  24.902  0.00  0.00    -0.461 OA
BRANCH  51  55
ATOM     52  C   UNL     1       9.156   3.185  24.428  0.00  0.00    +0.041 C 
ATOM     53  C   UNL     1       8.534   4.555  24.689  0.00  0.00    +0.150 C 
ATOM     54  O   UNL     1       7.202   4.413  25.200  0.00  0.00    -0.334 OA
ATOM     55  C   UNL     1       6.228   3.960  24.250  0.00  0.00    +0.339 C 
ATOM     56  C   UNL     1       6.105   5.042  23.147  0.00  0.00    +0.214 C 
ATOM     57  C   UNL     1       7.481   5.124  22.444  0.00  0.00    +0.180 C 
ATOM     58  C   UNL     1       8.589   5.475  23.457  0.00  0.00    +0.174 C 
BRANCH  58  59
ATOM     59  O   UNL     1       8.462   6.842  23.873  0.00  0.00    -0.387 OA
ATOM     60  H   UNL     1       9.371   7.168  24.062  0.00  0.00    +0.210 HD
ENDBRANCH  58  59
BRANCH  57  61
ATOM     61  O   UNL     1       7.458   6.044  21.350  0.00  0.00    -0.386 OA
ATOM     62  H   UNL     1       6.891   5.665  20.651  0.00  0.00    +0.210 HD
ENDBRANCH  57  61
BRANCH  56  63
ATOM     63  O   UNL     1       5.792   6.325  23.737  0.00  0.00    -0.383 OA
ATOM     64  H   UNL     1       6.497   6.513  24.387  0.00  0.00    +0.210 HD
ENDBRANCH  56  63
ENDBRANCH  51  55
ENDBRANCH   1  51
TORSDOF 20
ENDMDL
MODEL 3
REMARK VINA RESULT:      -6.9      2.437      4.860
REMARK  Name = 
REMARK  21 active torsions:
REMARK  status: ('A' for Active; 'I' for Inactive)
REMARK    1  A    between atoms: C_1  and  C_2
REMARK    2  A    between atoms: C_3  and  O_60
REMARK    3  A    between atoms: C_5  and  O_59
REMARK    4  A    between atoms: C_7  and  O_58
REMARK    5  A    between atoms: C_8  and  O_11
REMARK    6  A    between atoms: O_11  and  C_12
REMARK    7  A    between atoms: C_14  and  O_57
REMARK    8  A    between atoms: C_19  and  C_49
REMARK    9  A    between atoms: C_20  and  O_23
REMARK   10  A    between atoms: O_23  and  C_24
REMARK   11  A    between atoms: C_26  and  O_36
REMARK   12  A    between atoms: C_27  and  O_35
REMARK   13  A    between atoms: C_28  and  O_34
REMARK   14  A    between atoms: C_30  and  C_32
REMARK   15  A    between atoms: C_32  and  O_33
REMARK   16  A    between atoms: O_36  and  C_37
REMARK   17  A    between atoms: C_39  and  O_48
REMARK   18  A    between atoms: C_41  and  O_47
REMARK   19  A    between atoms: C_42  and  O_46
REMARK   20  A    between atoms: C_51  and  O_56
REMARK   21  A    between atoms: C_52  and  O_55
REMARK                            x       y       z     vdW  Elec       q    Type
REMARK                         _______ _______ _______ _____ _____    ______ ____
ROOT
ATOM      1  C   UNL     1       7.584  -2.131  24.533  0.00  0.00    +0.131 A 
ATOM      2  C   UNL     1       6.523  -1.246  24.333  0.00  0.00    +0.093 A 
ATOM      3  C   UNL     1       6.303  -0.165  25.193  0.00  0.00    +0.147 A 
ATOM      4  O   UNL     1       5.218   0.631  24.927  0.00  0.00    -0.451 OA
ATOM      5  C   UNL     1       5.188   1.911  25.477  0.00  0.00    +0.181 A 
ATOM      6  C   UNL     1       5.981   2.308  26.503  0.00  0.00    +0.214 A 
ATOM      7  C   UNL     1       6.827   1.224  27.121  0.00  0.00    +0.238 A 
ATOM      8  O   UNL     1       7.199   1.288  28.286  0.00  0.00    -0.283 OA
ATOM      9  C   UNL     1       7.148   0.061  26.267  0.00  0.00    +0.109 A 
ATOM     10  C   UNL     1       8.231  -0.804  26.466  0.00  0.00    +0.135 A 
ATOM     11  C   UNL     1       8.447  -1.897  25.608  0.00  0.00    +0.092 A 
ENDROOT
BRANCH   5  12
ATOM     12  C   UNL     1       4.159   2.773  24.837  0.00  0.00    +0.025 A 
ATOM     13  C   UNL     1       2.935   3.053  25.494  0.00  0.00    +0.015 A 
ATOM     14  C   UNL     1       1.946   3.806  24.868  0.00  0.00    +0.050 A 
ATOM     15  C   UNL     1       2.146   4.263  23.575  0.00  0.00    +0.158 A 
ATOM     16  C   UNL     1       3.330   3.980  22.904  0.00  0.00    +0.159 A 
ATOM     17  C   UNL     1       4.333   3.234  23.520  0.00  0.00    +0.060 A 
BRANCH  16  18
ATOM     18  O   UNL     1       3.458   4.460  21.629  0.00  0.00    -0.503 OA
ATOM     19  H   UNL     1       4.261   4.076  21.237  0.00  0.00    +0.292 HD
ENDBRANCH  16  18
BRANCH  15  20
ATOM     20  O   UNL     1       1.160   4.977  22.964  0.00  0.00    -0.503 OA
ATOM     21  H   UNL     1       1.147   5.833  23.440  0.00  0.00    +0.292 HD
ENDBRANCH  15  20
ENDBRANCH   5  12
BRANCH  10  22
ATOM     22  O   UNL     1       9.112  -0.584  27.485  0.00  0.00    -0.506 OA
ATOM     23  H   UNL     1       8.931  -1.189  28.223  0.00  0.00    +0.292 HD
ENDBRANCH  10  22
BRANCH   6  24
ATOM     24  O   UNL     1       6.074   3.652  26.902  0.00  0.00    -0.453 OA
BRANCH  24  25
ATOM     25  C   UNL     1       7.390   4.219  27.001  0.00  0.00    +0.340 C 
ATOM     26  O   UNL     1       7.471   5.042  28.187  0.00  0.00    -0.331 OA
ATOM     27  C   UNL     1       7.212   6.450  28.064  0.00  0.00    +0.179 C 
ATOM     28  C   UNL     1       8.074   7.108  26.996  0.00  0.00    +0.177 C 
ATOM     29  C   UNL     1       7.768   6.453  25.667  0.00  0.00    +0.180 C 
ATOM     30  C   UNL     1       7.913   4.915  25.695  0.00  0.00    +0.221 C 
BRANCH  29  31
ATOM     31  O   UNL     1       8.636   7.058  24.687  0.00  0.00    -0.386 OA
ATOM     32  H   UNL     1       9.020   7.859  25.094  0.00  0.00    +0.210 HD
ENDBRANCH  29  31
BRANCH  28  33
ATOM     33  O   UNL     1       9.473   6.984  27.276  0.00  0.00    -0.386 OA
ATOM     34  H   UNL     1       9.886   6.680  26.442  0.00  0.00    +0.210 HD
ENDBRANCH  28  33
BRANCH  30  35
ATOM     35  O   UNL     1       7.658   4.313  24.407  0.00  0.00    -0.337 OA
BRANCH  35  36
ATOM     36  C   UNL     1       8.647   4.215  23.379  0.00  0.00    +0.282 C 
ATOM     37  O   UNL     1       8.065   3.574  22.222  0.00  0.00    -0.346 OA
ATOM     38  C   UNL     1       7.643   2.223  22.446  0.00  0.00    +0.197 C 
ATOM     39  C   UNL     1       8.729   1.319  23.044  0.00  0.00    +0.171 C 
ATOM     40  C   UNL     1       9.454   2.027  24.181  0.00  0.00    +0.178 C 
ATOM     41  C   UNL     1       9.915   3.429  23.757  0.00  0.00    +0.201 C 
BRANCH  41  42
ATOM     42  O   UNL     1      10.864   3.403  22.677  0.00  0.00    -0.384 OA
ATOM     43  H   UNL     1      11.615   3.972  22.942  0.00  0.00    +0.210 HD
ENDBRANCH  41  42
BRANCH  40  44
ATOM     44  O   UNL     1      10.554   1.228  24.625  0.00  0.00    -0.386 OA
ATOM     45  H   UNL     1      10.225   0.310  24.669  0.00  0.00    +0.210 HD
ENDBRANCH  40  44
BRANCH  39  46
ATOM     46  O   UNL     1       9.710   0.945  22.065  0.00  0.00    -0.387 OA
ATOM     47  H   UNL     1      10.193   1.777  21.872  0.00  0.00    +0.210 HD
ENDBRANCH  39  46
ENDBRANCH  35  36
ENDBRANCH  30  35
BRANCH  27  48
ATOM     48  C   UNL     1       7.525   7.094  29.422  0.00  0.00    +0.190 C 
BRANCH  48  49
ATOM     49  O   UNL     1       8.670   6.465  29.994  0.00  0.00    -0.392 OA
ATOM     50  H   UNL     1       9.126   7.162  30.500  0.00  0.00    +0.210 HD
ENDBRANCH  48  49
ENDBRANCH  27  48
ENDBRANCH  24  25
ENDBRANCH   6  24
BRANCH   1  51
ATOM     51  O   UNL     1       7.856  -3.250  23.771  0.00  0.00    -0.461 OA
BRANCH  51  55
ATOM     52  C   UNL     1       3.748  -4.369  23.759  0.00  0.00    +0.041 C 
ATOM     53  C   UNL     1       4.874  -5.388  23.918  0.00  0.00    +0.150 C 
ATOM     54  O   UNL     1       6.096  -4.734  24.288  0.00  0.00    -0.334 OA
ATOM     55  C   UNL     1       6.711  -3.957  23.252  0.00  0.00    +0.339 C 
ATOM     56  C   UNL     1       7.122  -4.927  22.115  0.00  0.00    +0.214 C 
ATOM     57  C   UNL     1       5.818  -5.546  21.560  0.00  0.00    +0.180 C 
ATOM     58  C   UNL     1       5.046  -6.280  22.675  0.00  0.00    +0.174 C 
BRANCH  58  59
ATOM     59  O   UNL     1       5.735  -7.484  23.040  0.00  0.00    -0.387 OA
ATOM     60  H   UNL     1       6.493  -7.577  22.421  0.00  0.00    +0.210 HD
ENDBRANCH  58  59
BRANCH  57  61
ATOM     61  O   UNL     1       6.076  -6.405  20.447  0.00  0.00    -0.386 OA
ATOM     62  H   UNL     1       6.900  -6.896  20.631  0.00  0.00    +0.210 HD
ENDBRANCH  57  61
BRANCH  56  63
ATOM     63  O   UNL     1       7.967  -5.979  22.637  0.00  0.00    -0.383 OA
ATOM     64  H   UNL     1       7.559  -6.824  22.369  0.00  0.00    +0.210 HD
ENDBRANCH  56  63
ENDBRANCH  51  55
ENDBRANCH   1  51
TORSDOF 20
ENDMDL
MODEL 4
REMARK VINA RESULT:      -6.9      2.116      8.375
REMARK  Name = 
REMARK  21 active torsions:
REMARK  status: ('A' for Active; 'I' for Inactive)
REMARK    1  A    between atoms: C_1  and  C_2
REMARK    2  A    between atoms: C_3  and  O_60
REMARK    3  A    between atoms: C_5  and  O_59
REMARK    4  A    between atoms: C_7  and  O_58
REMARK    5  A    between atoms: C_8  and  O_11
REMARK    6  A    between atoms: O_11  and  C_12
REMARK    7  A    between atoms: C_14  and  O_57
REMARK    8  A    between atoms: C_19  and  C_49
REMARK    9  A    between atoms: C_20  and  O_23
REMARK   10  A    between atoms: O_23  and  C_24
REMARK   11  A    between atoms: C_26  and  O_36
REMARK   12  A    between atoms: C_27  and  O_35
REMARK   13  A    between atoms: C_28  and  O_34
REMARK   14  A    between atoms: C_30  and  C_32
REMARK   15  A    between atoms: C_32  and  O_33
REMARK   16  A    between atoms: O_36  and  C_37
REMARK   17  A    between atoms: C_39  and  O_48
REMARK   18  A    between atoms: C_41  and  O_47
REMARK   19  A    between atoms: C_42  and  O_46
REMARK   20  A    between atoms: C_51  and  O_56
REMARK   21  A    between atoms: C_52  and  O_55
REMARK                            x       y       z     vdW  Elec       q    Type
REMARK                         _______ _______ _______ _____ _____    ______ ____
ROOT
ATOM      1  C   UNL     1       8.793  -1.073  21.859  0.00  0.00    +0.131 A 
ATOM      2  C   UNL     1       7.598  -1.795  21.874  0.00  0.00    +0.093 A 
ATOM      3  C   UNL     1       7.446  -2.936  22.668  0.00  0.00    +0.147 A 
ATOM      4  O   UNL     1       6.244  -3.592  22.592  0.00  0.00    -0.451 OA
ATOM      5  C   UNL     1       5.896  -4.457  23.628  0.00  0.00    +0.181 A 
ATOM      6  C   UNL     1       6.783  -4.941  24.532  0.00  0.00    +0.214 A 
ATOM      7  C   UNL     1       8.226  -4.591  24.272  0.00  0.00    +0.238 A 
ATOM      8  O   UNL     1       9.140  -5.302  24.671  0.00  0.00    -0.283 OA
ATOM      9  C   UNL     1       8.482  -3.372  23.476  0.00  0.00    +0.109 A 
ATOM     10  C   UNL     1       9.678  -2.644  23.492  0.00  0.00    +0.135 A 
ATOM     11  C   UNL     1       9.837  -1.502  22.685  0.00  0.00    +0.092 A 
ENDROOT
BRANCH   5  12
ATOM     12  C   UNL     1       4.454  -4.817  23.598  0.00  0.00    +0.025 A 
ATOM     13  C   UNL     1       3.494  -4.032  24.283  0.00  0.00    +0.015 A 
ATOM     14  C   UNL     1       2.154  -4.406  24.307  0.00  0.00    +0.050 A 
ATOM     15  C   UNL     1       1.755  -5.576  23.680  0.00  0.00    +0.158 A 
ATOM     16  C   UNL     1       2.684  -6.373  23.022  0.00  0.00    +0.159 A 
ATOM     17  C   UNL     1       4.029  -6.009  22.982  0.00  0.00    +0.060 A 
BRANCH  16  18
ATOM     18  O   UNL     1       2.222  -7.516  22.429  0.00  0.00    -0.503 OA
ATOM     19  H   UNL     1       1.934  -7.297  21.527  0.00  0.00    +0.292 HD
ENDBRANCH  16  18
BRANCH  15  20
ATOM     20  O   UNL     1       0.445  -5.944  23.734  0.00  0.00    -0.503 OA
ATOM     21  H   UNL     1       0.328  -6.547  22.973  0.00  0.00    +0.292 HD
ENDBRANCH  15  20
ENDBRANCH   5  12
BRANCH  10  22
ATOM     22  O   UNL     1      10.703  -3.016  24.312  0.00  0.00    -0.506 OA
ATOM     23  H   UNL     1      11.525  -3.108  23.803  0.00  0.00    +0.292 HD
ENDBRANCH  10  22
BRANCH   6  24
ATOM     24  O   UNL     1       6.376  -5.645  25.678  0.00  0.00    -0.453 OA
BRANCH  24  25
ATOM     25  C   UNL     1       6.713  -5.076  26.953  0.00  0.00    +0.340 C 
ATOM     26  O   UNL     1       6.816  -6.130  27.938  0.00  0.00    -0.331 OA
ATOM     27  C   UNL     1       5.661  -6.442  28.732  0.00  0.00    +0.179 C 
ATOM     28  C   UNL     1       5.092  -5.219  29.436  0.00  0.00    +0.177 C 
ATOM     29  C   UNL     1       4.684  -4.212  28.384  0.00  0.00    +0.180 C 
ATOM     30  C   UNL     1       5.820  -3.864  27.396  0.00  0.00    +0.221 C 
BRANCH  29  31
ATOM     31  O   UNL     1       4.200  -3.044  29.080  0.00  0.00    -0.386 OA
ATOM     32  H   UNL     1       3.266  -3.214  29.316  0.00  0.00    +0.210 HD
ENDBRANCH  29  31
BRANCH  28  33
ATOM     33  O   UNL     1       6.036  -4.618  30.328  0.00  0.00    -0.386 OA
ATOM     34  H   UNL     1       6.486  -5.360  30.781  0.00  0.00    +0.210 HD
ENDBRANCH  28  33
BRANCH  30  35
ATOM     35  O   UNL     1       5.424  -2.869  26.426  0.00  0.00    -0.337 OA
BRANCH  35  36
ATOM     36  C   UNL     1       6.337  -1.936  25.845  0.00  0.00    +0.282 C 
ATOM     37  O   UNL     1       7.192  -1.402  26.881  0.00  0.00    -0.346 OA
ATOM     38  C   UNL     1       6.502  -0.652  27.888  0.00  0.00    +0.197 C 
ATOM     39  C   UNL     1       5.606   0.463  27.334  0.00  0.00    +0.171 C 
ATOM     40  C   UNL     1       4.792  -0.037  26.147  0.00  0.00    +0.178 C 
ATOM     41  C   UNL     1       5.687  -0.743  25.119  0.00  0.00    +0.201 C 
BRANCH  41  42
ATOM     42  O   UNL     1       6.676   0.130  24.544  0.00  0.00    -0.384 OA
ATOM     43  H   UNL     1       7.329  -0.440  24.090  0.00  0.00    +0.210 HD
ENDBRANCH  41  42
BRANCH  40  44
ATOM     44  O   UNL     1       4.078   1.053  25.557  0.00  0.00    -0.386 OA
ATOM     45  H   UNL     1       4.738   1.578  25.064  0.00  0.00    +0.210 HD
ENDBRANCH  40  44
BRANCH  39  46
ATOM     46  O   UNL     1       6.374   1.593  26.893  0.00  0.00    -0.387 OA
ATOM     47  H   UNL     1       6.298   1.574  25.914  0.00  0.00    +0.210 HD
ENDBRANCH  39  46
ENDBRANCH  35  36
ENDBRANCH  30  35
BRANCH  27  48
ATOM     48  C   UNL     1       6.095  -7.467  29.789  0.00  0.00    +0.190 C 
BRANCH  48  49
ATOM     49  O   UNL     1       7.394  -7.959  29.470  0.00  0.00    -0.392 OA
ATOM     50  H   UNL     1       8.018  -7.365  29.925  0.00  0.00    +0.210 HD
ENDBRANCH  48  49
ENDBRANCH  27  48
ENDBRANCH  24  25
ENDBRANCH   6  24
BRANCH   1  51
ATOM     51  O   UNL     1       9.057   0.034  21.077  0.00  0.00    -0.461 OA
BRANCH  51  55
ATOM     52  C   UNL     1      10.703   2.946  23.711  0.00  0.00    +0.041 C 
ATOM     53  C   UNL     1       9.332   2.313  23.942  0.00  0.00    +0.150 C 
ATOM     54  O   UNL     1       9.196   1.112  23.171  0.00  0.00    -0.334 OA
ATOM     55  C   UNL     1       9.060   1.306  21.757  0.00  0.00    +0.339 C 
ATOM     56  C   UNL     1       7.737   2.074  21.510  0.00  0.00    +0.214 C 
ATOM     57  C   UNL     1       7.890   3.457  22.186  0.00  0.00    +0.180 C 
ATOM     58  C   UNL     1       8.175   3.297  23.693  0.00  0.00    +0.174 C 
BRANCH  58  59
ATOM     59  O   UNL     1       6.999   2.838  24.372  0.00  0.00    -0.387 OA
ATOM     60  H   UNL     1       6.623   3.614  24.846  0.00  0.00    +0.210 HD
ENDBRANCH  58  59
BRANCH  57  61
ATOM     61  O   UNL     1       6.747   4.285  21.953  0.00  0.00    -0.386 OA
ATOM     62  H   UNL     1       5.979   3.700  21.800  0.00  0.00    +0.210 HD
ENDBRANCH  57  61
BRANCH  56  63
ATOM     63  O   UNL     1       6.628   1.366  22.111  0.00  0.00    -0.383 OA
ATOM     64  H   UNL     1       7.010   0.767  22.782  0.00  0.00    +0.210 HD
ENDBRANCH  56  63
ENDBRANCH  51  55
ENDBRANCH   1  51
TORSDOF 20
ENDMDL
MODEL 5
REMARK VINA RESULT:      -6.3      2.193      9.702
REMARK  Name = 
REMARK  21 active torsions:
REMARK  status: ('A' for Active; 'I' for Inactive)
REMARK    1  A    between atoms: C_1  and  C_2
REMARK    2  A    between atoms: C_3  and  O_60
REMARK    3  A    between atoms: C_5  and  O_59
REMARK    4  A    between atoms: C_7  and  O_58
REMARK    5  A    between atoms: C_8  and  O_11
REMARK    6  A    between atoms: O_11  and  C_12
REMARK    7  A    between atoms: C_14  and  O_57
REMARK    8  A    between atoms: C_19  and  C_49
REMARK    9  A    between atoms: C_20  and  O_23
REMARK   10  A    between atoms: O_23  and  C_24
REMARK   11  A    between atoms: C_26  and  O_36
REMARK   12  A    between atoms: C_27  and  O_35
REMARK   13  A    between atoms: C_28  and  O_34
REMARK   14  A    between atoms: C_30  and  C_32
REMARK   15  A    between atoms: C_32  and  O_33
REMARK   16  A    between atoms: O_36  and  C_37
REMARK   17  A    between atoms: C_39  and  O_48
REMARK   18  A    between atoms: C_41  and  O_47
REMARK   19  A    between atoms: C_42  and  O_46
REMARK   20  A    between atoms: C_51  and  O_56
REMARK   21  A    between atoms: C_52  and  O_55
REMARK                            x       y       z     vdW  Elec       q    Type
REMARK                         _______ _______ _______ _____ _____    ______ ____
ROOT
ATOM      1  C   UNL     1       5.875   2.118  24.960  0.00  0.00    +0.131 A 
ATOM      2  C   UNL     1       5.612   0.859  24.417  0.00  0.00    +0.093 A 
ATOM      3  C   UNL     1       5.446  -0.266  25.231  0.00  0.00    +0.147 A 
ATOM      4  O   UNL     1       5.218  -1.463  24.601  0.00  0.00    -0.451 OA
ATOM      5  C   UNL     1       4.653  -2.501  25.339  0.00  0.00    +0.181 A 
ATOM      6  C   UNL     1       4.611  -2.524  26.694  0.00  0.00    +0.214 A 
ATOM      7  C   UNL     1       5.344  -1.401  27.382  0.00  0.00    +0.238 A 
ATOM      8  O   UNL     1       5.798  -1.528  28.512  0.00  0.00    -0.283 OA
ATOM      9  C   UNL     1       5.527  -0.154  26.609  0.00  0.00    +0.109 A 
ATOM     10  C   UNL     1       5.765   1.107  27.170  0.00  0.00    +0.135 A 
ATOM     11  C   UNL     1       5.943   2.238  26.352  0.00  0.00    +0.092 A 
ENDROOT
BRANCH   5  12
ATOM     12  C   UNL     1       4.144  -3.595  24.470  0.00  0.00    +0.025 A 
ATOM     13  C   UNL     1       2.770  -3.941  24.469  0.00  0.00    +0.015 A 
ATOM     14  C   UNL     1       2.305  -5.007  23.703  0.00  0.00    +0.050 A 
ATOM     15  C   UNL     1       3.199  -5.759  22.956  0.00  0.00    +0.158 A 
ATOM     16  C   UNL     1       4.554  -5.450  22.962  0.00  0.00    +0.159 A 
ATOM     17  C   UNL     1       5.034  -4.381  23.717  0.00  0.00    +0.060 A 
BRANCH  16  18
ATOM     18  O   UNL     1       5.379  -6.235  22.205  0.00  0.00    -0.503 OA
ATOM     19  H   UNL     1       4.884  -7.027  21.934  0.00  0.00    +0.292 HD
ENDBRANCH  16  18
BRANCH  15  20
ATOM     20  O   UNL     1       2.734  -6.814  22.232  0.00  0.00    -0.503 OA
ATOM     21  H   UNL     1       3.038  -6.637  21.319  0.00  0.00    +0.292 HD
ENDBRANCH  15  20
ENDBRANCH   5  12
BRANCH  10  22
ATOM     22  O   UNL     1       5.803   1.264  28.525  0.00  0.00    -0.506 OA
ATOM     23  H   UNL     1       5.127   0.709  28.947  0.00  0.00    +0.292 HD
ENDBRANCH  10  22
BRANCH   6  24
ATOM     24  O   UNL     1       3.862  -3.477  27.405  0.00  0.00    -0.453 OA
BRANCH  24  25
ATOM     25  C   UNL     1       4.214  -4.858  27.224  0.00  0.00    +0.340 C 
ATOM     26  O   UNL     1       3.335  -5.687  28.018  0.00  0.00    -0.331 OA
ATOM     27  C   UNL     1       3.761  -6.073  29.335  0.00  0.00    +0.179 C 
ATOM     28  C   UNL     1       5.129  -6.739  29.330  0.00  0.00    +0.177 C 
ATOM     29  C   UNL     1       6.136  -5.754  28.778  0.00  0.00    +0.180 C 
ATOM     30  C   UNL     1       5.739  -5.183  27.399  0.00  0.00    +0.221 C 
BRANCH  29  31
ATOM     31  O   UNL     1       7.410  -6.430  28.735  0.00  0.00    -0.386 OA
ATOM     32  H   UNL     1       7.850  -6.167  27.903  0.00  0.00    +0.210 HD
ENDBRANCH  29  31
BRANCH  28  33
ATOM     33  O   UNL     1       5.149  -7.933  28.540  0.00  0.00    -0.386 OA
ATOM     34  H   UNL     1       4.380  -7.867  27.938  0.00  0.00    +0.210 HD
ENDBRANCH  28  33
BRANCH  30  35
ATOM     35  O   UNL     1       6.733  -4.278  26.869  0.00  0.00    -0.337 OA
BRANCH  35  36
ATOM     36  C   UNL     1       8.125  -4.598  26.797  0.00  0.00    +0.282 C 
ATOM     37  O   UNL     1       8.891  -3.373  26.753  0.00  0.00    -0.346 OA
ATOM     38  C   UNL     1       8.646  -2.566  25.595  0.00  0.00    +0.197 C 
ATOM     39  C   UNL     1       8.797  -3.316  24.265  0.00  0.00    +0.171 C 
ATOM     40  C   UNL     1       8.113  -4.676  24.332  0.00  0.00    +0.178 C 
ATOM     41  C   UNL     1       8.542  -5.451  25.585  0.00  0.00    +0.201 C 
BRANCH  41  42
ATOM     42  O   UNL     1       9.950  -5.747  25.605  0.00  0.00    -0.384 OA
ATOM     43  H   UNL     1      10.265  -5.574  26.515  0.00  0.00    +0.210 HD
ENDBRANCH  41  42
BRANCH  40  44
ATOM     44  O   UNL     1       8.390  -5.415  23.139  0.00  0.00    -0.386 OA
ATOM     45  H   UNL     1       9.115  -6.030  23.361  0.00  0.00    +0.210 HD
ENDBRANCH  40  44
BRANCH  39  46
ATOM     46  O   UNL     1      10.176  -3.535  23.931  0.00  0.00    -0.387 OA
ATOM     47  H   UNL     1      10.158  -4.288  23.301  0.00  0.00    +0.210 HD
ENDBRANCH  39  46
ENDBRANCH  35  36
ENDBRANCH  30  35
BRANCH  27  48
ATOM     48  C   UNL     1       2.725  -7.068  29.878  0.00  0.00    +0.190 C 
BRANCH  48  49
ATOM     49  O   UNL     1       2.323  -7.952  28.834  0.00  0.00    -0.392 OA
ATOM     50  H   UNL     1       2.422  -7.445  28.009  0.00  0.00    +0.210 HD
ENDBRANCH  48  49
ENDBRANCH  27  48
ENDBRANCH  24  25
ENDBRANCH   6  24
BRANCH   1  51
ATOM     51  O   UNL     1       6.101   3.275  24.241  0.00  0.00    -0.461 OA
BRANCH  51  55
ATOM     52  C   UNL     1       8.544   6.114  26.266  0.00  0.00    +0.041 C 
ATOM     53  C   UNL     1       8.317   6.157  24.756  0.00  0.00    +0.150 C 
ATOM     54  O   UNL     1       7.172   5.371  24.397  0.00  0.00    -0.334 OA
ATOM     55  C   UNL     1       7.347   3.952  24.505  0.00  0.00    +0.339 C 
ATOM     56  C   UNL     1       8.438   3.532  23.488  0.00  0.00    +0.214 C 
ATOM     57  C   UNL     1       9.749   4.225  23.925  0.00  0.00    +0.180 C 
ATOM     58  C   UNL     1       9.570   5.756  23.958  0.00  0.00    +0.174 C 
BRANCH  58  59
ATOM     59  O   UNL     1       9.473   6.270  22.622  0.00  0.00    -0.387 OA
ATOM     60  H   UNL     1       9.105   5.547  22.066  0.00  0.00    +0.210 HD
ENDBRANCH  58  59
BRANCH  57  61
ATOM     61  O   UNL     1      10.848   3.843  23.094  0.00  0.00    -0.386 OA
ATOM     62  H   UNL     1      11.444   4.613  23.011  0.00  0.00    +0.210 HD
ENDBRANCH  57  61
BRANCH  56  63
ATOM     63  O   UNL     1       8.080   3.976  22.159  0.00  0.00    -0.383 OA
ATOM     64  H   UNL     1       7.771   4.899  22.247  0.00  0.00    +0.210 HD
ENDBRANCH  56  63
ENDBRANCH  51  55
ENDBRANCH   1  51
TORSDOF 20
ENDMDL
MODEL 6
REMARK VINA RESULT:      -6.2      2.137     10.023
REMARK  Name = 
REMARK  21 active torsions:
REMARK  status: ('A' for Active; 'I' for Inactive)
REMARK    1  A    between atoms: C_1  and  C_2
REMARK    2  A    between atoms: C_3  and  O_60
REMARK    3  A    between atoms: C_5  and  O_59
REMARK    4  A    between atoms: C_7  and  O_58
REMARK    5  A    between atoms: C_8  and  O_11
REMARK    6  A    between atoms: O_11  and  C_12
REMARK    7  A    between atoms: C_14  and  O_57
REMARK    8  A    between atoms: C_19  and  C_49
REMARK    9  A    between atoms: C_20  and  O_23
REMARK   10  A    between atoms: O_23  and  C_24
REMARK   11  A    between atoms: C_26  and  O_36
REMARK   12  A    between atoms: C_27  and  O_35
REMARK   13  A    between atoms: C_28  and  O_34
REMARK   14  A    between atoms: C_30  and  C_32
REMARK   15  A    between atoms: C_32  and  O_33
REMARK   16  A    between atoms: O_36  and  C_37
REMARK   17  A    between atoms: C_39  and  O_48
REMARK   18  A    between atoms: C_41  and  O_47
REMARK   19  A    between atoms: C_42  and  O_46
REMARK   20  A    between atoms: C_51  and  O_56
REMARK   21  A    between atoms: C_52  and  O_55
REMARK                            x       y       z     vdW  Elec       q    Type
REMARK                         _______ _______ _______ _____ _____    ______ ____
ROOT
ATOM      1  C   UNL     1       8.670   2.752  23.915  0.00  0.00    +0.131 A 
ATOM      2  C   UNL     1       8.552   1.456  23.407  0.00  0.00    +0.093 A 
ATOM      3  C   UNL     1       8.133   0.393  24.213  0.00  0.00    +0.147 A 
ATOM      4  O   UNL     1       8.076  -0.847  23.628  0.00  0.00    -0.451 OA
ATOM      5  C   UNL     1       7.299  -1.830  24.239  0.00  0.00    +0.181 A 
ATOM      6  C   UNL     1       6.863  -1.755  25.520  0.00  0.00    +0.214 A 
ATOM      7  C   UNL     1       7.385  -0.584  26.313  0.00  0.00    +0.238 A 
ATOM      8  O   UNL     1       7.487  -0.630  27.533  0.00  0.00    -0.283 OA
ATOM      9  C   UNL     1       7.810   0.604  25.543  0.00  0.00    +0.109 A 
ATOM     10  C   UNL     1       7.899   1.903  26.060  0.00  0.00    +0.135 A 
ATOM     11  C   UNL     1       8.331   2.971  25.254  0.00  0.00    +0.092 A 
ENDROOT
BRANCH   5  12
ATOM     12  C   UNL     1       7.044  -2.984  23.337  0.00  0.00    +0.025 A 
ATOM     13  C   UNL     1       5.983  -2.951  22.397  0.00  0.00    +0.015 A 
ATOM     14  C   UNL     1       5.706  -4.057  21.598  0.00  0.00    +0.050 A 
ATOM     15  C   UNL     1       6.454  -5.215  21.742  0.00  0.00    +0.158 A 
ATOM     16  C   UNL     1       7.484  -5.275  22.673  0.00  0.00    +0.159 A 
ATOM     17  C   UNL     1       7.780  -4.175  23.476  0.00  0.00    +0.060 A 
BRANCH  16  18
ATOM     18  O   UNL     1       8.178  -6.451  22.765  0.00  0.00    -0.503 OA
ATOM     19  H   UNL     1       8.297  -6.806  21.868  0.00  0.00    +0.292 HD
ENDBRANCH  16  18
BRANCH  15  20
ATOM     20  O   UNL     1       6.155  -6.297  20.971  0.00  0.00    -0.503 OA
ATOM     21  H   UNL     1       5.934  -5.921  20.096  0.00  0.00    +0.292 HD
ENDBRANCH  15  20
ENDBRANCH   5  12
BRANCH  10  22
ATOM     22  O   UNL     1       7.543   2.157  27.353  0.00  0.00    -0.506 OA
ATOM     23  H   UNL     1       6.582   2.067  27.461  0.00  0.00    +0.292 HD
ENDBRANCH  10  22
BRANCH   6  24
ATOM     24  O   UNL     1       5.920  -2.656  26.045  0.00  0.00    -0.453 OA
BRANCH  24  25
ATOM     25  C   UNL     1       4.533  -2.370  25.805  0.00  0.00    +0.340 C 
ATOM     26  O   UNL     1       4.327  -0.939  25.820  0.00  0.00    -0.331 OA
ATOM     27  C   UNL     1       3.921  -0.318  27.049  0.00  0.00    +0.179 C 
ATOM     28  C   UNL     1       2.675  -0.961  27.642  0.00  0.00    +0.177 C 
ATOM     29  C   UNL     1       2.980  -2.415  27.926  0.00  0.00    +0.180 C 
ATOM     30  C   UNL     1       3.526  -3.177  26.697  0.00  0.00    +0.221 C 
BRANCH  29  31
ATOM     31  O   UNL     1       1.768  -3.010  28.434  0.00  0.00    -0.386 OA
ATOM     32  H   UNL     1       1.198  -3.208  27.666  0.00  0.00    +0.210 HD
ENDBRANCH  29  31
BRANCH  28  33
ATOM     33  O   UNL     1       1.549  -0.874  26.762  0.00  0.00    -0.386 OA
ATOM     34  H   UNL     1       1.920  -0.772  25.863  0.00  0.00    +0.210 HD
ENDBRANCH  28  33
BRANCH  30  35
ATOM     35  O   UNL     1       3.769  -4.573  26.977  0.00  0.00    -0.337 OA
BRANCH  35  36
ATOM     36  C   UNL     1       2.838  -5.610  26.657  0.00  0.00    +0.282 C 
ATOM     37  O   UNL     1       3.524  -6.883  26.670  0.00  0.00    -0.346 OA
ATOM     38  C   UNL     1       4.554  -7.007  25.684  0.00  0.00    +0.197 C 
ATOM     39  C   UNL     1       4.096  -6.683  24.255  0.00  0.00    +0.171 C 
ATOM     40  C   UNL     1       3.252  -5.416  24.234  0.00  0.00    +0.178 C 
ATOM     41  C   UNL     1       2.141  -5.472  25.292  0.00  0.00    +0.201 C 
BRANCH  41  42
ATOM     42  O   UNL     1       1.205  -6.540  25.064  0.00  0.00    -0.384 OA
ATOM     43  H   UNL     1       1.581  -7.343  25.480  0.00  0.00    +0.210 HD
ENDBRANCH  41  42
BRANCH  40  44
ATOM     44  O   UNL     1       2.715  -5.214  22.923  0.00  0.00    -0.386 OA
ATOM     45  H   UNL     1       3.293  -4.558  22.489  0.00  0.00    +0.210 HD
ENDBRANCH  40  44
BRANCH  39  46
ATOM     46  O   UNL     1       3.308  -7.744  23.695  0.00  0.00    -0.387 OA
ATOM     47  H   UNL     1       3.916  -8.198  23.072  0.00  0.00    +0.210 HD
ENDBRANCH  39  46
ENDBRANCH  35  36
ENDBRANCH  30  35
BRANCH  27  48
ATOM     48  C   UNL     1       3.621   1.156  26.741  0.00  0.00    +0.190 C 
BRANCH  48  49
ATOM     49  O   UNL     1       4.090   1.473  25.432  0.00  0.00    -0.392 OA
ATOM     50  H   UNL     1       4.524   2.342  25.514  0.00  0.00    +0.210 HD
ENDBRANCH  48  49
ENDBRANCH  27  48
ENDBRANCH  24  25
ENDBRANCH   6  24
BRANCH   1  51
ATOM     51  O   UNL     1       9.119   3.854  23.215  0.00  0.00    -0.461 OA
BRANCH  51  55
ATOM     52  C   UNL     1       7.392   7.108  25.351  0.00  0.00    +0.041 C 
ATOM     53  C   UNL     1       6.546   6.054  24.639  0.00  0.00    +0.150 C 
ATOM     54  O   UNL     1       7.330   4.887  24.356  0.00  0.00    -0.334 OA
ATOM     55  C   UNL     1       8.313   5.045  23.324  0.00  0.00    +0.339 C 
ATOM     56  C   UNL     1       7.564   5.337  21.999  0.00  0.00    +0.214 C 
ATOM     57  C   UNL     1       6.825   6.682  22.189  0.00  0.00    +0.180 C 
ATOM     58  C   UNL     1       5.850   6.604  23.381  0.00  0.00    +0.174 C 
BRANCH  58  59
ATOM     59  O   UNL     1       4.730   5.772  23.049  0.00  0.00    -0.387 OA
ATOM     60  H   UNL     1       4.081   5.864  23.782  0.00  0.00    +0.210 HD
ENDBRANCH  58  59
BRANCH  57  61
ATOM     61  O   UNL     1       6.158   7.088  20.991  0.00  0.00    -0.386 OA
ATOM     62  H   UNL     1       5.260   6.704  21.002  0.00  0.00    +0.210 HD
ENDBRANCH  57  61
BRANCH  56  63
ATOM     63  O   UNL     1       6.599   4.293  21.731  0.00  0.00    -0.383 OA
ATOM     64  H   UNL     1       5.854   4.436  22.347  0.00  0.00    +0.210 HD
ENDBRANCH  56  63
ENDBRANCH  51  55
ENDBRANCH   1  51
TORSDOF 20
ENDMDL
MODEL 7
REMARK VINA RESULT:      -6.0      2.326     10.036
REMARK  Name = 
REMARK  21 active torsions:
REMARK  status: ('A' for Active; 'I' for Inactive)
REMARK    1  A    between atoms: C_1  and  C_2
REMARK    2  A    between atoms: C_3  and  O_60
REMARK    3  A    between atoms: C_5  and  O_59
REMARK    4  A    between atoms: C_7  and  O_58
REMARK    5  A    between atoms: C_8  and  O_11
REMARK    6  A    between atoms: O_11  and  C_12
REMARK    7  A    between atoms: C_14  and  O_57
REMARK    8  A    between atoms: C_19  and  C_49
REMARK    9  A    between atoms: C_20  and  O_23
REMARK   10  A    between atoms: O_23  and  C_24
REMARK   11  A    between atoms: C_26  and  O_36
REMARK   12  A    between atoms: C_27  and  O_35
REMARK   13  A    between atoms: C_28  and  O_34
REMARK   14  A    between atoms: C_30  and  C_32
REMARK   15  A    between atoms: C_32  and  O_33
REMARK   16  A    between atoms: O_36  and  C_37
REMARK   17  A    between atoms: C_39  and  O_48
REMARK   18  A    between atoms: C_41  and  O_47
REMARK   19  A    between atoms: C_42  and  O_46
REMARK   20  A    between atoms: C_51  and  O_56
REMARK   21  A    between atoms: C_52  and  O_55
REMARK                            x       y       z     vdW  Elec       q    Type
REMARK                         _______ _______ _______ _____ _____    ______ ____
ROOT
ATOM      1  C   UNL     1       6.757   2.666  26.970  0.00  0.00    +0.131 A 
ATOM      2  C   UNL     1       7.300   1.401  26.731  0.00  0.00    +0.093 A 
ATOM      3  C   UNL     1       6.577   0.235  27.001  0.00  0.00    +0.147 A 
ATOM      4  O   UNL     1       7.207  -0.958  26.758  0.00  0.00    -0.451 OA
ATOM      5  C   UNL     1       6.424  -2.103  26.618  0.00  0.00    +0.181 A 
ATOM      6  C   UNL     1       5.132  -2.183  27.018  0.00  0.00    +0.214 A 
ATOM      7  C   UNL     1       4.611  -0.980  27.764  0.00  0.00    +0.238 A 
ATOM      8  O   UNL     1       3.695  -1.073  28.571  0.00  0.00    -0.283 OA
ATOM      9  C   UNL     1       5.289   0.308  27.504  0.00  0.00    +0.109 A 
ATOM     10  C   UNL     1       4.722   1.569  27.726  0.00  0.00    +0.135 A 
ATOM     11  C   UNL     1       5.451   2.743  27.465  0.00  0.00    +0.092 A 
ENDROOT
BRANCH   5  12
ATOM     12  C   UNL     1       7.184  -3.232  26.019  0.00  0.00    +0.025 A 
ATOM     13  C   UNL     1       8.203  -3.891  26.750  0.00  0.00    +0.015 A 
ATOM     14  C   UNL     1       8.957  -4.905  26.166  0.00  0.00    +0.050 A 
ATOM     15  C   UNL     1       8.729  -5.257  24.844  0.00  0.00    +0.158 A 
ATOM     16  C   UNL     1       7.750  -4.607  24.103  0.00  0.00    +0.159 A 
ATOM     17  C   UNL     1       6.982  -3.595  24.675  0.00  0.00    +0.060 A 
BRANCH  16  18
ATOM     18  O   UNL     1       7.582  -5.002  22.803  0.00  0.00    -0.503 OA
ATOM     19  H   UNL     1       6.708  -5.419  22.721  0.00  0.00    +0.292 HD
ENDBRANCH  16  18
BRANCH  15  20
ATOM     20  O   UNL     1       9.491  -6.233  24.278  0.00  0.00    -0.503 OA
ATOM     21  H   UNL     1       9.227  -7.051  24.745  0.00  0.00    +0.292 HD
ENDBRANCH  15  20
ENDBRANCH   5  12
BRANCH  10  22
ATOM     22  O   UNL     1       3.438   1.679  28.176  0.00  0.00    -0.506 OA
ATOM     23  H   UNL     1       2.947   0.861  27.996  0.00  0.00    +0.292 HD
ENDBRANCH  10  22
BRANCH   6  24
ATOM     24  O   UNL     1       4.310  -3.273  26.685  0.00  0.00    -0.453 OA
BRANCH  24  25
ATOM     25  C   UNL     1       3.681  -3.977  27.767  0.00  0.00    +0.340 C 
ATOM     26  O   UNL     1       4.675  -4.318  28.761  0.00  0.00    -0.331 OA
ATOM     27  C   UNL     1       5.297  -5.611  28.692  0.00  0.00    +0.179 C 
ATOM     28  C   UNL     1       4.282  -6.744  28.660  0.00  0.00    +0.177 C 
ATOM     29  C   UNL     1       3.415  -6.571  27.432  0.00  0.00    +0.180 C 
ATOM     30  C   UNL     1       2.763  -5.174  27.335  0.00  0.00    +0.221 C 
BRANCH  29  31
ATOM     31  O   UNL     1       2.430  -7.626  27.457  0.00  0.00    -0.386 OA
ATOM     32  H   UNL     1       2.001  -7.642  26.579  0.00  0.00    +0.210 HD
ENDBRANCH  29  31
BRANCH  28  33
ATOM     33  O   UNL     1       3.453  -6.764  29.827  0.00  0.00    -0.386 OA
ATOM     34  H   UNL     1       2.875  -7.548  29.731  0.00  0.00    +0.210 HD
ENDBRANCH  28  33
BRANCH  30  35
ATOM     35  O   UNL     1       1.906  -5.044  26.179  0.00  0.00    -0.337 OA
BRANCH  35  36
ATOM     36  C   UNL     1       2.369  -4.579  24.909  0.00  0.00    +0.282 C 
ATOM     37  O   UNL     1       1.294  -4.679  23.948  0.00  0.00    -0.346 OA
ATOM     38  C   UNL     1       0.846  -6.017  23.701  0.00  0.00    +0.197 C 
ATOM     39  C   UNL     1       1.968  -6.994  23.323  0.00  0.00    +0.171 C 
ATOM     40  C   UNL     1       3.172  -6.813  24.239  0.00  0.00    +0.178 C 
ATOM     41  C   UNL     1       3.580  -5.336  24.333  0.00  0.00    +0.201 C 
BRANCH  41  42
ATOM     42  O   UNL     1       3.994  -4.788  23.069  0.00  0.00    -0.384 OA
ATOM     43  H   UNL     1       4.963  -4.655  23.120  0.00  0.00    +0.210 HD
ENDBRANCH  41  42
BRANCH  40  44
ATOM     44  O   UNL     1       4.255  -7.626  23.779  0.00  0.00    -0.386 OA
ATOM     45  H   UNL     1       4.729  -7.097  23.109  0.00  0.00    +0.210 HD
ENDBRANCH  40  44
BRANCH  39  46
ATOM     46  O   UNL     1       2.412  -6.798  21.972  0.00  0.00    -0.387 OA
ATOM     47  H   UNL     1       1.621  -6.990  21.424  0.00  0.00    +0.210 HD
ENDBRANCH  39  46
ENDBRANCH  35  36
ENDBRANCH  30  35
BRANCH  27  48
ATOM     48  C   UNL     1       6.173  -5.764  29.943  0.00  0.00    +0.190 C 
BRANCH  48  49
ATOM     49  O   UNL     1       6.444  -7.146  30.168  0.00  0.00    -0.392 OA
ATOM     50  H   UNL     1       7.093  -7.170  30.894  0.00  0.00    +0.210 HD
ENDBRANCH  48  49
ENDBRANCH  27  48
ENDBRANCH  24  25
ENDBRANCH   6  24
BRANCH   1  51
ATOM     51  O   UNL     1       7.405   3.870  26.782  0.00  0.00    -0.461 OA
BRANCH  51  55
ATOM     52  C   UNL     1       5.061   5.220  23.493  0.00  0.00    +0.041 C 
ATOM     53  C   UNL     1       6.165   4.176  23.339  0.00  0.00    +0.150 C 
ATOM     54  O   UNL     1       6.509   3.616  24.614  0.00  0.00    -0.334 OA
ATOM     55  C   UNL     1       7.224   4.493  25.494  0.00  0.00    +0.339 C 
ATOM     56  C   UNL     1       8.588   4.817  24.833  0.00  0.00    +0.214 C 
ATOM     57  C   UNL     1       8.282   5.575  23.521  0.00  0.00    +0.180 C 
ATOM     58  C   UNL     1       7.396   4.721  22.592  0.00  0.00    +0.174 C 
BRANCH  58  59
ATOM     59  O   UNL     1       8.154   3.628  22.055  0.00  0.00    -0.387 OA
ATOM     60  H   UNL     1       8.053   2.877  22.682  0.00  0.00    +0.210 HD
ENDBRANCH  58  59
BRANCH  57  61
ATOM     61  O   UNL     1       9.481   5.993  22.863  0.00  0.00    -0.386 OA
ATOM     62  H   UNL     1      10.066   5.215  22.782  0.00  0.00    +0.210 HD
ENDBRANCH  57  61
BRANCH  56  63
ATOM     63  O   UNL     1       9.297   3.594  24.526  0.00  0.00    -0.383 OA
ATOM     64  H   UNL     1       8.891   3.231  23.715  0.00  0.00    +0.210 HD
ENDBRANCH  56  63
ENDBRANCH  51  55
ENDBRANCH   1  51
TORSDOF 20
ENDMDL
MODEL 8
REMARK VINA RESULT:      -5.8      2.069     10.331
REMARK  Name = 
REMARK  21 active torsions:
REMARK  status: ('A' for Active; 'I' for Inactive)
REMARK    1  A    between atoms: C_1  and  C_2
REMARK    2  A    between atoms: C_3  and  O_60
REMARK    3  A    between atoms: C_5  and  O_59
REMARK    4  A    between atoms: C_7  and  O_58
REMARK    5  A    between atoms: C_8  and  O_11
REMARK    6  A    between atoms: O_11  and  C_12
REMARK    7  A    between atoms: C_14  and  O_57
REMARK    8  A    between atoms: C_19  and  C_49
REMARK    9  A    between atoms: C_20  and  O_23
REMARK   10  A    between atoms: O_23  and  C_24
REMARK   11  A    between atoms: C_26  and  O_36
REMARK   12  A    between atoms: C_27  and  O_35
REMARK   13  A    between atoms: C_28  and  O_34
REMARK   14  A    between atoms: C_30  and  C_32
REMARK   15  A    between atoms: C_32  and  O_33
REMARK   16  A    between atoms: O_36  and  C_37
REMARK   17  A    between atoms: C_39  and  O_48
REMARK   18  A    between atoms: C_41  and  O_47
REMARK   19  A    between atoms: C_42  and  O_46
REMARK   20  A    between atoms: C_51  and  O_56
REMARK   21  A    between atoms: C_52  and  O_55
REMARK                            x       y       z     vdW  Elec       q    Type
REMARK                         _______ _______ _______ _____ _____    ______ ____
ROOT
ATOM      1  C   UNL     1       4.590   2.592  24.825  0.00  0.00    +0.131 A 
ATOM      2  C   UNL     1       5.530   1.561  24.892  0.00  0.00    +0.093 A 
ATOM      3  C   UNL     1       5.446   0.561  25.866  0.00  0.00    +0.147 A 
ATOM      4  O   UNL     1       6.432  -0.392  25.866  0.00  0.00    -0.451 OA
ATOM      5  C   UNL     1       6.185  -1.598  26.519  0.00  0.00    +0.181 A 
ATOM      6  C   UNL     1       5.185  -1.776  27.417  0.00  0.00    +0.214 A 
ATOM      7  C   UNL     1       4.416  -0.532  27.781  0.00  0.00    +0.238 A 
ATOM      8  O   UNL     1       3.852  -0.420  28.863  0.00  0.00    -0.283 OA
ATOM      9  C   UNL     1       4.412   0.563  26.788  0.00  0.00    +0.109 A 
ATOM     10  C   UNL     1       3.448   1.576  26.718  0.00  0.00    +0.135 A 
ATOM     11  C   UNL     1       3.537   2.589  25.745  0.00  0.00    +0.092 A 
ENDROOT
BRANCH   5  12
ATOM     12  C   UNL     1       7.170  -2.649  26.148  0.00  0.00    +0.025 A 
ATOM     13  C   UNL     1       7.993  -2.502  25.004  0.00  0.00    +0.015 A 
ATOM     14  C   UNL     1       8.868  -3.515  24.622  0.00  0.00    +0.050 A 
ATOM     15  C   UNL     1       8.916  -4.693  25.350  0.00  0.00    +0.158 A 
ATOM     16  C   UNL     1       8.100  -4.867  26.461  0.00  0.00    +0.159 A 
ATOM     17  C   UNL     1       7.224  -3.860  26.862  0.00  0.00    +0.060 A 
BRANCH  16  18
ATOM     18  O   UNL     1       8.197  -6.057  27.130  0.00  0.00    -0.503 OA
ATOM     19  H   UNL     1       8.498  -6.736  26.504  0.00  0.00    +0.292 HD
ENDBRANCH  16  18
BRANCH  15  20
ATOM     20  O   UNL     1       9.758  -5.686  24.949  0.00  0.00    -0.503 OA
ATOM     21  H   UNL     1      10.094  -5.386  24.080  0.00  0.00    +0.292 HD
ENDBRANCH  15  20
ENDBRANCH   5  12
BRANCH  10  22
ATOM     22  O   UNL     1       2.389   1.583  27.579  0.00  0.00    -0.506 OA
ATOM     23  H   UNL     1       1.846   0.789  27.449  0.00  0.00    +0.292 HD
ENDBRANCH  10  22
BRANCH   6  24
ATOM     24  O   UNL     1       4.834  -3.045  27.907  0.00  0.00    -0.453 OA
BRANCH  24  25
ATOM     25  C   UNL     1       3.556  -3.570  27.515  0.00  0.00    +0.340 C 
ATOM     26  O   UNL     1       2.564  -3.207  28.502  0.00  0.00    -0.331 OA
ATOM     27  C   UNL     1       2.274  -4.137  29.558  0.00  0.00    +0.179 C 
ATOM     28  C   UNL     1       1.905  -5.517  29.032  0.00  0.00    +0.177 C 
ATOM     29  C   UNL     1       3.076  -6.052  28.238  0.00  0.00    +0.180 C 
ATOM     30  C   UNL     1       3.553  -5.091  27.127  0.00  0.00    +0.221 C 
BRANCH  29  31
ATOM     31  O   UNL     1       2.679  -7.334  27.708  0.00  0.00    -0.386 OA
ATOM     32  H   UNL     1       3.434  -7.683  27.196  0.00  0.00    +0.210 HD
ENDBRANCH  29  31
BRANCH  28  33
ATOM     33  O   UNL     1       0.741  -5.486  28.198  0.00  0.00    -0.386 OA
ATOM     34  H   UNL     1       0.674  -4.568  27.866  0.00  0.00    +0.210 HD
ENDBRANCH  28  33
BRANCH  30  35
ATOM     35  O   UNL     1       4.644  -5.638  26.353  0.00  0.00    -0.337 OA
BRANCH  35  36
ATOM     36  C   UNL     1       4.490  -6.737  25.452  0.00  0.00    +0.282 C 
ATOM     37  O   UNL     1       5.654  -6.815  24.598  0.00  0.00    -0.346 OA
ATOM     38  C   UNL     1       5.839  -5.676  23.749  0.00  0.00    +0.197 C 
ATOM     39  C   UNL     1       4.607  -5.313  22.910  0.00  0.00    +0.171 C 
ATOM     40  C   UNL     1       3.343  -5.359  23.759  0.00  0.00    +0.178 C 
ATOM     41  C   UNL     1       3.250  -6.676  24.543  0.00  0.00    +0.201 C 
BRANCH  41  42
ATOM     42  O   UNL     1       3.160  -7.830  23.689  0.00  0.00    -0.384 OA
ATOM     43  H   UNL     1       3.864  -7.742  23.015  0.00  0.00    +0.210 HD
ENDBRANCH  41  42
BRANCH  40  44
ATOM     44  O   UNL     1       2.195  -5.163  22.928  0.00  0.00    -0.386 OA
ATOM     45  H   UNL     1       1.919  -4.236  23.058  0.00  0.00    +0.210 HD
ENDBRANCH  40  44
BRANCH  39  46
ATOM     46  O   UNL     1       4.428  -6.217  21.809  0.00  0.00    -0.387 OA
ATOM     47  H   UNL     1       4.196  -5.637  21.051  0.00  0.00    +0.210 HD
ENDBRANCH  39  46
ENDBRANCH  35  36
ENDBRANCH  30  35
BRANCH  27  48
ATOM     48  C   UNL     1       1.087  -3.574  30.352  0.00  0.00    +0.190 C 
BRANCH  48  49
ATOM     49  O   UNL     1       1.006  -2.165  30.151  0.00  0.00    -0.392 OA
ATOM     50  H   UNL     1       0.151  -2.012  29.711  0.00  0.00    +0.210 HD
ENDBRANCH  48  49
ENDBRANCH  27  48
ENDBRANCH  24  25
ENDBRANCH   6  24
BRANCH   1  51
ATOM     51  O   UNL     1       4.613   3.647  23.935  0.00  0.00    -0.461 OA
BRANCH  51  55
ATOM     52  C   UNL     1       8.866   3.463  23.858  0.00  0.00    +0.041 C 
ATOM     53  C   UNL     1       8.107   4.719  24.282  0.00  0.00    +0.150 C 
ATOM     54  O   UNL     1       6.746   4.400  24.603  0.00  0.00    -0.334 OA
ATOM     55  C   UNL     1       5.916   4.068  23.483  0.00  0.00    +0.339 C 
ATOM     56  C   UNL     1       5.815   5.323  22.579  0.00  0.00    +0.214 C 
ATOM     57  C   UNL     1       7.243   5.621  22.065  0.00  0.00    +0.180 C 
ATOM     58  C   UNL     1       8.210   5.851  23.244  0.00  0.00    +0.174 C 
BRANCH  58  59
ATOM     59  O   UNL     1       7.926   7.108  23.876  0.00  0.00    -0.387 OA
ATOM     60  H   UNL     1       7.410   7.641  23.229  0.00  0.00    +0.210 HD
ENDBRANCH  58  59
BRANCH  57  61
ATOM     61  O   UNL     1       7.255   6.723  21.154  0.00  0.00    -0.386 OA
ATOM     62  H   UNL     1       6.816   7.479  21.591  0.00  0.00    +0.210 HD
ENDBRANCH  57  61
BRANCH  56  63
ATOM     63  O   UNL     1       5.337   6.453  23.346  0.00  0.00    -0.383 OA
ATOM     64  H   UNL     1       5.977   7.177  23.205  0.00  0.00    +0.210 HD
ENDBRANCH  56  63
ENDBRANCH  51  55
ENDBRANCH   1  51
TORSDOF 20
ENDMDL
MODEL 9
REMARK VINA RESULT:      -5.7      2.377      4.607
REMARK  Name = 
REMARK  21 active torsions:
REMARK  status: ('A' for Active; 'I' for Inactive)
REMARK    1  A    between atoms: C_1  and  C_2
REMARK    2  A    between atoms: C_3  and  O_60
REMARK    3  A    between atoms: C_5  and  O_59
REMARK    4  A    between atoms: C_7  and  O_58
REMARK    5  A    between atoms: C_8  and  O_11
REMARK    6  A    between atoms: O_11  and  C_12
REMARK    7  A    between atoms: C_14  and  O_57
REMARK    8  A    between atoms: C_19  and  C_49
REMARK    9  A    between atoms: C_20  and  O_23
REMARK   10  A    between atoms: O_23  and  C_24
REMARK   11  A    between atoms: C_26  and  O_36
REMARK   12  A    between atoms: C_27  and  O_35
REMARK   13  A    between atoms: C_28  and  O_34
REMARK   14  A    between atoms: C_30  and  C_32
REMARK   15  A    between atoms: C_32  and  O_33
REMARK   16  A    between atoms: O_36  and  C_37
REMARK   17  A    between atoms: C_39  and  O_48
REMARK   18  A    between atoms: C_41  and  O_47
REMARK   19  A    between atoms: C_42  and  O_46
REMARK   20  A    between atoms: C_51  and  O_56
REMARK   21  A    between atoms: C_52  and  O_55
REMARK                            x       y       z     vdW  Elec       q    Type
REMARK                         _______ _______ _______ _____ _____    ______ ____
ROOT
ATOM      1  C   UNL     1       7.455  -3.929  25.678  0.00  0.00    +0.131 A 
ATOM      2  C   UNL     1       6.533  -3.195  26.428  0.00  0.00    +0.093 A 
ATOM      3  C   UNL     1       6.682  -1.819  26.623  0.00  0.00    +0.147 A 
ATOM      4  O   UNL     1       5.739  -1.193  27.398  0.00  0.00    -0.451 OA
ATOM      5  C   UNL     1       5.605   0.190  27.289  0.00  0.00    +0.181 A 
ATOM      6  C   UNL     1       6.540   0.993  26.724  0.00  0.00    +0.214 A 
ATOM      7  C   UNL     1       7.824   0.310  26.329  0.00  0.00    +0.238 A 
ATOM      8  O   UNL     1       8.884   0.922  26.269  0.00  0.00    -0.283 OA
ATOM      9  C   UNL     1       7.751  -1.141  26.060  0.00  0.00    +0.109 A 
ATOM     10  C   UNL     1       8.670  -1.858  25.284  0.00  0.00    +0.135 A 
ATOM     11  C   UNL     1       8.527  -3.245  25.096  0.00  0.00    +0.092 A 
ENDROOT
BRANCH   5  12
ATOM     12  C   UNL     1       4.342   0.681  27.900  0.00  0.00    +0.025 A 
ATOM     13  C   UNL     1       3.086   0.177  27.478  0.00  0.00    +0.015 A 
ATOM     14  C   UNL     1       1.902   0.684  28.005  0.00  0.00    +0.050 A 
ATOM     15  C   UNL     1       1.947   1.714  28.932  0.00  0.00    +0.158 A 
ATOM     16  C   UNL     1       3.167   2.238  29.342  0.00  0.00    +0.159 A 
ATOM     17  C   UNL     1       4.362   1.737  28.829  0.00  0.00    +0.060 A 
BRANCH  16  18
ATOM     18  O   UNL     1       3.137   3.256  30.256  0.00  0.00    -0.503 OA
ATOM     19  H   UNL     1       3.980   3.737  30.205  0.00  0.00    +0.292 HD
ENDBRANCH  16  18
BRANCH  15  20
ATOM     20  O   UNL     1       0.779   2.218  29.420  0.00  0.00    -0.503 OA
ATOM     21  H   UNL     1       0.886   2.183  30.392  0.00  0.00    +0.292 HD
ENDBRANCH  15  20
ENDBRANCH   5  12
BRANCH  10  22
ATOM     22  O   UNL     1       9.708  -1.216  24.674  0.00  0.00    -0.506 OA
ATOM     23  H   UNL     1      10.432  -1.839  24.498  0.00  0.00    +0.292 HD
ENDBRANCH  10  22
BRANCH   6  24
ATOM     24  O   UNL     1       6.294   2.349  26.446  0.00  0.00    -0.453 OA
BRANCH  24  25
ATOM     25  C   UNL     1       7.312   3.291  26.817  0.00  0.00    +0.340 C 
ATOM     26  O   UNL     1       7.195   3.596  28.226  0.00  0.00    -0.331 OA
ATOM     27  C   UNL     1       6.426   4.744  28.617  0.00  0.00    +0.179 C 
ATOM     28  C   UNL     1       6.882   6.015  27.915  0.00  0.00    +0.177 C 
ATOM     29  C   UNL     1       6.715   5.822  26.424  0.00  0.00    +0.180 C 
ATOM     30  C   UNL     1       7.418   4.553  25.890  0.00  0.00    +0.221 C 
BRANCH  29  31
ATOM     31  O   UNL     1       7.205   7.018  25.784  0.00  0.00    -0.386 OA
ATOM     32  H   UNL     1       6.801   7.780  26.245  0.00  0.00    +0.210 HD
ENDBRANCH  29  31
BRANCH  28  33
ATOM     33  O   UNL     1       8.248   6.335  28.203  0.00  0.00    -0.386 OA
ATOM     34  H   UNL     1       8.272   7.303  28.341  0.00  0.00    +0.210 HD
ENDBRANCH  28  33
BRANCH  30  35
ATOM     35  O   UNL     1       7.283   4.409  24.459  0.00  0.00    -0.337 OA
BRANCH  35  36
ATOM     36  C   UNL     1       8.335   4.710  23.539  0.00  0.00    +0.282 C 
ATOM     37  O   UNL     1       7.905   4.375  22.201  0.00  0.00    -0.346 OA
ATOM     38  C   UNL     1       7.638   2.982  21.999  0.00  0.00    +0.197 C 
ATOM     39  C   UNL     1       8.788   2.057  22.417  0.00  0.00    +0.171 C 
ATOM     40  C   UNL     1       9.354   2.476  23.768  0.00  0.00    +0.178 C 
ATOM     41  C   UNL     1       9.666   3.979  23.796  0.00  0.00    +0.201 C 
BRANCH  41  42
ATOM     42  O   UNL     1      10.673   4.360  22.843  0.00  0.00    -0.384 OA
ATOM     43  H   UNL     1      10.425   3.953  21.988  0.00  0.00    +0.210 HD
ENDBRANCH  41  42
BRANCH  40  44
ATOM     44  O   UNL     1      10.515   1.696  24.069  0.00  0.00    -0.386 OA
ATOM     45  H   UNL     1      10.644   1.760  25.035  0.00  0.00    +0.210 HD
ENDBRANCH  40  44
BRANCH  39  46
ATOM     46  O   UNL     1       9.863   2.080  21.466  0.00  0.00    -0.387 OA
ATOM     47  H   UNL     1      10.677   2.067  22.015  0.00  0.00    +0.210 HD
ENDBRANCH  39  46
ENDBRANCH  35  36
ENDBRANCH  30  35
BRANCH  27  48
ATOM     48  C   UNL     1       6.606   4.921  30.131  0.00  0.00    +0.190 C 
BRANCH  48  49
ATOM     49  O   UNL     1       7.960   4.648  30.485  0.00  0.00    -0.392 OA
ATOM     50  H   UNL     1       8.177   3.802  30.055  0.00  0.00    +0.210 HD
ENDBRANCH  48  49
ENDBRANCH  27  48
ENDBRANCH  24  25
ENDBRANCH   6  24
BRANCH   1  51
ATOM     51  O   UNL     1       7.421  -5.293  25.469  0.00  0.00    -0.461 OA
BRANCH  51  55
ATOM     52  C   UNL     1       6.157  -5.626  21.417  0.00  0.00    +0.041 C 
ATOM     53  C   UNL     1       5.284  -4.993  22.499  0.00  0.00    +0.150 C 
ATOM     54  O   UNL     1       6.075  -4.645  23.644  0.00  0.00    -0.334 OA
ATOM     55  C   UNL     1       6.540  -5.753  24.425  0.00  0.00    +0.339 C 
ATOM     56  C   UNL     1       5.299  -6.469  25.016  0.00  0.00    +0.214 C 
ATOM     57  C   UNL     1       4.484  -7.014  23.820  0.00  0.00    +0.180 C 
ATOM     58  C   UNL     1       4.075  -5.869  22.872  0.00  0.00    +0.174 C 
BRANCH  58  59
ATOM     59  O   UNL     1       3.065  -5.057  23.487  0.00  0.00    -0.387 OA
ATOM     60  H   UNL     1       2.231  -5.218  22.992  0.00  0.00    +0.210 HD
ENDBRANCH  58  59
BRANCH  57  61
ATOM     61  O   UNL     1       3.348  -7.765  24.257  0.00  0.00    -0.386 OA
ATOM     62  H   UNL     1       3.663  -8.640  24.556  0.00  0.00    +0.210 HD
ENDBRANCH  57  61
BRANCH  56  63
ATOM     63  O   UNL     1       4.488  -5.530  25.760  0.00  0.00    -0.383 OA
ATOM     64  H   UNL     1       5.059  -5.163  26.463  0.00  0.00    +0.210 HD
ENDBRANCH  56  63
ENDBRANCH  51  55
ENDBRANCH   1  51
TORSDOF 20
ENDMDL
