MODEL 1
REMARK VINA RESULT:      -7.7      0.000      0.000
REMARK  Name = 
REMARK  15 active torsions:
REMARK  status: ('A' for Active; 'I' for Inactive)
REMARK    1  A    between atoms: C_1  and  C_2
REMARK    2  A    between atoms: C_4  and  O_52
REMARK    3  A    between atoms: C_6  and  O_51
REMARK    4  A    between atoms: C_8  and  O_50
REMARK    5  A    between atoms: C_10  and  O_13
REMARK    6  A    between atoms: O_13  and  C_14
REMARK    7  A    between atoms: C_16  and  O_49
REMARK    8  A    between atoms: C_21  and  C_41
REMARK    9  A    between atoms: C_22  and  O_25
REMARK   10  A    between atoms: O_25  and  C_26
REMARK   11  A    between atoms: C_28  and  O_40
REMARK   12  A    between atoms: C_30  and  O_39
REMARK   13  A    between atoms: C_32  and  O_38
REMARK   14  A    between atoms: C_34  and  C_37
REMARK   15  A    between atoms: C_43  and  O_48
REMARK                            x       y       z     vdW  Elec       q    Type
REMARK                         _______ _______ _______ _____ _____    ______ ____
ROOT
ATOM      1  C   UNL     1       9.696   1.542  23.699  0.00  0.00    +0.131 A 
ATOM      2  C   UNL     1       8.810   1.044  24.662  0.00  0.00    +0.093 A 
ATOM      3  C   UNL     1       8.209  -0.210  24.475  0.00  0.00    +0.147 A 
ATOM      4  O   UNL     1       7.331  -0.664  25.434  0.00  0.00    -0.451 OA
ATOM      5  C   UNL     1       6.896  -1.991  25.361  0.00  0.00    +0.181 A 
ATOM      6  C   UNL     1       7.083  -2.805  24.302  0.00  0.00    +0.214 A 
ATOM      7  C   UNL     1       7.690  -2.153  23.103  0.00  0.00    +0.238 A 
ATOM      8  O   UNL     1       7.492  -2.584  21.976  0.00  0.00    -0.283 OA
ATOM      9  C   UNL     1       8.484  -0.945  23.328  0.00  0.00    +0.109 A 
ATOM     10  C   UNL     1       9.423  -0.480  22.406  0.00  0.00    +0.135 A 
ATOM     11  C   UNL     1      10.023   0.760  22.589  0.00  0.00    +0.092 A 
ENDROOT
BRANCH   5  12
ATOM     12  C   UNL     1       6.140  -2.407  26.555  0.00  0.00    +0.024 A 
ATOM     13  C   UNL     1       5.120  -1.618  27.078  0.00  0.00    +0.011 A 
ATOM     14  C   UNL     1       4.392  -2.055  28.200  0.00  0.00    -0.004 A 
ATOM     15  C   UNL     1       4.623  -3.278  28.859  0.00  0.00    -0.066 A 
ATOM     16  O   UNL     1       3.919  -3.623  29.875  0.00  0.00    -0.871 OA
ATOM     17  C   UNL     1       5.674  -4.038  28.301  0.00  0.00    +0.110 A 
ATOM     18  C   UNL     1       6.417  -3.628  27.175  0.00  0.00    +0.056 A 
BRANCH  17  19
ATOM     19  O   UNL     1       6.010  -5.251  28.876  0.00  0.00    -0.507 OA
ATOM     20  H   UNL     1       6.365  -5.077  29.754  0.00  0.00    +0.292 HD
ENDBRANCH  17  19
ENDBRANCH   5  12
BRANCH  10  21
ATOM     21  O   UNL     1       9.793  -1.238  21.332  0.00  0.00    -0.506 OA
ATOM     22  H   UNL     1       9.078  -1.253  20.676  0.00  0.00    +0.292 HD
ENDBRANCH  10  21
BRANCH   1  23
ATOM     23  O   UNL     1      10.306   2.763  23.682  0.00  0.00    -0.461 OA
BRANCH  23  27
ATOM     24  C   UNL     1       6.950   5.085  25.129  0.00  0.00    +0.041 C 
ATOM     25  C   UNL     1       7.385   4.976  23.671  0.00  0.00    +0.150 C 
ATOM     26  O   UNL     1       8.226   3.839  23.445  0.00  0.00    -0.334 OA
ATOM     27  C   UNL     1       9.542   3.931  23.998  0.00  0.00    +0.339 C 
ATOM     28  C   UNL     1      10.301   5.134  23.390  0.00  0.00    +0.214 C 
ATOM     29  C   UNL     1       9.491   6.429  23.532  0.00  0.00    +0.180 C 
ATOM     30  C   UNL     1       8.038   6.237  23.080  0.00  0.00    +0.174 C 
BRANCH  28  31
ATOM     31  O   UNL     1      11.595   5.303  23.995  0.00  0.00    -0.383 OA
ATOM     32  H   UNL     1      11.656   6.230  24.297  0.00  0.00    +0.210 HD
ENDBRANCH  28  31
BRANCH  29  33
ATOM     33  O   UNL     1       9.598   6.943  24.869  0.00  0.00    -0.386 OA
ATOM     34  H   UNL     1      10.173   6.378  25.409  0.00  0.00    +0.210 HD
ENDBRANCH  29  33
BRANCH  30  35
ATOM     35  O   UNL     1       8.035   6.110  21.647  0.00  0.00    -0.387 OA
ATOM     36  H   UNL     1       7.302   5.513  21.399  0.00  0.00    +0.210 HD
ENDBRANCH  30  35
ENDBRANCH  23  27
ENDBRANCH   1  23
BRANCH   6  37
ATOM     37  O   UNL     1       6.662  -4.137  24.254  0.00  0.00    -0.453 OA
BRANCH  37  38
ATOM     38  C   UNL     1       5.551  -4.365  23.370  0.00  0.00    +0.339 C 
ATOM     39  O   UNL     1       4.349  -3.692  23.775  0.00  0.00    -0.334 OA
ATOM     40  C   UNL     1       3.703  -4.234  24.928  0.00  0.00    +0.150 C 
ATOM     41  C   UNL     1       2.493  -3.354  25.237  0.00  0.00    +0.041 C 
ATOM     42  C   UNL     1       3.277  -5.684  24.671  0.00  0.00    +0.174 C 
ATOM     43  C   UNL     1       4.533  -6.501  24.330  0.00  0.00    +0.180 C 
ATOM     44  C   UNL     1       5.295  -5.872  23.155  0.00  0.00    +0.214 C 
BRANCH  42  45
ATOM     45  O   UNL     1       2.592  -6.210  25.812  0.00  0.00    -0.387 OA
ATOM     46  H   UNL     1       3.093  -6.987  26.121  0.00  0.00    +0.210 HD
ENDBRANCH  42  45
BRANCH  43  47
ATOM     47  O   UNL     1       4.143  -7.854  24.043  0.00  0.00    -0.386 OA
ATOM     48  H   UNL     1       3.169  -7.867  23.984  0.00  0.00    +0.210 HD
ENDBRANCH  43  47
BRANCH  44  49
ATOM     49  O   UNL     1       4.527  -6.078  21.945  0.00  0.00    -0.383 OA
ATOM     50  H   UNL     1       5.033  -6.702  21.386  0.00  0.00    +0.210 HD
ENDBRANCH  44  49
ENDBRANCH  37  38
ENDBRANCH   6  37
TORSDOF 13
ENDMDL
MODEL 2
REMARK VINA RESULT:      -7.7      2.273      9.056
REMARK  Name = 
REMARK  15 active torsions:
REMARK  status: ('A' for Active; 'I' for Inactive)
REMARK    1  A    between atoms: C_1  and  C_2
REMARK    2  A    between atoms: C_4  and  O_52
REMARK    3  A    between atoms: C_6  and  O_51
REMARK    4  A    between atoms: C_8  and  O_50
REMARK    5  A    between atoms: C_10  and  O_13
REMARK    6  A    between atoms: O_13  and  C_14
REMARK    7  A    between atoms: C_16  and  O_49
REMARK    8  A    between atoms: C_21  and  C_41
REMARK    9  A    between atoms: C_22  and  O_25
REMARK   10  A    between atoms: O_25  and  C_26
REMARK   11  A    between atoms: C_28  and  O_40
REMARK   12  A    between atoms: C_30  and  O_39
REMARK   13  A    between atoms: C_32  and  O_38
REMARK   14  A    between atoms: C_34  and  C_37
REMARK   15  A    between atoms: C_43  and  O_48
REMARK                            x       y       z     vdW  Elec       q    Type
REMARK                         _______ _______ _______ _____ _____    ______ ____
ROOT
ATOM      1  C   UNL     1       7.041  -3.870  24.361  0.00  0.00    +0.131 A 
ATOM      2  C   UNL     1       6.535  -2.750  25.033  0.00  0.00    +0.093 A 
ATOM      3  C   UNL     1       7.287  -1.567  25.081  0.00  0.00    +0.147 A 
ATOM      4  O   UNL     1       6.767  -0.489  25.763  0.00  0.00    -0.451 OA
ATOM      5  C   UNL     1       7.407   0.748  25.637  0.00  0.00    +0.181 A 
ATOM      6  C   UNL     1       8.624   0.932  25.087  0.00  0.00    +0.214 A 
ATOM      7  C   UNL     1       9.348  -0.322  24.719  0.00  0.00    +0.238 A 
ATOM      8  O   UNL     1      10.569  -0.361  24.669  0.00  0.00    -0.283 OA
ATOM      9  C   UNL     1       8.536  -1.516  24.477  0.00  0.00    +0.109 A 
ATOM     10  C   UNL     1       9.007  -2.608  23.746  0.00  0.00    +0.135 A 
ATOM     11  C   UNL     1       8.264  -3.781  23.692  0.00  0.00    +0.092 A 
ENDROOT
BRANCH   5  12
ATOM     12  C   UNL     1       6.634   1.851  26.235  0.00  0.00    +0.024 A 
ATOM     13  C   UNL     1       5.359   2.171  25.780  0.00  0.00    +0.011 A 
ATOM     14  C   UNL     1       4.629   3.209  26.391  0.00  0.00    -0.004 A 
ATOM     15  C   UNL     1       5.108   3.975  27.471  0.00  0.00    -0.066 A 
ATOM     16  O   UNL     1       4.390   4.903  27.990  0.00  0.00    -0.871 OA
ATOM     17  C   UNL     1       6.409   3.622  27.890  0.00  0.00    +0.110 A 
ATOM     18  C   UNL     1       7.161   2.585  27.301  0.00  0.00    +0.056 A 
BRANCH  17  19
ATOM     19  O   UNL     1       6.996   4.318  28.931  0.00  0.00    -0.507 OA
ATOM     20  H   UNL     1       6.317   4.859  29.349  0.00  0.00    +0.292 HD
ENDBRANCH  17  19
ENDBRANCH   5  12
BRANCH  10  21
ATOM     21  O   UNL     1      10.179  -2.539  23.049  0.00  0.00    -0.506 OA
ATOM     22  H   UNL     1      10.930  -2.654  23.652  0.00  0.00    +0.292 HD
ENDBRANCH  10  21
BRANCH   1  23
ATOM     23  O   UNL     1       6.484  -5.113  24.279  0.00  0.00    -0.461 OA
BRANCH  23  27
ATOM     24  C   UNL     1       2.901  -5.518  26.676  0.00  0.00    +0.041 C 
ATOM     25  C   UNL     1       3.514  -6.615  25.813  0.00  0.00    +0.150 C 
ATOM     26  O   UNL     1       4.882  -6.343  25.489  0.00  0.00    -0.334 OA
ATOM     27  C   UNL     1       5.091  -5.274  24.560  0.00  0.00    +0.339 C 
ATOM     28  C   UNL     1       4.401  -5.589  23.211  0.00  0.00    +0.214 C 
ATOM     29  C   UNL     1       2.920  -5.937  23.414  0.00  0.00    +0.180 C 
ATOM     30  C   UNL     1       2.732  -6.966  24.536  0.00  0.00    +0.174 C 
BRANCH  28  31
ATOM     31  O   UNL     1       4.518  -4.491  22.290  0.00  0.00    -0.383 OA
ATOM     32  H   UNL     1       5.312  -3.982  22.543  0.00  0.00    +0.210 HD
ENDBRANCH  28  31
BRANCH  29  33
ATOM     33  O   UNL     1       2.148  -4.743  23.616  0.00  0.00    -0.386 OA
ATOM     34  H   UNL     1       1.281  -4.819  23.187  0.00  0.00    +0.210 HD
ENDBRANCH  29  33
BRANCH  30  35
ATOM     35  O   UNL     1       3.212  -8.235  24.055  0.00  0.00    -0.387 OA
ATOM     36  H   UNL     1       3.391  -8.803  24.829  0.00  0.00    +0.210 HD
ENDBRANCH  30  35
ENDBRANCH  23  27
ENDBRANCH   1  23
BRANCH   6  37
ATOM     37  O   UNL     1       9.240   2.179  24.948  0.00  0.00    -0.453 OA
BRANCH  37  38
ATOM     38  C   UNL     1       9.485   2.557  23.582  0.00  0.00    +0.339 C 
ATOM     39  O   UNL     1      10.025   3.881  23.442  0.00  0.00    -0.334 OA
ATOM     40  C   UNL     1       9.110   4.946  23.704  0.00  0.00    +0.150 C 
ATOM     41  C   UNL     1       9.879   6.260  23.568  0.00  0.00    +0.041 C 
ATOM     42  C   UNL     1       7.934   4.895  22.724  0.00  0.00    +0.174 C 
ATOM     43  C   UNL     1       7.232   3.537  22.887  0.00  0.00    +0.180 C 
ATOM     44  C   UNL     1       8.224   2.381  22.708  0.00  0.00    +0.214 C 
BRANCH  42  45
ATOM     45  O   UNL     1       7.041   5.989  22.962  0.00  0.00    -0.387 OA
ATOM     46  H   UNL     1       6.330   5.664  23.543  0.00  0.00    +0.210 HD
ENDBRANCH  42  45
BRANCH  43  47
ATOM     47  O   UNL     1       6.151   3.457  21.942  0.00  0.00    -0.386 OA
ATOM     48  H   UNL     1       5.527   4.176  22.156  0.00  0.00    +0.210 HD
ENDBRANCH  43  47
BRANCH  44  49
ATOM     49  O   UNL     1       8.595   2.304  21.311  0.00  0.00    -0.383 OA
ATOM     50  H   UNL     1       8.819   1.369  21.124  0.00  0.00    +0.210 HD
ENDBRANCH  44  49
ENDBRANCH  37  38
ENDBRANCH   6  37
TORSDOF 13
ENDMDL
MODEL 3
REMARK VINA RESULT:      -7.5      2.425      8.758
REMARK  Name = 
REMARK  15 active torsions:
REMARK  status: ('A' for Active; 'I' for Inactive)
REMARK    1  A    between atoms: C_1  and  C_2
REMARK    2  A    between atoms: C_4  and  O_52
REMARK    3  A    between atoms: C_6  and  O_51
REMARK    4  A    between atoms: C_8  and  O_50
REMARK    5  A    between atoms: C_10  and  O_13
REMARK    6  A    between atoms: O_13  and  C_14
REMARK    7  A    between atoms: C_16  and  O_49
REMARK    8  A    between atoms: C_21  and  C_41
REMARK    9  A    between atoms: C_22  and  O_25
REMARK   10  A    between atoms: O_25  and  C_26
REMARK   11  A    between atoms: C_28  and  O_40
REMARK   12  A    between atoms: C_30  and  O_39
REMARK   13  A    between atoms: C_32  and  O_38
REMARK   14  A    between atoms: C_34  and  C_37
REMARK   15  A    between atoms: C_43  and  O_48
REMARK                            x       y       z     vdW  Elec       q    Type
REMARK                         _______ _______ _______ _____ _____    ______ ____
ROOT
ATOM      1  C   UNL     1       8.171  -3.558  25.084  0.00  0.00    +0.131 A 
ATOM      2  C   UNL     1       7.503  -2.547  25.786  0.00  0.00    +0.093 A 
ATOM      3  C   UNL     1       7.932  -1.216  25.669  0.00  0.00    +0.147 A 
ATOM      4  O   UNL     1       7.263  -0.248  26.385  0.00  0.00    -0.451 OA
ATOM      5  C   UNL     1       7.546   1.094  26.112  0.00  0.00    +0.181 A 
ATOM      6  C   UNL     1       8.583   1.525  25.366  0.00  0.00    +0.214 A 
ATOM      7  C   UNL     1       9.537   0.460  24.933  0.00  0.00    +0.238 A 
ATOM      8  O   UNL     1      10.707   0.716  24.688  0.00  0.00    -0.283 OA
ATOM      9  C   UNL     1       9.025  -0.909  24.869  0.00  0.00    +0.109 A 
ATOM     10  C   UNL     1       9.643  -1.907  24.113  0.00  0.00    +0.135 A 
ATOM     11  C   UNL     1       9.219  -3.226  24.223  0.00  0.00    +0.092 A 
ENDROOT
BRANCH   5  12
ATOM     12  C   UNL     1       6.616   2.018  26.784  0.00  0.00    +0.024 A 
ATOM     13  C   UNL     1       6.841   2.451  28.087  0.00  0.00    +0.011 A 
ATOM     14  C   UNL     1       5.954   3.360  28.695  0.00  0.00    -0.004 A 
ATOM     15  C   UNL     1       4.813   3.887  28.059  0.00  0.00    -0.066 A 
ATOM     16  O   UNL     1       4.047   4.719  28.665  0.00  0.00    -0.871 OA
ATOM     17  C   UNL     1       4.619   3.410  26.745  0.00  0.00    +0.110 A 
ATOM     18  C   UNL     1       5.493   2.504  26.109  0.00  0.00    +0.056 A 
BRANCH  17  19
ATOM     19  O   UNL     1       3.519   3.840  26.025  0.00  0.00    -0.507 OA
ATOM     20  H   UNL     1       3.789   3.957  25.108  0.00  0.00    +0.292 HD
ENDBRANCH  17  19
ENDBRANCH   5  12
BRANCH  10  21
ATOM     21  O   UNL     1      10.645  -1.609  23.234  0.00  0.00    -0.506 OA
ATOM     22  H   UNL     1      10.963  -2.420  22.809  0.00  0.00    +0.292 HD
ENDBRANCH  10  21
BRANCH   1  23
ATOM     23  O   UNL     1       7.938  -4.902  25.139  0.00  0.00    -0.461 OA
BRANCH  23  27
ATOM     24  C   UNL     1       6.006  -6.262  21.511  0.00  0.00    +0.041 C 
ATOM     25  C   UNL     1       5.571  -5.063  22.347  0.00  0.00    +0.150 C 
ATOM     26  O   UNL     1       6.614  -4.607  23.216  0.00  0.00    -0.334 OA
ATOM     27  C   UNL     1       6.913  -5.468  24.318  0.00  0.00    +0.339 C 
ATOM     28  C   UNL     1       5.669  -5.643  25.221  0.00  0.00    +0.214 C 
ATOM     29  C   UNL     1       4.453  -6.101  24.405  0.00  0.00    +0.180 C 
ATOM     30  C   UNL     1       4.268  -5.249  23.143  0.00  0.00    +0.174 C 
BRANCH  28  31
ATOM     31  O   UNL     1       5.917  -6.577  26.286  0.00  0.00    -0.383 OA
ATOM     32  H   UNL     1       6.885  -6.688  26.357  0.00  0.00    +0.210 HD
ENDBRANCH  28  31
BRANCH  29  33
ATOM     33  O   UNL     1       4.538  -7.507  24.124  0.00  0.00    -0.386 OA
ATOM     34  H   UNL     1       5.180  -7.936  24.711  0.00  0.00    +0.210 HD
ENDBRANCH  29  33
BRANCH  30  35
ATOM     35  O   UNL     1       3.806  -3.949  23.552  0.00  0.00    -0.387 OA
ATOM     36  H   UNL     1       4.200  -3.749  24.423  0.00  0.00    +0.210 HD
ENDBRANCH  30  35
ENDBRANCH  23  27
ENDBRANCH   1  23
BRANCH   6  37
ATOM     37  O   UNL     1       8.838   2.871  25.083  0.00  0.00    -0.453 OA
BRANCH  37  38
ATOM     38  C   UNL     1       9.166   3.123  23.705  0.00  0.00    +0.339 C 
ATOM     39  O   UNL     1       9.423   4.507  23.422  0.00  0.00    -0.334 OA
ATOM     40  C   UNL     1       8.276   5.359  23.436  0.00  0.00    +0.150 C 
ATOM     41  C   UNL     1       8.757   6.786  23.179  0.00  0.00    +0.041 C 
ATOM     42  C   UNL     1       7.270   4.918  22.367  0.00  0.00    +0.174 C 
ATOM     43  C   UNL     1       6.860   3.467  22.663  0.00  0.00    +0.180 C 
ATOM     44  C   UNL     1       8.091   2.555  22.752  0.00  0.00    +0.214 C 
BRANCH  42  45
ATOM     45  O   UNL     1       6.142   5.799  22.354  0.00  0.00    -0.387 OA
ATOM     46  H   UNL     1       5.502   5.463  23.008  0.00  0.00    +0.210 HD
ENDBRANCH  42  45
BRANCH  43  47
ATOM     47  O   UNL     1       5.948   3.024  21.643  0.00  0.00    -0.386 OA
ATOM     48  H   UNL     1       5.577   3.823  21.222  0.00  0.00    +0.210 HD
ENDBRANCH  43  47
BRANCH  44  49
ATOM     49  O   UNL     1       8.642   2.393  21.424  0.00  0.00    -0.383 OA
ATOM     50  H   UNL     1       8.230   1.594  21.037  0.00  0.00    +0.210 HD
ENDBRANCH  44  49
ENDBRANCH  37  38
ENDBRANCH   6  37
TORSDOF 13
ENDMDL
MODEL 4
REMARK VINA RESULT:      -7.4      2.455      5.152
REMARK  Name = 
REMARK  15 active torsions:
REMARK  status: ('A' for Active; 'I' for Inactive)
REMARK    1  A    between atoms: C_1  and  C_2
REMARK    2  A    between atoms: C_4  and  O_52
REMARK    3  A    between atoms: C_6  and  O_51
REMARK    4  A    between atoms: C_8  and  O_50
REMARK    5  A    between atoms: C_10  and  O_13
REMARK    6  A    between atoms: O_13  and  C_14
REMARK    7  A    between atoms: C_16  and  O_49
REMARK    8  A    between atoms: C_21  and  C_41
REMARK    9  A    between atoms: C_22  and  O_25
REMARK   10  A    between atoms: O_25  and  C_26
REMARK   11  A    between atoms: C_28  and  O_40
REMARK   12  A    between atoms: C_30  and  O_39
REMARK   13  A    between atoms: C_32  and  O_38
REMARK   14  A    between atoms: C_34  and  C_37
REMARK   15  A    between atoms: C_43  and  O_48
REMARK                            x       y       z     vdW  Elec       q    Type
REMARK                         _______ _______ _______ _____ _____    ______ ____
ROOT
ATOM      1  C   UNL     1       7.838  -1.921  23.489  0.00  0.00    +0.131 A 
ATOM      2  C   UNL     1       6.803  -2.819  23.202  0.00  0.00    +0.093 A 
ATOM      3  C   UNL     1       6.526  -3.870  24.088  0.00  0.00    +0.147 A 
ATOM      4  O   UNL     1       5.511  -4.745  23.768  0.00  0.00    -0.451 OA
ATOM      5  C   UNL     1       5.093  -5.660  24.739  0.00  0.00    +0.181 A 
ATOM      6  C   UNL     1       5.749  -5.915  25.890  0.00  0.00    +0.214 A 
ATOM      7  C   UNL     1       7.074  -5.240  26.025  0.00  0.00    +0.238 A 
ATOM      8  O   UNL     1       7.959  -5.710  26.726  0.00  0.00    -0.283 OA
ATOM      9  C   UNL     1       7.289  -4.024  25.239  0.00  0.00    +0.109 A 
ATOM     10  C   UNL     1       8.271  -3.086  25.561  0.00  0.00    +0.135 A 
ATOM     11  C   UNL     1       8.547  -2.041  24.686  0.00  0.00    +0.092 A 
ENDROOT
BRANCH   5  12
ATOM     12  C   UNL     1       3.870  -6.382  24.348  0.00  0.00    +0.024 A 
ATOM     13  C   UNL     1       3.020  -5.888  23.365  0.00  0.00    +0.011 A 
ATOM     14  C   UNL     1       1.875  -6.615  22.988  0.00  0.00    -0.004 A 
ATOM     15  C   UNL     1       1.511  -7.855  23.550  0.00  0.00    -0.066 A 
ATOM     16  O   UNL     1       0.457  -8.472  23.157  0.00  0.00    -0.871 OA
ATOM     17  C   UNL     1       2.396  -8.310  24.551  0.00  0.00    +0.110 A 
ATOM     18  C   UNL     1       3.552  -7.606  24.945  0.00  0.00    +0.056 A 
BRANCH  17  19
ATOM     19  O   UNL     1       2.132  -9.506  25.192  0.00  0.00    -0.507 OA
ATOM     20  H   UNL     1       1.536  -9.327  25.927  0.00  0.00    +0.292 HD
ENDBRANCH  17  19
ENDBRANCH   5  12
BRANCH  10  21
ATOM     21  O   UNL     1       8.953  -3.154  26.741  0.00  0.00    -0.506 OA
ATOM     22  H   UNL     1       8.727  -2.392  27.298  0.00  0.00    +0.292 HD
ENDBRANCH  10  21
BRANCH   1  23
ATOM     23  O   UNL     1       8.291  -0.895  22.709  0.00  0.00    -0.461 OA
BRANCH  23  27
ATOM     24  C   UNL     1       7.563   2.360  25.469  0.00  0.00    +0.041 C 
ATOM     25  C   UNL     1       6.590   1.875  24.400  0.00  0.00    +0.150 C 
ATOM     26  O   UNL     1       6.908   0.556  23.943  0.00  0.00    -0.334 OA
ATOM     27  C   UNL     1       8.088   0.453  23.142  0.00  0.00    +0.339 C 
ATOM     28  C   UNL     1       7.949   1.312  21.862  0.00  0.00    +0.214 C 
ATOM     29  C   UNL     1       7.572   2.759  22.205  0.00  0.00    +0.180 C 
ATOM     30  C   UNL     1       6.404   2.817  23.198  0.00  0.00    +0.174 C 
BRANCH  28  31
ATOM     31  O   UNL     1       9.158   1.299  21.083  0.00  0.00    -0.383 OA
ATOM     32  H   UNL     1       9.832   0.816  21.600  0.00  0.00    +0.210 HD
ENDBRANCH  28  31
BRANCH  29  33
ATOM     33  O   UNL     1       8.726   3.485  22.656  0.00  0.00    -0.386 OA
ATOM     34  H   UNL     1       9.542   3.028  22.397  0.00  0.00    +0.210 HD
ENDBRANCH  29  33
BRANCH  30  35
ATOM     35  O   UNL     1       5.211   2.418  22.500  0.00  0.00    -0.387 OA
ATOM     36  H   UNL     1       5.303   2.691  21.566  0.00  0.00    +0.210 HD
ENDBRANCH  30  35
ENDBRANCH  23  27
ENDBRANCH   1  23
BRANCH   6  37
ATOM     37  O   UNL     1       5.304  -6.817  26.861  0.00  0.00    -0.453 OA
BRANCH  37  38
ATOM     38  C   UNL     1       5.085  -6.219  28.151  0.00  0.00    +0.339 C 
ATOM     39  O   UNL     1       4.298  -7.035  29.034  0.00  0.00    -0.334 OA
ATOM     40  C   UNL     1       2.912  -7.133  28.704  0.00  0.00    +0.150 C 
ATOM     41  C   UNL     1       2.264  -8.084  29.710  0.00  0.00    +0.041 C 
ATOM     42  C   UNL     1       2.251  -5.751  28.752  0.00  0.00    +0.174 C 
ATOM     43  C   UNL     1       2.974  -4.839  27.748  0.00  0.00    +0.180 C 
ATOM     44  C   UNL     1       4.483  -4.802  28.027  0.00  0.00    +0.214 C 
BRANCH  42  45
ATOM     45  O   UNL     1       0.853  -5.859  28.463  0.00  0.00    -0.387 OA
ATOM     46  H   UNL     1       0.721  -5.564  27.544  0.00  0.00    +0.210 HD
ENDBRANCH  42  45
BRANCH  43  47
ATOM     47  O   UNL     1       2.393  -3.525  27.812  0.00  0.00    -0.386 OA
ATOM     48  H   UNL     1       3.082  -2.892  27.534  0.00  0.00    +0.210 HD
ENDBRANCH  43  47
BRANCH  44  49
ATOM     49  O   UNL     1       4.708  -4.058  29.248  0.00  0.00    -0.383 OA
ATOM     50  H   UNL     1       5.571  -4.349  29.606  0.00  0.00    +0.210 HD
ENDBRANCH  44  49
ENDBRANCH  37  38
ENDBRANCH   6  37
TORSDOF 13
ENDMDL
MODEL 5
REMARK VINA RESULT:      -7.3      2.425      8.966
REMARK  Name = 
REMARK  15 active torsions:
REMARK  status: ('A' for Active; 'I' for Inactive)
REMARK    1  A    between atoms: C_1  and  C_2
REMARK    2  A    between atoms: C_4  and  O_52
REMARK    3  A    between atoms: C_6  and  O_51
REMARK    4  A    between atoms: C_8  and  O_50
REMARK    5  A    between atoms: C_10  and  O_13
REMARK    6  A    between atoms: O_13  and  C_14
REMARK    7  A    between atoms: C_16  and  O_49
REMARK    8  A    between atoms: C_21  and  C_41
REMARK    9  A    between atoms: C_22  and  O_25
REMARK   10  A    between atoms: O_25  and  C_26
REMARK   11  A    between atoms: C_28  and  O_40
REMARK   12  A    between atoms: C_30  and  O_39
REMARK   13  A    between atoms: C_32  and  O_38
REMARK   14  A    between atoms: C_34  and  C_37
REMARK   15  A    between atoms: C_43  and  O_48
REMARK                            x       y       z     vdW  Elec       q    Type
REMARK                         _______ _______ _______ _____ _____    ______ ____
ROOT
ATOM      1  C   UNL     1       7.280  -3.901  24.544  0.00  0.00    +0.131 A 
ATOM      2  C   UNL     1       6.583  -2.816  25.091  0.00  0.00    +0.093 A 
ATOM      3  C   UNL     1       7.201  -1.560  25.172  0.00  0.00    +0.147 A 
ATOM      4  O   UNL     1       6.494  -0.518  25.730  0.00  0.00    -0.451 OA
ATOM      5  C   UNL     1       7.018   0.774  25.621  0.00  0.00    +0.181 A 
ATOM      6  C   UNL     1       8.271   1.064  25.215  0.00  0.00    +0.214 A 
ATOM      7  C   UNL     1       9.157  -0.120  25.001  0.00  0.00    +0.238 A 
ATOM      8  O   UNL     1      10.372  -0.031  25.103  0.00  0.00    -0.283 OA
ATOM      9  C   UNL     1       8.506  -1.400  24.722  0.00  0.00    +0.109 A 
ATOM     10  C   UNL     1       9.172  -2.463  24.110  0.00  0.00    +0.135 A 
ATOM     11  C   UNL     1       8.562  -3.709  24.025  0.00  0.00    +0.092 A 
ENDROOT
BRANCH   5  12
ATOM     12  C   UNL     1       6.070   1.811  26.064  0.00  0.00    +0.024 A 
ATOM     13  C   UNL     1       6.201   2.433  27.301  0.00  0.00    +0.011 A 
ATOM     14  C   UNL     1       5.299   3.443  27.685  0.00  0.00    -0.004 A 
ATOM     15  C   UNL     1       4.234   3.893  26.880  0.00  0.00    -0.066 A 
ATOM     16  O   UNL     1       3.450   4.824  27.285  0.00  0.00    -0.871 OA
ATOM     17  C   UNL     1       4.133   3.225  25.641  0.00  0.00    +0.110 A 
ATOM     18  C   UNL     1       5.025   2.213  25.227  0.00  0.00    +0.056 A 
BRANCH  17  19
ATOM     19  O   UNL     1       3.113   3.565  24.771  0.00  0.00    -0.507 OA
ATOM     20  H   UNL     1       2.954   4.511  24.852  0.00  0.00    +0.292 HD
ENDBRANCH  17  19
ENDBRANCH   5  12
BRANCH  10  21
ATOM     21  O   UNL     1      10.410  -2.297  23.559  0.00  0.00    -0.506 OA
ATOM     22  H   UNL     1      11.066  -2.805  24.061  0.00  0.00    +0.292 HD
ENDBRANCH  10  21
BRANCH   1  23
ATOM     23  O   UNL     1       6.864  -5.198  24.457  0.00  0.00    -0.461 OA
BRANCH  23  27
ATOM     24  C   UNL     1       3.319  -6.984  26.185  0.00  0.00    +0.041 C 
ATOM     25  C   UNL     1       3.793  -5.555  26.423  0.00  0.00    +0.150 C 
ATOM     26  O   UNL     1       4.717  -5.121  25.420  0.00  0.00    -0.334 OA
ATOM     27  C   UNL     1       6.012  -5.729  25.476  0.00  0.00    +0.339 C 
ATOM     28  C   UNL     1       6.695  -5.421  26.829  0.00  0.00    +0.214 C 
ATOM     29  C   UNL     1       5.791  -5.809  28.007  0.00  0.00    +0.180 C 
ATOM     30  C   UNL     1       4.366  -5.273  27.823  0.00  0.00    +0.174 C 
BRANCH  28  31
ATOM     31  O   UNL     1       7.959  -6.096  26.947  0.00  0.00    -0.383 OA
ATOM     32  H   UNL     1       8.260  -6.312  26.043  0.00  0.00    +0.210 HD
ENDBRANCH  28  31
BRANCH  29  33
ATOM     33  O   UNL     1       5.831  -7.228  28.225  0.00  0.00    -0.386 OA
ATOM     34  H   UNL     1       6.684  -7.594  27.942  0.00  0.00    +0.210 HD
ENDBRANCH  29  33
BRANCH  30  35
ATOM     35  O   UNL     1       4.403  -3.846  28.009  0.00  0.00    -0.387 OA
ATOM     36  H   UNL     1       4.805  -3.449  27.213  0.00  0.00    +0.210 HD
ENDBRANCH  30  35
ENDBRANCH  23  27
ENDBRANCH   1  23
BRANCH   6  37
ATOM     37  O   UNL     1       8.772   2.364  25.089  0.00  0.00    -0.453 OA
BRANCH  37  38
ATOM     38  C   UNL     1       9.208   2.692  23.759  0.00  0.00    +0.339 C 
ATOM     39  O   UNL     1       9.844   3.977  23.665  0.00  0.00    -0.334 OA
ATOM     40  C   UNL     1       8.973   5.102  23.794  0.00  0.00    +0.150 C 
ATOM     41  C   UNL     1       9.834   6.363  23.732  0.00  0.00    +0.041 C 
ATOM     42  C   UNL     1       7.925   5.098  22.674  0.00  0.00    +0.174 C 
ATOM     43  C   UNL     1       7.124   3.790  22.771  0.00  0.00    +0.180 C 
ATOM     44  C   UNL     1       8.056   2.571  22.737  0.00  0.00    +0.214 C 
BRANCH  42  45
ATOM     45  O   UNL     1       7.082   6.250  22.780  0.00  0.00    -0.387 OA
ATOM     46  H   UNL     1       6.262   5.970  23.228  0.00  0.00    +0.210 HD
ENDBRANCH  42  45
BRANCH  43  47
ATOM     47  O   UNL     1       6.166   3.752  21.700  0.00  0.00    -0.386 OA
ATOM     48  H   UNL     1       6.669   3.757  20.864  0.00  0.00    +0.210 HD
ENDBRANCH  43  47
BRANCH  44  49
ATOM     49  O   UNL     1       8.591   2.438  21.399  0.00  0.00    -0.383 OA
ATOM     50  H   UNL     1       7.959   1.891  20.890  0.00  0.00    +0.210 HD
ENDBRANCH  44  49
ENDBRANCH  37  38
ENDBRANCH   6  37
TORSDOF 13
ENDMDL
MODEL 6
REMARK VINA RESULT:      -7.1      1.827      4.105
REMARK  Name = 
REMARK  15 active torsions:
REMARK  status: ('A' for Active; 'I' for Inactive)
REMARK    1  A    between atoms: C_1  and  C_2
REMARK    2  A    between atoms: C_4  and  O_52
REMARK    3  A    between atoms: C_6  and  O_51
REMARK    4  A    between atoms: C_8  and  O_50
REMARK    5  A    between atoms: C_10  and  O_13
REMARK    6  A    between atoms: O_13  and  C_14
REMARK    7  A    between atoms: C_16  and  O_49
REMARK    8  A    between atoms: C_21  and  C_41
REMARK    9  A    between atoms: C_22  and  O_25
REMARK   10  A    between atoms: O_25  and  C_26
REMARK   11  A    between atoms: C_28  and  O_40
REMARK   12  A    between atoms: C_30  and  O_39
REMARK   13  A    between atoms: C_32  and  O_38
REMARK   14  A    between atoms: C_34  and  C_37
REMARK   15  A    between atoms: C_43  and  O_48
REMARK                            x       y       z     vdW  Elec       q    Type
REMARK                         _______ _______ _______ _____ _____    ______ ____
ROOT
ATOM      1  C   UNL     1       8.003   0.890  23.409  0.00  0.00    +0.131 A 
ATOM      2  C   UNL     1       7.150  -0.157  23.039  0.00  0.00    +0.093 A 
ATOM      3  C   UNL     1       7.075  -1.310  23.835  0.00  0.00    +0.147 A 
ATOM      4  O   UNL     1       6.237  -2.327  23.434  0.00  0.00    -0.451 OA
ATOM      5  C   UNL     1       5.998  -3.380  24.324  0.00  0.00    +0.181 A 
ATOM      6  C   UNL     1       6.695  -3.603  25.457  0.00  0.00    +0.214 A 
ATOM      7  C   UNL     1       7.874  -2.708  25.660  0.00  0.00    +0.238 A 
ATOM      8  O   UNL     1       8.833  -3.063  26.330  0.00  0.00    -0.283 OA
ATOM      9  C   UNL     1       7.858  -1.414  24.977  0.00  0.00    +0.109 A 
ATOM     10  C   UNL     1       8.652  -0.341  25.384  0.00  0.00    +0.135 A 
ATOM     11  C   UNL     1       8.727   0.805  24.600  0.00  0.00    +0.092 A 
ENDROOT
BRANCH   5  12
ATOM     12  C   UNL     1       4.928  -4.280  23.862  0.00  0.00    +0.024 A 
ATOM     13  C   UNL     1       5.210  -5.415  23.109  0.00  0.00    +0.011 A 
ATOM     14  C   UNL     1       4.170  -6.276  22.709  0.00  0.00    -0.004 A 
ATOM     15  C   UNL     1       2.813  -6.070  23.028  0.00  0.00    -0.066 A 
ATOM     16  O   UNL     1       1.913  -6.897  22.639  0.00  0.00    -0.871 OA
ATOM     17  C   UNL     1       2.574  -4.902  23.783  0.00  0.00    +0.110 A 
ATOM     18  C   UNL     1       3.596  -4.024  24.202  0.00  0.00    +0.056 A 
BRANCH  17  19
ATOM     19  O   UNL     1       1.277  -4.581  24.139  0.00  0.00    -0.507 OA
ATOM     20  H   UNL     1       1.273  -3.676  24.470  0.00  0.00    +0.292 HD
ENDBRANCH  17  19
ENDBRANCH   5  12
BRANCH  10  21
ATOM     21  O   UNL     1       9.340  -0.378  26.563  0.00  0.00    -0.506 OA
ATOM     22  H   UNL     1       8.787  -0.771  27.256  0.00  0.00    +0.292 HD
ENDBRANCH  10  21
BRANCH   1  23
ATOM     23  O   UNL     1       8.256   2.041  22.720  0.00  0.00    -0.461 OA
BRANCH  23  27
ATOM     24  C   UNL     1       5.125   4.770  23.943  0.00  0.00    +0.041 C 
ATOM     25  C   UNL     1       5.937   4.878  22.657  0.00  0.00    +0.150 C 
ATOM     26  O   UNL     1       6.576   3.642  22.320  0.00  0.00    -0.334 OA
ATOM     27  C   UNL     1       7.668   3.266  23.166  0.00  0.00    +0.339 C 
ATOM     28  C   UNL     1       8.784   4.336  23.116  0.00  0.00    +0.214 C 
ATOM     29  C   UNL     1       8.227   5.732  23.427  0.00  0.00    +0.180 C 
ATOM     30  C   UNL     1       6.959   6.026  22.615  0.00  0.00    +0.174 C 
BRANCH  28  31
ATOM     31  O   UNL     1       9.853   4.028  24.027  0.00  0.00    -0.383 OA
ATOM     32  H   UNL     1      10.639   4.527  23.733  0.00  0.00    +0.210 HD
ENDBRANCH  28  31
BRANCH  29  33
ATOM     33  O   UNL     1       8.035   5.892  24.841  0.00  0.00    -0.386 OA
ATOM     34  H   UNL     1       8.243   5.069  25.310  0.00  0.00    +0.210 HD
ENDBRANCH  29  33
BRANCH  30  35
ATOM     35  O   UNL     1       7.350   6.225  21.243  0.00  0.00    -0.387 OA
ATOM     36  H   UNL     1       8.309   6.055  21.176  0.00  0.00    +0.210 HD
ENDBRANCH  30  35
ENDBRANCH  23  27
ENDBRANCH   1  23
BRANCH   6  37
ATOM     37  O   UNL     1       6.428  -4.647  26.347  0.00  0.00    -0.453 OA
BRANCH  37  38
ATOM     38  C   UNL     1       5.855  -4.214  27.594  0.00  0.00    +0.339 C 
ATOM     39  O   UNL     1       6.310  -4.972  28.726  0.00  0.00    -0.334 OA
ATOM     40  C   UNL     1       5.807  -6.306  28.813  0.00  0.00    +0.150 C 
ATOM     41  C   UNL     1       6.449  -6.963  30.035  0.00  0.00    +0.041 C 
ATOM     42  C   UNL     1       4.279  -6.294  28.935  0.00  0.00    +0.174 C 
ATOM     43  C   UNL     1       3.704  -5.588  27.698  0.00  0.00    +0.180 C 
ATOM     44  C   UNL     1       4.312  -4.188  27.532  0.00  0.00    +0.214 C 
BRANCH  42  45
ATOM     45  O   UNL     1       3.782  -7.631  29.066  0.00  0.00    -0.387 OA
ATOM     46  H   UNL     1       4.529  -8.193  29.341  0.00  0.00    +0.210 HD
ENDBRANCH  42  45
BRANCH  43  47
ATOM     47  O   UNL     1       2.273  -5.531  27.818  0.00  0.00    -0.386 OA
ATOM     48  H   UNL     1       2.071  -4.944  28.572  0.00  0.00    +0.210 HD
ENDBRANCH  43  47
BRANCH  44  49
ATOM     49  O   UNL     1       3.788  -3.332  28.575  0.00  0.00    -0.383 OA
ATOM     50  H   UNL     1       3.115  -3.850  29.060  0.00  0.00    +0.210 HD
ENDBRANCH  44  49
ENDBRANCH  37  38
ENDBRANCH   6  37
TORSDOF 13
ENDMDL
MODEL 7
REMARK VINA RESULT:      -7.1      2.305      9.373
REMARK  Name = 
REMARK  15 active torsions:
REMARK  status: ('A' for Active; 'I' for Inactive)
REMARK    1  A    between atoms: C_1  and  C_2
REMARK    2  A    between atoms: C_4  and  O_52
REMARK    3  A    between atoms: C_6  and  O_51
REMARK    4  A    between atoms: C_8  and  O_50
REMARK    5  A    between atoms: C_10  and  O_13
REMARK    6  A    between atoms: O_13  and  C_14
REMARK    7  A    between atoms: C_16  and  O_49
REMARK    8  A    between atoms: C_21  and  C_41
REMARK    9  A    between atoms: C_22  and  O_25
REMARK   10  A    between atoms: O_25  and  C_26
REMARK   11  A    between atoms: C_28  and  O_40
REMARK   12  A    between atoms: C_30  and  O_39
REMARK   13  A    between atoms: C_32  and  O_38
REMARK   14  A    between atoms: C_34  and  C_37
REMARK   15  A    between atoms: C_43  and  O_48
REMARK                            x       y       z     vdW  Elec       q    Type
REMARK                         _______ _______ _______ _____ _____    ______ ____
ROOT
ATOM      1  C   UNL     1       5.164  -5.987  24.716  0.00  0.00    +0.131 A 
ATOM      2  C   UNL     1       5.221  -4.843  25.523  0.00  0.00    +0.093 A 
ATOM      3  C   UNL     1       5.889  -3.699  25.064  0.00  0.00    +0.147 A 
ATOM      4  O   UNL     1       5.940  -2.596  25.888  0.00  0.00    -0.451 OA
ATOM      5  C   UNL     1       6.415  -1.392  25.359  0.00  0.00    +0.181 A 
ATOM      6  C   UNL     1       7.043  -1.269  24.171  0.00  0.00    +0.214 A 
ATOM      7  C   UNL     1       7.338  -2.557  23.475  0.00  0.00    +0.238 A 
ATOM      8  O   UNL     1       8.267  -2.655  22.687  0.00  0.00    -0.283 OA
ATOM      9  C   UNL     1       6.504  -3.709  23.818  0.00  0.00    +0.109 A 
ATOM     10  C   UNL     1       6.383  -4.823  22.985  0.00  0.00    +0.135 A 
ATOM     11  C   UNL     1       5.719  -5.958  23.435  0.00  0.00    +0.092 A 
ENDROOT
BRANCH   5  12
ATOM     12  C   UNL     1       6.216  -0.253  26.271  0.00  0.00    +0.024 A 
ATOM     13  C   UNL     1       5.173   0.648  26.088  0.00  0.00    +0.011 A 
ATOM     14  C   UNL     1       4.987   1.709  26.994  0.00  0.00    -0.004 A 
ATOM     15  C   UNL     1       5.805   1.935  28.118  0.00  0.00    -0.066 A 
ATOM     16  O   UNL     1       5.578   2.917  28.912  0.00  0.00    -0.871 OA
ATOM     17  C   UNL     1       6.856   1.003  28.256  0.00  0.00    +0.110 A 
ATOM     18  C   UNL     1       7.064  -0.072  27.367  0.00  0.00    +0.056 A 
BRANCH  17  19
ATOM     19  O   UNL     1       7.741   1.134  29.311  0.00  0.00    -0.507 OA
ATOM     20  H   UNL     1       7.799   0.283  29.760  0.00  0.00    +0.292 HD
ENDBRANCH  17  19
ENDBRANCH   5  12
BRANCH  10  21
ATOM     21  O   UNL     1       6.880  -4.812  21.714  0.00  0.00    -0.506 OA
ATOM     22  H   UNL     1       6.191  -4.528  21.092  0.00  0.00    +0.292 HD
ENDBRANCH  10  21
BRANCH   1  23
ATOM     23  O   UNL     1       4.626  -7.201  25.032  0.00  0.00    -0.461 OA
BRANCH  23  27
ATOM     24  C   UNL     1       1.137  -8.402  22.767  0.00  0.00    +0.041 C 
ATOM     25  C   UNL     1       1.469  -6.974  23.186  0.00  0.00    +0.150 C 
ATOM     26  O   UNL     1       2.850  -6.823  23.534  0.00  0.00    -0.334 OA
ATOM     27  C   UNL     1       3.243  -7.445  24.762  0.00  0.00    +0.339 C 
ATOM     28  C   UNL     1       2.449  -6.847  25.949  0.00  0.00    +0.214 C 
ATOM     29  C   UNL     1       0.938  -6.912  25.692  0.00  0.00    +0.180 C 
ATOM     30  C   UNL     1       0.580  -6.387  24.296  0.00  0.00    +0.174 C 
BRANCH  28  31
ATOM     31  O   UNL     1       2.760  -7.518  27.182  0.00  0.00    -0.383 OA
ATOM     32  H   UNL     1       2.926  -8.457  26.970  0.00  0.00    +0.210 HD
ENDBRANCH  28  31
BRANCH  29  33
ATOM     33  O   UNL     1       0.444  -8.239  25.934  0.00  0.00    -0.386 OA
ATOM     34  H   UNL     1      -0.325  -8.426  25.372  0.00  0.00    +0.210 HD
ENDBRANCH  29  33
BRANCH  30  35
ATOM     35  O   UNL     1       0.761  -4.959  24.302  0.00  0.00    -0.387 OA
ATOM     36  H   UNL     1       1.307  -4.721  23.528  0.00  0.00    +0.210 HD
ENDBRANCH  30  35
ENDBRANCH  23  27
ENDBRANCH   1  23
BRANCH   6  37
ATOM     37  O   UNL     1       7.491  -0.053  23.645  0.00  0.00    -0.453 OA
BRANCH  37  38
ATOM     38  C   UNL     1       8.724   0.410  24.222  0.00  0.00    +0.339 C 
ATOM     39  O   UNL     1       8.555   1.519  25.120  0.00  0.00    -0.334 OA
ATOM     40  C   UNL     1       8.231   2.764  24.501  0.00  0.00    +0.150 C 
ATOM     41  C   UNL     1       8.030   3.794  25.612  0.00  0.00    +0.041 C 
ATOM     42  C   UNL     1       9.351   3.196  23.548  0.00  0.00    +0.174 C 
ATOM     43  C   UNL     1       9.524   2.101  22.484  0.00  0.00    +0.180 C 
ATOM     44  C   UNL     1       9.773   0.735  23.137  0.00  0.00    +0.214 C 
BRANCH  42  45
ATOM     45  O   UNL     1       9.042   4.465  22.963  0.00  0.00    -0.387 OA
ATOM     46  H   UNL     1       8.819   4.309  22.027  0.00  0.00    +0.210 HD
ENDBRANCH  42  45
BRANCH  43  47
ATOM     47  O   UNL     1      10.602   2.472  21.607  0.00  0.00    -0.386 OA
ATOM     48  H   UNL     1      11.244   2.980  22.139  0.00  0.00    +0.210 HD
ENDBRANCH  43  47
BRANCH  44  49
ATOM     49  O   UNL     1      11.101   0.735  23.713  0.00  0.00    -0.383 OA
ATOM     50  H   UNL     1      11.040   1.194  24.575  0.00  0.00    +0.210 HD
ENDBRANCH  44  49
ENDBRANCH  37  38
ENDBRANCH   6  37
TORSDOF 13
ENDMDL
MODEL 8
REMARK VINA RESULT:      -7.0      1.554      2.357
REMARK  Name = 
REMARK  15 active torsions:
REMARK  status: ('A' for Active; 'I' for Inactive)
REMARK    1  A    between atoms: C_1  and  C_2
REMARK    2  A    between atoms: C_4  and  O_52
REMARK    3  A    between atoms: C_6  and  O_51
REMARK    4  A    between atoms: C_8  and  O_50
REMARK    5  A    between atoms: C_10  and  O_13
REMARK    6  A    between atoms: O_13  and  C_14
REMARK    7  A    between atoms: C_16  and  O_49
REMARK    8  A    between atoms: C_21  and  C_41
REMARK    9  A    between atoms: C_22  and  O_25
REMARK   10  A    between atoms: O_25  and  C_26
REMARK   11  A    between atoms: C_28  and  O_40
REMARK   12  A    between atoms: C_30  and  O_39
REMARK   13  A    between atoms: C_32  and  O_38
REMARK   14  A    between atoms: C_34  and  C_37
REMARK   15  A    between atoms: C_43  and  O_48
REMARK                            x       y       z     vdW  Elec       q    Type
REMARK                         _______ _______ _______ _____ _____    ______ ____
ROOT
ATOM      1  C   UNL     1       9.831   1.409  23.573  0.00  0.00    +0.131 A 
ATOM      2  C   UNL     1       8.777   1.221  24.476  0.00  0.00    +0.093 A 
ATOM      3  C   UNL     1       7.929   0.112  24.338  0.00  0.00    +0.147 A 
ATOM      4  O   UNL     1       6.893  -0.035  25.234  0.00  0.00    -0.451 OA
ATOM      5  C   UNL     1       6.180  -1.238  25.233  0.00  0.00    +0.181 A 
ATOM      6  C   UNL     1       6.270  -2.185  24.276  0.00  0.00    +0.214 A 
ATOM      7  C   UNL     1       7.106  -1.814  23.096  0.00  0.00    +0.238 A 
ATOM      8  O   UNL     1       6.913  -2.313  21.997  0.00  0.00    -0.283 OA
ATOM      9  C   UNL     1       8.129  -0.786  23.297  0.00  0.00    +0.109 A 
ATOM     10  C   UNL     1       9.222  -0.638  22.442  0.00  0.00    +0.135 A 
ATOM     11  C   UNL     1      10.067   0.458  22.578  0.00  0.00    +0.092 A 
ENDROOT
BRANCH   5  12
ATOM     12  C   UNL     1       5.252  -1.349  26.371  0.00  0.00    +0.024 A 
ATOM     13  C   UNL     1       4.293  -0.372  26.622  0.00  0.00    +0.011 A 
ATOM     14  C   UNL     1       3.398  -0.519  27.698  0.00  0.00    -0.004 A 
ATOM     15  C   UNL     1       3.395  -1.623  28.573  0.00  0.00    -0.066 A 
ATOM     16  O   UNL     1       2.546  -1.701  29.532  0.00  0.00    -0.871 OA
ATOM     17  C   UNL     1       4.391  -2.581  28.287  0.00  0.00    +0.110 A 
ATOM     18  C   UNL     1       5.299  -2.463  27.214  0.00  0.00    +0.056 A 
BRANCH  17  19
ATOM     19  O   UNL     1       4.502  -3.701  29.091  0.00  0.00    -0.507 OA
ATOM     20  H   UNL     1       4.534  -3.409  30.008  0.00  0.00    +0.292 HD
ENDBRANCH  17  19
ENDBRANCH   5  12
BRANCH  10  21
ATOM     21  O   UNL     1       9.503  -1.571  21.486  0.00  0.00    -0.506 OA
ATOM     22  H   UNL     1      10.259  -2.112  21.763  0.00  0.00    +0.292 HD
ENDBRANCH  10  21
BRANCH   1  23
ATOM     23  O   UNL     1      10.698   2.461  23.514  0.00  0.00    -0.461 OA
BRANCH  23  27
ATOM     24  C   UNL     1       8.358   5.288  25.812  0.00  0.00    +0.041 C 
ATOM     25  C   UNL     1       8.382   5.193  24.290  0.00  0.00    +0.150 C 
ATOM     26  O   UNL     1       8.889   3.932  23.839  0.00  0.00    -0.334 OA
ATOM     27  C   UNL     1      10.292   3.731  24.032  0.00  0.00    +0.339 C 
ATOM     28  C   UNL     1      11.102   4.802  23.263  0.00  0.00    +0.214 C 
ATOM     29  C   UNL     1      10.636   6.217  23.628  0.00  0.00    +0.180 C 
ATOM     30  C   UNL     1       9.108   6.340  23.566  0.00  0.00    +0.174 C 
BRANCH  28  31
ATOM     31  O   UNL     1      12.513   4.678  23.515  0.00  0.00    -0.383 OA
ATOM     32  H   UNL     1      12.980   4.999  22.719  0.00  0.00    +0.210 HD
ENDBRANCH  28  31
BRANCH  29  33
ATOM     33  O   UNL     1      11.177   6.613  24.898  0.00  0.00    -0.386 OA
ATOM     34  H   UNL     1      11.559   7.503  24.846  0.00  0.00    +0.210 HD
ENDBRANCH  29  33
BRANCH  30  35
ATOM     35  O   UNL     1       8.718   6.309  22.181  0.00  0.00    -0.387 OA
ATOM     36  H   UNL     1       9.271   5.644  21.727  0.00  0.00    +0.210 HD
ENDBRANCH  30  35
ENDBRANCH  23  27
ENDBRANCH   1  23
BRANCH   6  37
ATOM     37  O   UNL     1       5.566  -3.393  24.302  0.00  0.00    -0.453 OA
BRANCH  37  38
ATOM     38  C   UNL     1       6.410  -4.557  24.259  0.00  0.00    +0.339 C 
ATOM     39  O   UNL     1       5.799  -5.728  24.825  0.00  0.00    -0.334 OA
ATOM     40  C   UNL     1       5.666  -5.722  26.247  0.00  0.00    +0.150 C 
ATOM     41  C   UNL     1       4.945  -7.008  26.648  0.00  0.00    +0.041 C 
ATOM     42  C   UNL     1       7.044  -5.635  26.913  0.00  0.00    +0.174 C 
ATOM     43  C   UNL     1       7.726  -4.343  26.437  0.00  0.00    +0.180 C 
ATOM     44  C   UNL     1       7.786  -4.286  24.905  0.00  0.00    +0.214 C 
BRANCH  42  45
ATOM     45  O   UNL     1       6.909  -5.674  28.338  0.00  0.00    -0.387 OA
ATOM     46  H   UNL     1       7.288  -6.517  28.644  0.00  0.00    +0.210 HD
ENDBRANCH  42  45
BRANCH  43  47
ATOM     47  O   UNL     1       9.038  -4.269  27.020  0.00  0.00    -0.386 OA
ATOM     48  H   UNL     1       9.128  -5.030  27.625  0.00  0.00    +0.210 HD
ENDBRANCH  43  47
BRANCH  44  49
ATOM     49  O   UNL     1       8.751  -5.262  24.445  0.00  0.00    -0.383 OA
ATOM     50  H   UNL     1       9.517  -5.218  25.052  0.00  0.00    +0.210 HD
ENDBRANCH  44  49
ENDBRANCH  37  38
ENDBRANCH   6  37
TORSDOF 13
ENDMDL
MODEL 9
REMARK VINA RESULT:      -7.0      2.602      9.254
REMARK  Name = 
REMARK  15 active torsions:
REMARK  status: ('A' for Active; 'I' for Inactive)
REMARK    1  A    between atoms: C_1  and  C_2
REMARK    2  A    between atoms: C_4  and  O_52
REMARK    3  A    between atoms: C_6  and  O_51
REMARK    4  A    between atoms: C_8  and  O_50
REMARK    5  A    between atoms: C_10  and  O_13
REMARK    6  A    between atoms: O_13  and  C_14
REMARK    7  A    between atoms: C_16  and  O_49
REMARK    8  A    between atoms: C_21  and  C_41
REMARK    9  A    between atoms: C_22  and  O_25
REMARK   10  A    between atoms: O_25  and  C_26
REMARK   11  A    between atoms: C_28  and  O_40
REMARK   12  A    between atoms: C_30  and  O_39
REMARK   13  A    between atoms: C_32  and  O_38
REMARK   14  A    between atoms: C_34  and  C_37
REMARK   15  A    between atoms: C_43  and  O_48
REMARK                            x       y       z     vdW  Elec       q    Type
REMARK                         _______ _______ _______ _____ _____    ______ ____
ROOT
ATOM      1  C   UNL     1       5.116  -5.880  25.323  0.00  0.00    +0.131 A 
ATOM      2  C   UNL     1       5.479  -4.728  26.031  0.00  0.00    +0.093 A 
ATOM      3  C   UNL     1       5.805  -3.555  25.334  0.00  0.00    +0.147 A 
ATOM      4  O   UNL     1       6.173  -2.444  26.060  0.00  0.00    -0.451 OA
ATOM      5  C   UNL     1       6.293  -1.222  25.389  0.00  0.00    +0.181 A 
ATOM      6  C   UNL     1       6.301  -1.079  24.048  0.00  0.00    +0.214 A 
ATOM      7  C   UNL     1       6.309  -2.357  23.275  0.00  0.00    +0.238 A 
ATOM      8  O   UNL     1       6.780  -2.415  22.149  0.00  0.00    -0.283 OA
ATOM      9  C   UNL     1       5.783  -3.546  23.945  0.00  0.00    +0.109 A 
ATOM     10  C   UNL     1       5.350  -4.673  23.243  0.00  0.00    +0.135 A 
ATOM     11  C   UNL     1       5.022  -5.836  23.931  0.00  0.00    +0.092 A 
ENDROOT
BRANCH   5  12
ATOM     12  C   UNL     1       6.476  -0.086  26.308  0.00  0.00    +0.024 A 
ATOM     13  C   UNL     1       5.745   1.088  26.164  0.00  0.00    +0.011 A 
ATOM     14  C   UNL     1       5.917   2.147  27.077  0.00  0.00    -0.004 A 
ATOM     15  C   UNL     1       6.805   2.105  28.169  0.00  0.00    -0.066 A 
ATOM     16  O   UNL     1       6.911   3.102  28.970  0.00  0.00    -0.871 OA
ATOM     17  C   UNL     1       7.534   0.900  28.268  0.00  0.00    +0.110 A 
ATOM     18  C   UNL     1       7.379  -0.178  27.372  0.00  0.00    +0.056 A 
BRANCH  17  19
ATOM     19  O   UNL     1       8.454   0.749  29.289  0.00  0.00    -0.507 OA
ATOM     20  H   UNL     1       9.176   0.201  28.962  0.00  0.00    +0.292 HD
ENDBRANCH  17  19
ENDBRANCH   5  12
BRANCH  10  21
ATOM     21  O   UNL     1       5.210  -4.649  21.886  0.00  0.00    -0.506 OA
ATOM     22  H   UNL     1       5.974  -5.076  21.467  0.00  0.00    +0.292 HD
ENDBRANCH  10  21
BRANCH   1  23
ATOM     23  O   UNL     1       4.843  -7.118  25.832  0.00  0.00    -0.461 OA
BRANCH  23  27
ATOM     24  C   UNL     1       0.858  -7.857  27.354  0.00  0.00    +0.041 C 
ATOM     25  C   UNL     1       1.575  -6.511  27.373  0.00  0.00    +0.150 C 
ATOM     26  O   UNL     1       2.665  -6.470  26.445  0.00  0.00    -0.334 OA
ATOM     27  C   UNL     1       3.803  -7.260  26.803  0.00  0.00    +0.339 C 
ATOM     28  C   UNL     1       4.390  -6.784  28.153  0.00  0.00    +0.214 C 
ATOM     29  C   UNL     1       3.311  -6.745  29.243  0.00  0.00    +0.180 C 
ATOM     30  C   UNL     1       2.044  -6.030  28.756  0.00  0.00    +0.174 C 
BRANCH  28  31
ATOM     31  O   UNL     1       5.479  -7.620  28.580  0.00  0.00    -0.383 OA
ATOM     32  H   UNL     1       5.381  -7.757  29.542  0.00  0.00    +0.210 HD
ENDBRANCH  28  31
BRANCH  29  33
ATOM     33  O   UNL     1       3.050  -8.068  29.738  0.00  0.00    -0.386 OA
ATOM     34  H   UNL     1       2.434  -8.038  30.487  0.00  0.00    +0.210 HD
ENDBRANCH  29  33
BRANCH  30  35
ATOM     35  O   UNL     1       2.339  -4.624  28.663  0.00  0.00    -0.387 OA
ATOM     36  H   UNL     1       3.271  -4.494  28.927  0.00  0.00    +0.210 HD
ENDBRANCH  30  35
ENDBRANCH  23  27
ENDBRANCH   1  23
BRANCH   6  37
ATOM     37  O   UNL     1       6.399   0.153  23.394  0.00  0.00    -0.453 OA
BRANCH  37  38
ATOM     38  C   UNL     1       7.598   0.304  22.614  0.00  0.00    +0.339 C 
ATOM     39  O   UNL     1       8.801   0.088  23.367  0.00  0.00    -0.334 OA
ATOM     40  C   UNL     1       9.131   1.115  24.304  0.00  0.00    +0.150 C 
ATOM     41  C   UNL     1      10.394   0.678  25.044  0.00  0.00    +0.041 C 
ATOM     42  C   UNL     1       9.353   2.448  23.579  0.00  0.00    +0.174 C 
ATOM     43  C   UNL     1       8.061   2.806  22.827  0.00  0.00    +0.180 C 
ATOM     44  C   UNL     1       7.637   1.667  21.890  0.00  0.00    +0.214 C 
BRANCH  42  45
ATOM     45  O   UNL     1       9.725   3.465  24.516  0.00  0.00    -0.387 OA
ATOM     46  H   UNL     1       9.825   4.297  24.018  0.00  0.00    +0.210 HD
ENDBRANCH  42  45
BRANCH  43  47
ATOM     47  O   UNL     1       8.269   4.033  22.107  0.00  0.00    -0.386 OA
ATOM     48  H   UNL     1       7.916   4.755  22.661  0.00  0.00    +0.210 HD
ENDBRANCH  43  47
BRANCH  44  49
ATOM     49  O   UNL     1       8.566   1.614  20.781  0.00  0.00    -0.383 OA
ATOM     50  H   UNL     1       8.929   0.705  20.754  0.00  0.00    +0.210 HD
ENDBRANCH  44  49
ENDBRANCH  37  38
ENDBRANCH   6  37
TORSDOF 13
ENDMDL
