MODEL 1
REMARK VINA RESULT:      -6.8      0.000      0.000
REMARK  Name = 
REMARK  26 active torsions:
REMARK  status: ('A' for Active; 'I' for Inactive)
REMARK    1  A    between atoms: C_1  and  O_2
REMARK    2  A    between atoms: O_2  and  C_3
REMARK    3  A    between atoms: C_5  and  C_12
REMARK    4  A    between atoms: C_7  and  O_10
REMARK    5  A    between atoms: C_8  and  O_9
REMARK    6  A    between atoms: O_10  and  C_11
REMARK    7  A    between atoms: C_13  and  C_14
REMARK    8  A    between atoms: C_14  and  O_16
REMARK    9  A    between atoms: O_16  and  C_17
REMARK   10  A    between atoms: C_17  and  C_18
REMARK   11  A    between atoms: C_19  and  O_64
REMARK   12  A    between atoms: C_21  and  O_63
REMARK   13  A    between atoms: C_22  and  O_62
REMARK   14  A    between atoms: C_24  and  O_27
REMARK   15  A    between atoms: O_27  and  C_28
REMARK   16  A    between atoms: C_29  and  O_40
REMARK   17  A    between atoms: C_32  and  C_38
REMARK   18  A    between atoms: C_33  and  O_37
REMARK   19  A    between atoms: C_35  and  O_36
REMARK   20  A    between atoms: C_38  and  O_39
REMARK   21  A    between atoms: O_40  and  C_41
REMARK   22  A    between atoms: C_42  and  C_54
REMARK   23  A    between atoms: C_46  and  O_53
REMARK   24  A    between atoms: C_48  and  O_52
REMARK   25  A    between atoms: C_56  and  O_61
REMARK   26  A    between atoms: C_57  and  O_60
REMARK                            x       y       z     vdW  Elec       q    Type
REMARK                         _______ _______ _______ _____ _____    ______ ____
ROOT
ATOM      1  C   UNL     1       6.700  -2.860  23.622  0.00  0.00    +0.221 C 
ATOM      2  C   UNL     1       7.633  -4.066  23.404  0.00  0.00    +0.180 C 
ATOM      3  C   UNL     1       7.215  -4.942  22.196  0.00  0.00    +0.177 C 
ATOM      4  C   UNL     1       5.712  -4.967  21.835  0.00  0.00    +0.179 C 
ATOM      5  O   UNL     1       4.950  -3.829  22.236  0.00  0.00    -0.331 OA
ATOM      6  C   UNL     1       5.223  -3.369  23.563  0.00  0.00    +0.340 C 
ENDROOT
BRANCH   3   7
ATOM      7  O   UNL     1       7.710  -6.281  22.293  0.00  0.00    -0.386 OA
ATOM      8  H   UNL     1       6.957  -6.895  22.282  0.00  0.00    +0.210 HD
ENDBRANCH   3   7
BRANCH   2   9
ATOM      9  O   UNL     1       7.768  -4.852  24.598  0.00  0.00    -0.386 OA
ATOM     10  H   UNL     1       7.578  -4.296  25.372  0.00  0.00    +0.210 HD
ENDBRANCH   2   9
BRANCH   4  11
ATOM     11  C   UNL     1       4.961  -6.259  22.181  0.00  0.00    +0.190 C 
BRANCH  11  12
ATOM     12  O   UNL     1       5.327  -6.764  23.473  0.00  0.00    -0.392 OA
ATOM     13  H   UNL     1       6.079  -6.229  23.786  0.00  0.00    +0.210 HD
ENDBRANCH  11  12
ENDBRANCH   4  11
BRANCH   6  14
ATOM     14  O   UNL     1       4.931  -4.319  24.615  0.00  0.00    -0.453 OA
BRANCH  14  15
ATOM     15  C   UNL     1       4.099  -3.885  25.665  0.00  0.00    +0.214 A 
ATOM     16  C   UNL     1       4.570  -2.926  26.729  0.00  0.00    +0.238 A 
ATOM     17  O   UNL     1       5.755  -2.680  26.893  0.00  0.00    -0.283 OA
ATOM     18  C   UNL     1       3.554  -2.409  27.667  0.00  0.00    +0.109 A 
ATOM     19  C   UNL     1       2.331  -3.115  27.754  0.00  0.00    +0.147 A 
ATOM     20  C   UNL     1       1.364  -2.787  28.669  0.00  0.00    +0.092 A 
ATOM     21  C   UNL     1       1.566  -1.737  29.544  0.00  0.00    +0.124 A 
ATOM     22  C   UNL     1       2.754  -1.001  29.479  0.00  0.00    +0.091 A 
ATOM     23  O   UNL     1       2.020  -4.120  26.893  0.00  0.00    -0.451 OA
ATOM     24  C   UNL     1       3.729  -1.344  28.558  0.00  0.00    +0.135 A 
ATOM     25  C   UNL     1       2.864  -4.411  25.852  0.00  0.00    +0.181 A 
BRANCH  25  26
ATOM     26  C   UNL     1       2.315  -5.592  25.159  0.00  0.00    +0.025 A 
ATOM     27  C   UNL     1       1.840  -5.293  23.902  0.00  0.00    +0.015 A 
ATOM     28  C   UNL     1       1.612  -6.343  23.009  0.00  0.00    +0.050 A 
ATOM     29  C   UNL     1       1.749  -7.671  23.359  0.00  0.00    +0.158 A 
ATOM     30  C   UNL     1       2.215  -7.972  24.603  0.00  0.00    +0.159 A 
ATOM     31  C   UNL     1       2.513  -6.947  25.516  0.00  0.00    +0.060 A 
BRANCH  30  32
ATOM     32  O   UNL     1       2.514  -9.263  24.933  0.00  0.00    -0.503 OA
ATOM     33  H   UNL     1       2.550  -9.732  24.075  0.00  0.00    +0.292 HD
ENDBRANCH  30  32
BRANCH  29  34
ATOM     34  O   UNL     1       1.440  -8.595  22.404  0.00  0.00    -0.503 OA
ATOM     35  H   UNL     1       0.570  -8.978  22.624  0.00  0.00    +0.292 HD
ENDBRANCH  29  34
ENDBRANCH  25  26
BRANCH  24  36
ATOM     36  O   UNL     1       4.868  -0.617  28.522  0.00  0.00    -0.506 OA
ATOM     37  H   UNL     1       4.727   0.290  28.841  0.00  0.00    +0.292 HD
ENDBRANCH  24  36
BRANCH  21  38
ATOM     38  O   UNL     1       0.620  -1.373  30.455  0.00  0.00    -0.507 OA
ATOM     39  H   UNL     1       1.020  -0.778  31.099  0.00  0.00    +0.292 HD
ENDBRANCH  21  38
ENDBRANCH  14  15
ENDBRANCH   6  14
BRANCH   1  40
ATOM     40  O   UNL     1       7.053  -1.851  22.625  0.00  0.00    -0.337 OA
BRANCH  40  43
ATOM     41  C   UNL     1      10.150   0.020  22.843  0.00  0.00    +0.190 C 
ATOM     42  O   UNL     1       9.153  -0.933  22.516  0.00  0.00    -0.339 OA
ATOM     43  C   UNL     1       7.894  -0.805  23.142  0.00  0.00    +0.282 C 
ATOM     44  C   UNL     1       8.059  -0.893  24.684  0.00  0.00    +0.201 C 
ATOM     45  C   UNL     1       9.160   0.095  25.159  0.00  0.00    +0.179 C 
ATOM     46  C   UNL     1      10.455  -0.099  24.339  0.00  0.00    +0.178 C 
BRANCH  46  47
ATOM     47  O   UNL     1      11.468   0.832  24.711  0.00  0.00    -0.386 OA
ATOM     48  H   UNL     1      11.436   0.929  25.679  0.00  0.00    +0.210 HD
ENDBRANCH  46  47
BRANCH  45  49
ATOM     49  O   UNL     1       9.417  -0.062  26.563  0.00  0.00    -0.386 OA
ATOM     50  H   UNL     1       8.988   0.665  27.043  0.00  0.00    +0.210 HD
ENDBRANCH  45  49
BRANCH  44  51
ATOM     51  O   UNL     1       6.822  -0.632  25.369  0.00  0.00    -0.384 OA
ATOM     52  H   UNL     1       6.747  -1.247  26.119  0.00  0.00    +0.210 HD
ENDBRANCH  44  51
BRANCH  41  53
ATOM     53  C   UNL     1       9.818   1.454  22.384  0.00  0.00    +0.266 C 
BRANCH  53  54
ATOM     54  O   UNL     1      10.692   2.415  23.008  0.00  0.00    -0.459 OA
BRANCH  54  55
ATOM     55  C   UNL     1      10.098   3.533  23.489  0.00  0.00    +0.332 C 
ATOM     56  O   UNL     1      10.633   4.621  23.643  0.00  0.00    -0.246 OA
BRANCH  55  58
ATOM     57  C   UNL     1       8.353   3.298  25.120  0.00  0.00    +0.015 C 
ATOM     58  C   UNL     1       8.688   3.252  23.822  0.00  0.00    +0.092 C 
BRANCH  57  63
ATOM     59  C   UNL     1       5.779   2.597  27.737  0.00  0.00    +0.166 A 
ATOM     60  C   UNL     1       4.585   2.475  26.970  0.00  0.00    +0.201 A 
ATOM     61  C   UNL     1       4.627   2.592  25.573  0.00  0.00    +0.166 A 
ATOM     62  C   UNL     1       5.860   2.916  24.968  0.00  0.00    +0.057 A 
ATOM     63  C   UNL     1       7.036   3.040  25.711  0.00  0.00    -0.018 A 
ATOM     64  C   UNL     1       6.981   2.896  27.100  0.00  0.00    +0.057 A 
BRANCH  59  66
ATOM     65  C   UNL     1       7.014   1.965  29.690  0.00  0.00    +0.277 C 
ATOM     66  O   UNL     1       5.746   2.279  29.083  0.00  0.00    -0.491 OA
ENDBRANCH  59  66
BRANCH  61  67
ATOM     67  O   UNL     1       3.665   2.384  24.627  0.00  0.00    -0.491 OA
ATOM     68  C   UNL     1       3.135   3.411  23.809  0.00  0.00    +0.277 C 
ENDBRANCH  61  67
BRANCH  60  69
ATOM     69  O   UNL     1       3.451   2.082  27.637  0.00  0.00    -0.501 OA
ATOM     70  H   UNL     1       3.586   2.268  28.582  0.00  0.00    +0.292 HD
ENDBRANCH  60  69
ENDBRANCH  57  63
ENDBRANCH  55  58
ENDBRANCH  54  55
ENDBRANCH  53  54
ENDBRANCH  41  53
ENDBRANCH  40  43
ENDBRANCH   1  40
TORSDOF 24
ENDMDL
MODEL 2
REMARK VINA RESULT:      -6.6      2.164      3.414
REMARK  Name = 
REMARK  26 active torsions:
REMARK  status: ('A' for Active; 'I' for Inactive)
REMARK    1  A    between atoms: C_1  and  O_2
REMARK    2  A    between atoms: O_2  and  C_3
REMARK    3  A    between atoms: C_5  and  C_12
REMARK    4  A    between atoms: C_7  and  O_10
REMARK    5  A    between atoms: C_8  and  O_9
REMARK    6  A    between atoms: O_10  and  C_11
REMARK    7  A    between atoms: C_13  and  C_14
REMARK    8  A    between atoms: C_14  and  O_16
REMARK    9  A    between atoms: O_16  and  C_17
REMARK   10  A    between atoms: C_17  and  C_18
REMARK   11  A    between atoms: C_19  and  O_64
REMARK   12  A    between atoms: C_21  and  O_63
REMARK   13  A    between atoms: C_22  and  O_62
REMARK   14  A    between atoms: C_24  and  O_27
REMARK   15  A    between atoms: O_27  and  C_28
REMARK   16  A    between atoms: C_29  and  O_40
REMARK   17  A    between atoms: C_32  and  C_38
REMARK   18  A    between atoms: C_33  and  O_37
REMARK   19  A    between atoms: C_35  and  O_36
REMARK   20  A    between atoms: C_38  and  O_39
REMARK   21  A    between atoms: O_40  and  C_41
REMARK   22  A    between atoms: C_42  and  C_54
REMARK   23  A    between atoms: C_46  and  O_53
REMARK   24  A    between atoms: C_48  and  O_52
REMARK   25  A    between atoms: C_56  and  O_61
REMARK   26  A    between atoms: C_57  and  O_60
REMARK                            x       y       z     vdW  Elec       q    Type
REMARK                         _______ _______ _______ _____ _____    ______ ____
ROOT
ATOM      1  C   UNL     1       7.681  -3.076  24.040  0.00  0.00    +0.221 C 
ATOM      2  C   UNL     1       7.635  -4.606  23.875  0.00  0.00    +0.180 C 
ATOM      3  C   UNL     1       6.769  -5.057  22.671  0.00  0.00    +0.177 C 
ATOM      4  C   UNL     1       5.599  -4.133  22.263  0.00  0.00    +0.179 C 
ATOM      5  O   UNL     1       5.732  -2.757  22.618  0.00  0.00    -0.331 OA
ATOM      6  C   UNL     1       6.219  -2.530  23.944  0.00  0.00    +0.340 C 
ENDROOT
BRANCH   3   7
ATOM      7  O   UNL     1       6.296  -6.402  22.809  0.00  0.00    -0.386 OA
ATOM      8  H   UNL     1       5.335  -6.411  22.667  0.00  0.00    +0.210 HD
ENDBRANCH   3   7
BRANCH   2   9
ATOM      9  O   UNL     1       7.223  -5.257  25.087  0.00  0.00    -0.386 OA
ATOM     10  H   UNL     1       8.003  -5.424  25.642  0.00  0.00    +0.210 HD
ENDBRANCH   2   9
BRANCH   4  11
ATOM     11  C   UNL     1       4.193  -4.639  22.610  0.00  0.00    +0.190 C 
BRANCH  11  12
ATOM     12  O   UNL     1       4.137  -5.215  23.922  0.00  0.00    -0.392 OA
ATOM     13  H   UNL     1       5.031  -5.141  24.305  0.00  0.00    +0.210 HD
ENDBRANCH  11  12
ENDBRANCH   4  11
BRANCH   6  14
ATOM     14  O   UNL     1       5.376  -3.040  25.004  0.00  0.00    -0.453 OA
BRANCH  14  15
ATOM     15  C   UNL     1       4.917  -2.118  25.964  0.00  0.00    +0.214 A 
ATOM     16  C   UNL     1       4.851  -0.635  25.698  0.00  0.00    +0.238 A 
ATOM     17  O   UNL     1       5.430  -0.127  24.749  0.00  0.00    -0.283 OA
ATOM     18  C   UNL     1       4.186   0.204  26.714  0.00  0.00    +0.109 A 
ATOM     19  C   UNL     1       4.007  -0.355  28.001  0.00  0.00    +0.147 A 
ATOM     20  C   UNL     1       3.500   0.372  29.047  0.00  0.00    +0.092 A 
ATOM     21  C   UNL     1       3.145   1.695  28.864  0.00  0.00    +0.124 A 
ATOM     22  C   UNL     1       3.289   2.281  27.602  0.00  0.00    +0.091 A 
ATOM     23  O   UNL     1       4.268  -1.665  28.258  0.00  0.00    -0.451 OA
ATOM     24  C   UNL     1       3.810   1.542  26.552  0.00  0.00    +0.135 A 
ATOM     25  C   UNL     1       4.633  -2.500  27.233  0.00  0.00    +0.181 A 
BRANCH  25  26
ATOM     26  C   UNL     1       4.939  -3.815  27.827  0.00  0.00    +0.025 A 
ATOM     27  C   UNL     1       3.815  -4.592  27.997  0.00  0.00    +0.015 A 
ATOM     28  C   UNL     1       3.980  -5.961  28.221  0.00  0.00    +0.050 A 
ATOM     29  C   UNL     1       5.216  -6.555  28.374  0.00  0.00    +0.158 A 
ATOM     30  C   UNL     1       6.331  -5.789  28.211  0.00  0.00    +0.159 A 
ATOM     31  C   UNL     1       6.215  -4.418  27.927  0.00  0.00    +0.060 A 
BRANCH  30  32
ATOM     32  O   UNL     1       7.568  -6.368  28.198  0.00  0.00    -0.503 OA
ATOM     33  H   UNL     1       7.411  -7.284  28.504  0.00  0.00    +0.292 HD
ENDBRANCH  30  32
BRANCH  29  34
ATOM     34  O   UNL     1       5.228  -7.892  28.643  0.00  0.00    -0.503 OA
ATOM     35  H   UNL     1       4.303  -8.195  28.714  0.00  0.00    +0.292 HD
ENDBRANCH  29  34
ENDBRANCH  25  26
BRANCH  24  36
ATOM     36  O   UNL     1       3.941   2.137  25.345  0.00  0.00    -0.506 OA
ATOM     37  H   UNL     1       3.274   2.832  25.212  0.00  0.00    +0.292 HD
ENDBRANCH  24  36
BRANCH  21  38
ATOM     38  O   UNL     1       2.624   2.444  29.876  0.00  0.00    -0.507 OA
ATOM     39  H   UNL     1       3.344   2.886  30.339  0.00  0.00    +0.292 HD
ENDBRANCH  21  38
ENDBRANCH  14  15
ENDBRANCH   6  14
BRANCH   1  40
ATOM     40  O   UNL     1       8.608  -2.558  23.036  0.00  0.00    -0.337 OA
BRANCH  40  43
ATOM     41  C   UNL     1       8.835   0.726  21.521  0.00  0.00    +0.190 C 
ATOM     42  O   UNL     1       8.740  -0.671  21.739  0.00  0.00    -0.339 OA
ATOM     43  C   UNL     1       8.754  -1.128  23.075  0.00  0.00    +0.282 C 
ATOM     44  C   UNL     1      10.073  -0.692  23.768  0.00  0.00    +0.201 C 
ATOM     45  C   UNL     1      10.303   0.832  23.566  0.00  0.00    +0.179 C 
ATOM     46  C   UNL     1      10.181   1.207  22.073  0.00  0.00    +0.178 C 
BRANCH  46  47
ATOM     47  O   UNL     1      10.328   2.608  21.860  0.00  0.00    -0.386 OA
ATOM     48  H   UNL     1       9.901   2.822  21.012  0.00  0.00    +0.210 HD
ENDBRANCH  46  47
BRANCH  45  49
ATOM     49  O   UNL     1      11.579   1.231  24.090  0.00  0.00    -0.386 OA
ATOM     50  H   UNL     1      11.440   1.916  24.764  0.00  0.00    +0.210 HD
ENDBRANCH  45  49
BRANCH  44  51
ATOM     51  O   UNL     1      10.073  -1.018  25.168  0.00  0.00    -0.384 OA
ATOM     52  H   UNL     1       9.340  -0.544  25.598  0.00  0.00    +0.210 HD
ENDBRANCH  44  51
BRANCH  41  53
ATOM     53  C   UNL     1       7.624   1.524  22.042  0.00  0.00    +0.266 C 
BRANCH  53  54
ATOM     54  O   UNL     1       7.657   2.887  21.572  0.00  0.00    -0.459 OA
BRANCH  54  55
ATOM     55  C   UNL     1       7.288   3.832  22.468  0.00  0.00    +0.332 C 
ATOM     56  O   UNL     1       7.194   5.031  22.250  0.00  0.00    -0.246 OA
BRANCH  55  58
ATOM     57  C   UNL     1       7.257   3.960  24.865  0.00  0.00    +0.015 C 
ATOM     58  C   UNL     1       7.020   3.209  23.779  0.00  0.00    +0.092 C 
BRANCH  57  63
ATOM     59  C   UNL     1       7.193   1.778  27.899  0.00  0.00    +0.166 A 
ATOM     60  C   UNL     1       6.756   2.677  28.914  0.00  0.00    +0.201 A 
ATOM     61  C   UNL     1       6.446   4.007  28.597  0.00  0.00    +0.166 A 
ATOM     62  C   UNL     1       6.663   4.444  27.272  0.00  0.00    +0.057 A 
ATOM     63  C   UNL     1       7.093   3.572  26.270  0.00  0.00    -0.018 A 
ATOM     64  C   UNL     1       7.374   2.243  26.598  0.00  0.00    +0.057 A 
BRANCH  59  66
ATOM     65  C   UNL     1       7.963  -0.383  27.210  0.00  0.00    +0.277 C 
ATOM     66  O   UNL     1       7.298   0.432  28.195  0.00  0.00    -0.491 OA
ENDBRANCH  59  66
BRANCH  61  67
ATOM     67  O   UNL     1       5.890   5.001  29.348  0.00  0.00    -0.491 OA
ATOM     68  C   UNL     1       4.554   5.445  29.197  0.00  0.00    +0.277 C 
ENDBRANCH  61  67
BRANCH  60  69
ATOM     69  O   UNL     1       6.500   2.142  30.154  0.00  0.00    -0.501 OA
ATOM     70  H   UNL     1       7.322   2.192  30.671  0.00  0.00    +0.292 HD
ENDBRANCH  60  69
ENDBRANCH  57  63
ENDBRANCH  55  58
ENDBRANCH  54  55
ENDBRANCH  53  54
ENDBRANCH  41  53
ENDBRANCH  40  43
ENDBRANCH   1  40
TORSDOF 24
ENDMDL
MODEL 3
REMARK VINA RESULT:      -6.5      2.118      9.348
REMARK  Name = 
REMARK  26 active torsions:
REMARK  status: ('A' for Active; 'I' for Inactive)
REMARK    1  A    between atoms: C_1  and  O_2
REMARK    2  A    between atoms: O_2  and  C_3
REMARK    3  A    between atoms: C_5  and  C_12
REMARK    4  A    between atoms: C_7  and  O_10
REMARK    5  A    between atoms: C_8  and  O_9
REMARK    6  A    between atoms: O_10  and  C_11
REMARK    7  A    between atoms: C_13  and  C_14
REMARK    8  A    between atoms: C_14  and  O_16
REMARK    9  A    between atoms: O_16  and  C_17
REMARK   10  A    between atoms: C_17  and  C_18
REMARK   11  A    between atoms: C_19  and  O_64
REMARK   12  A    between atoms: C_21  and  O_63
REMARK   13  A    between atoms: C_22  and  O_62
REMARK   14  A    between atoms: C_24  and  O_27
REMARK   15  A    between atoms: O_27  and  C_28
REMARK   16  A    between atoms: C_29  and  O_40
REMARK   17  A    between atoms: C_32  and  C_38
REMARK   18  A    between atoms: C_33  and  O_37
REMARK   19  A    between atoms: C_35  and  O_36
REMARK   20  A    between atoms: C_38  and  O_39
REMARK   21  A    between atoms: O_40  and  C_41
REMARK   22  A    between atoms: C_42  and  C_54
REMARK   23  A    between atoms: C_46  and  O_53
REMARK   24  A    between atoms: C_48  and  O_52
REMARK   25  A    between atoms: C_56  and  O_61
REMARK   26  A    between atoms: C_57  and  O_60
REMARK                            x       y       z     vdW  Elec       q    Type
REMARK                         _______ _______ _______ _____ _____    ______ ____
ROOT
ATOM      1  C   UNL     1       6.997   0.473  24.683  0.00  0.00    +0.221 C 
ATOM      2  C   UNL     1       7.225  -0.197  23.316  0.00  0.00    +0.180 C 
ATOM      3  C   UNL     1       8.724  -0.301  22.937  0.00  0.00    +0.177 C 
ATOM      4  C   UNL     1       9.669   0.780  23.510  0.00  0.00    +0.179 C 
ATOM      5  O   UNL     1       9.242   1.413  24.715  0.00  0.00    -0.331 OA
ATOM      6  C   UNL     1       7.858   1.778  24.737  0.00  0.00    +0.340 C 
ENDROOT
BRANCH   3   7
ATOM      7  O   UNL     1       8.925  -0.419  21.524  0.00  0.00    -0.386 OA
ATOM      8  H   UNL     1       8.561  -1.269  21.226  0.00  0.00    +0.210 HD
ENDBRANCH   3   7
BRANCH   2   9
ATOM      9  O   UNL     1       6.467   0.446  22.279  0.00  0.00    -0.386 OA
ATOM     10  H   UNL     1       6.073   1.262  22.629  0.00  0.00    +0.210 HD
ENDBRANCH   2   9
BRANCH   4  11
ATOM     11  C   UNL     1      10.174   1.827  22.509  0.00  0.00    +0.190 C 
BRANCH  11  12
ATOM     12  O   UNL     1       9.136   2.271  21.624  0.00  0.00    -0.392 OA
ATOM     13  H   UNL     1       9.442   3.104  21.220  0.00  0.00    +0.210 HD
ENDBRANCH  11  12
ENDBRANCH   4  11
BRANCH   6  14
ATOM     14  O   UNL     1       7.459   2.736  23.729  0.00  0.00    -0.453 OA
BRANCH  14  15
ATOM     15  C   UNL     1       6.404   3.611  24.053  0.00  0.00    +0.214 A 
ATOM     16  C   UNL     1       4.957   3.258  23.819  0.00  0.00    +0.238 A 
ATOM     17  O   UNL     1       4.632   2.321  23.104  0.00  0.00    -0.283 OA
ATOM     18  C   UNL     1       3.941   4.180  24.363  0.00  0.00    +0.109 A 
ATOM     19  C   UNL     1       4.368   5.483  24.714  0.00  0.00    +0.147 A 
ATOM     20  C   UNL     1       3.490   6.451  25.126  0.00  0.00    +0.092 A 
ATOM     21  C   UNL     1       2.139   6.171  25.210  0.00  0.00    +0.124 A 
ATOM     22  C   UNL     1       1.677   4.890  24.890  0.00  0.00    +0.091 A 
ATOM     23  O   UNL     1       5.683   5.829  24.722  0.00  0.00    -0.451 OA
ATOM     24  C   UNL     1       2.570   3.919  24.467  0.00  0.00    +0.135 A 
ATOM     25  C   UNL     1       6.639   4.878  24.472  0.00  0.00    +0.181 A 
BRANCH  25  26
ATOM     26  C   UNL     1       7.946   5.564  24.455  0.00  0.00    +0.025 A 
ATOM     27  C   UNL     1       8.241   6.165  25.658  0.00  0.00    +0.015 A 
ATOM     28  C   UNL     1       9.562   6.549  25.904  0.00  0.00    +0.050 A 
ATOM     29  C   UNL     1      10.564   6.441  24.961  0.00  0.00    +0.158 A 
ATOM     30  C   UNL     1      10.275   5.850  23.768  0.00  0.00    +0.159 A 
ATOM     31  C   UNL     1       8.974   5.396  23.498  0.00  0.00    +0.060 A 
BRANCH  30  32
ATOM     32  O   UNL     1      11.271   5.583  22.873  0.00  0.00    -0.503 OA
ATOM     33  H   UNL     1      10.805   5.234  22.087  0.00  0.00    +0.292 HD
ENDBRANCH  30  32
BRANCH  29  34
ATOM     34  O   UNL     1      11.796   6.905  25.316  0.00  0.00    -0.503 OA
ATOM     35  H   UNL     1      11.727   7.868  25.463  0.00  0.00    +0.292 HD
ENDBRANCH  29  34
ENDBRANCH  25  26
BRANCH  24  36
ATOM     36  O   UNL     1       2.094   2.692  24.161  0.00  0.00    -0.506 OA
ATOM     37  H   UNL     1       1.388   2.417  24.771  0.00  0.00    +0.292 HD
ENDBRANCH  24  36
BRANCH  21  38
ATOM     38  O   UNL     1       1.239   7.104  25.631  0.00  0.00    -0.507 OA
ATOM     39  H   UNL     1       1.718   7.875  25.954  0.00  0.00    +0.292 HD
ENDBRANCH  21  38
ENDBRANCH  14  15
ENDBRANCH   6  14
BRANCH   1  40
ATOM     40  O   UNL     1       7.304  -0.520  25.710  0.00  0.00    -0.337 OA
BRANCH  40  43
ATOM     41  C   UNL     1       4.928   1.012  27.979  0.00  0.00    +0.190 C 
ATOM     42  O   UNL     1       5.625   0.578  26.823  0.00  0.00    -0.339 OA
ATOM     43  C   UNL     1       6.809  -0.167  27.014  0.00  0.00    +0.282 C 
ATOM     44  C   UNL     1       7.835   0.671  27.824  0.00  0.00    +0.201 C 
ATOM     45  C   UNL     1       7.168   1.233  29.110  0.00  0.00    +0.179 C 
ATOM     46  C   UNL     1       5.845   1.952  28.767  0.00  0.00    +0.178 C 
BRANCH  46  47
ATOM     47  O   UNL     1       5.178   2.429  29.932  0.00  0.00    -0.386 OA
ATOM     48  H   UNL     1       4.298   2.012  29.958  0.00  0.00    +0.210 HD
ENDBRANCH  46  47
BRANCH  45  49
ATOM     49  O   UNL     1       8.062   2.114  29.807  0.00  0.00    -0.386 OA
ATOM     50  H   UNL     1       8.938   1.695  29.858  0.00  0.00    +0.210 HD
ENDBRANCH  45  49
BRANCH  44  51
ATOM     51  O   UNL     1       9.004  -0.096  28.159  0.00  0.00    -0.384 OA
ATOM     52  H   UNL     1       9.116  -0.086  29.126  0.00  0.00    +0.210 HD
ENDBRANCH  44  51
BRANCH  41  53
ATOM     53  C   UNL     1       4.335  -0.135  28.820  0.00  0.00    +0.266 C 
BRANCH  53  54
ATOM     54  O   UNL     1       3.896  -1.222  27.981  0.00  0.00    -0.459 OA
BRANCH  54  55
ATOM     55  C   UNL     1       4.095  -2.468  28.473  0.00  0.00    +0.332 C 
ATOM     56  O   UNL     1       3.850  -2.838  29.611  0.00  0.00    -0.246 OA
BRANCH  55  58
ATOM     57  C   UNL     1       4.214  -3.169  26.181  0.00  0.00    +0.015 C 
ATOM     58  C   UNL     1       4.674  -3.336  27.429  0.00  0.00    +0.092 C 
BRANCH  57  63
ATOM     59  C   UNL     1       3.877  -5.313  23.137  0.00  0.00    +0.166 A 
ATOM     60  C   UNL     1       5.226  -5.429  22.692  0.00  0.00    +0.201 A 
ATOM     61  C   UNL     1       6.264  -4.825  23.416  0.00  0.00    +0.166 A 
ATOM     62  C   UNL     1       5.925  -4.035  24.535  0.00  0.00    +0.057 A 
ATOM     63  C   UNL     1       4.607  -3.912  24.979  0.00  0.00    -0.018 A 
ATOM     64  C   UNL     1       3.586  -4.542  24.261  0.00  0.00    +0.057 A 
BRANCH  59  66
ATOM     65  C   UNL     1       1.545  -5.817  22.936  0.00  0.00    +0.277 C 
ATOM     66  O   UNL     1       2.901  -6.078  22.527  0.00  0.00    -0.491 OA
ENDBRANCH  59  66
BRANCH  61  67
ATOM     67  O   UNL     1       7.619  -4.904  23.273  0.00  0.00    -0.491 OA
ATOM     68  C   UNL     1       8.531  -4.078  23.974  0.00  0.00    +0.277 C 
ENDBRANCH  61  67
BRANCH  60  69
ATOM     69  O   UNL     1       5.465  -6.280  21.641  0.00  0.00    -0.501 OA
ATOM     70  H   UNL     1       6.016  -5.804  20.997  0.00  0.00    +0.292 HD
ENDBRANCH  60  69
ENDBRANCH  57  63
ENDBRANCH  55  58
ENDBRANCH  54  55
ENDBRANCH  53  54
ENDBRANCH  41  53
ENDBRANCH  40  43
ENDBRANCH   1  40
TORSDOF 24
ENDMDL
MODEL 4
REMARK VINA RESULT:      -6.3      1.206      2.024
REMARK  Name = 
REMARK  26 active torsions:
REMARK  status: ('A' for Active; 'I' for Inactive)
REMARK    1  A    between atoms: C_1  and  O_2
REMARK    2  A    between atoms: O_2  and  C_3
REMARK    3  A    between atoms: C_5  and  C_12
REMARK    4  A    between atoms: C_7  and  O_10
REMARK    5  A    between atoms: C_8  and  O_9
REMARK    6  A    between atoms: O_10  and  C_11
REMARK    7  A    between atoms: C_13  and  C_14
REMARK    8  A    between atoms: C_14  and  O_16
REMARK    9  A    between atoms: O_16  and  C_17
REMARK   10  A    between atoms: C_17  and  C_18
REMARK   11  A    between atoms: C_19  and  O_64
REMARK   12  A    between atoms: C_21  and  O_63
REMARK   13  A    between atoms: C_22  and  O_62
REMARK   14  A    between atoms: C_24  and  O_27
REMARK   15  A    between atoms: O_27  and  C_28
REMARK   16  A    between atoms: C_29  and  O_40
REMARK   17  A    between atoms: C_32  and  C_38
REMARK   18  A    between atoms: C_33  and  O_37
REMARK   19  A    between atoms: C_35  and  O_36
REMARK   20  A    between atoms: C_38  and  O_39
REMARK   21  A    between atoms: O_40  and  C_41
REMARK   22  A    between atoms: C_42  and  C_54
REMARK   23  A    between atoms: C_46  and  O_53
REMARK   24  A    between atoms: C_48  and  O_52
REMARK   25  A    between atoms: C_56  and  O_61
REMARK   26  A    between atoms: C_57  and  O_60
REMARK                            x       y       z     vdW  Elec       q    Type
REMARK                         _______ _______ _______ _____ _____    ______ ____
ROOT
ATOM      1  C   UNL     1       6.730  -2.888  23.481  0.00  0.00    +0.221 C 
ATOM      2  C   UNL     1       7.659  -4.100  23.275  0.00  0.00    +0.180 C 
ATOM      3  C   UNL     1       7.204  -5.016  22.110  0.00  0.00    +0.177 C 
ATOM      4  C   UNL     1       5.691  -5.055  21.798  0.00  0.00    +0.179 C 
ATOM      5  O   UNL     1       4.940  -3.905  22.184  0.00  0.00    -0.331 OA
ATOM      6  C   UNL     1       5.253  -3.401  23.486  0.00  0.00    +0.340 C 
ENDROOT
BRANCH   3   7
ATOM      7  O   UNL     1       7.706  -6.351  22.236  0.00  0.00    -0.386 OA
ATOM      8  H   UNL     1       8.481  -6.340  22.823  0.00  0.00    +0.210 HD
ENDBRANCH   3   7
BRANCH   2   9
ATOM      9  O   UNL     1       7.833  -4.846  24.489  0.00  0.00    -0.386 OA
ATOM     10  H   UNL     1       8.229  -5.709  24.282  0.00  0.00    +0.210 HD
ENDBRANCH   2   9
BRANCH   4  11
ATOM     11  C   UNL     1       4.954  -6.336  22.210  0.00  0.00    +0.190 C 
BRANCH  11  12
ATOM     12  O   UNL     1       5.359  -6.796  23.507  0.00  0.00    -0.392 OA
ATOM     13  H   UNL     1       5.997  -7.521  23.366  0.00  0.00    +0.210 HD
ENDBRANCH  11  12
ENDBRANCH   4  11
BRANCH   6  14
ATOM     14  O   UNL     1       4.996  -4.316  24.577  0.00  0.00    -0.453 OA
BRANCH  14  15
ATOM     15  C   UNL     1       4.190  -3.850  25.634  0.00  0.00    +0.214 A 
ATOM     16  C   UNL     1       4.694  -2.875  26.669  0.00  0.00    +0.238 A 
ATOM     17  O   UNL     1       5.886  -2.642  26.804  0.00  0.00    -0.283 OA
ATOM     18  C   UNL     1       3.705  -2.327  27.617  0.00  0.00    +0.109 A 
ATOM     19  C   UNL     1       2.475  -3.016  27.743  0.00  0.00    +0.147 A 
ATOM     20  C   UNL     1       1.530  -2.658  28.670  0.00  0.00    +0.092 A 
ATOM     21  C   UNL     1       1.763  -1.593  29.519  0.00  0.00    +0.124 A 
ATOM     22  C   UNL     1       2.958  -0.873  29.415  0.00  0.00    +0.091 A 
ATOM     23  O   UNL     1       2.134  -4.035  26.908  0.00  0.00    -0.451 OA
ATOM     24  C   UNL     1       3.911  -1.246  28.482  0.00  0.00    +0.135 A 
ATOM     25  C   UNL     1       2.954  -4.357  25.857  0.00  0.00    +0.181 A 
BRANCH  25  26
ATOM     26  C   UNL     1       2.376  -5.545  25.199  0.00  0.00    +0.025 A 
ATOM     27  C   UNL     1       1.863  -5.262  23.954  0.00  0.00    +0.015 A 
ATOM     28  C   UNL     1       1.601  -6.324  23.085  0.00  0.00    +0.050 A 
ATOM     29  C   UNL     1       1.742  -7.647  23.450  0.00  0.00    +0.158 A 
ATOM     30  C   UNL     1       2.246  -7.932  24.683  0.00  0.00    +0.159 A 
ATOM     31  C   UNL     1       2.579  -6.895  25.571  0.00  0.00    +0.060 A 
BRANCH  30  32
ATOM     32  O   UNL     1       2.549  -9.220  25.023  0.00  0.00    -0.503 OA
ATOM     33  H   UNL     1       2.021  -9.765  24.405  0.00  0.00    +0.292 HD
ENDBRANCH  30  32
BRANCH  29  34
ATOM     34  O   UNL     1       1.398  -8.583  22.520  0.00  0.00    -0.503 OA
ATOM     35  H   UNL     1       1.291  -8.132  21.661  0.00  0.00    +0.292 HD
ENDBRANCH  29  34
ENDBRANCH  25  26
BRANCH  24  36
ATOM     36  O   UNL     1       5.057  -0.534  28.408  0.00  0.00    -0.506 OA
ATOM     37  H   UNL     1       4.972   0.224  27.806  0.00  0.00    +0.292 HD
ENDBRANCH  24  36
BRANCH  21  38
ATOM     38  O   UNL     1       0.840  -1.198  30.441  0.00  0.00    -0.507 OA
ATOM     39  H   UNL     1       1.188  -1.372  31.323  0.00  0.00    +0.292 HD
ENDBRANCH  21  38
ENDBRANCH  14  15
ENDBRANCH   6  14
BRANCH   1  40
ATOM     40  O   UNL     1       7.049  -1.914  22.441  0.00  0.00    -0.337 OA
BRANCH  40  43
ATOM     41  C   UNL     1      10.203  -0.129  22.536  0.00  0.00    +0.190 C 
ATOM     42  O   UNL     1       9.176  -1.070  22.272  0.00  0.00    -0.339 OA
ATOM     43  C   UNL     1       7.923  -0.863  22.889  0.00  0.00    +0.282 C 
ATOM     44  C   UNL     1       8.090  -0.858  24.433  0.00  0.00    +0.201 C 
ATOM     45  C   UNL     1       9.223   0.123  24.844  0.00  0.00    +0.179 C 
ATOM     46  C   UNL     1      10.509  -0.162  24.037  0.00  0.00    +0.178 C 
BRANCH  46  47
ATOM     47  O   UNL     1      11.551   0.758  24.347  0.00  0.00    -0.386 OA
ATOM     48  H   UNL     1      11.300   1.622  23.974  0.00  0.00    +0.210 HD
ENDBRANCH  46  47
BRANCH  45  49
ATOM     49  O   UNL     1       9.479   0.048  26.255  0.00  0.00    -0.386 OA
ATOM     50  H   UNL     1       9.437   0.944  26.629  0.00  0.00    +0.210 HD
ENDBRANCH  45  49
BRANCH  44  51
ATOM     51  O   UNL     1       6.864  -0.516  25.101  0.00  0.00    -0.384 OA
ATOM     52  H   UNL     1       6.555   0.343  24.763  0.00  0.00    +0.210 HD
ENDBRANCH  44  51
BRANCH  41  53
ATOM     53  C   UNL     1       9.915   1.282  21.988  0.00  0.00    +0.266 C 
BRANCH  53  54
ATOM     54  O   UNL     1       9.778   2.239  23.057  0.00  0.00    -0.459 OA
BRANCH  54  55
ATOM     55  C   UNL     1       8.655   2.996  23.036  0.00  0.00    +0.332 C 
ATOM     56  O   UNL     1       7.922   3.165  22.073  0.00  0.00    -0.246 OA
BRANCH  55  58
ATOM     57  C   UNL     1       7.615   2.971  25.198  0.00  0.00    +0.015 C 
ATOM     58  C   UNL     1       8.438   3.615  24.357  0.00  0.00    +0.092 C 
BRANCH  57  63
ATOM     59  C   UNL     1       6.894   5.228  28.089  0.00  0.00    +0.166 A 
ATOM     60  C   UNL     1       6.549   4.307  29.119  0.00  0.00    +0.201 A 
ATOM     61  C   UNL     1       6.583   2.926  28.875  0.00  0.00    +0.166 A 
ATOM     62  C   UNL     1       6.883   2.488  27.568  0.00  0.00    +0.057 A 
ATOM     63  C   UNL     1       7.220   3.382  26.549  0.00  0.00    -0.018 A 
ATOM     64  C   UNL     1       7.206   4.754  26.816  0.00  0.00    +0.057 A 
BRANCH  59  66
ATOM     65  C   UNL     1       8.371   7.108  28.236  0.00  0.00    +0.277 C 
ATOM     66  O   UNL     1       7.048   6.564  28.408  0.00  0.00    -0.491 OA
ENDBRANCH  59  66
BRANCH  61  67
ATOM     67  O   UNL     1       6.432   1.863  29.718  0.00  0.00    -0.491 OA
ATOM     68  C   UNL     1       7.487   1.314  30.485  0.00  0.00    +0.277 C 
ENDBRANCH  61  67
BRANCH  60  69
ATOM     69  O   UNL     1       6.349   4.823  30.377  0.00  0.00    -0.501 OA
ATOM     70  H   UNL     1       7.037   4.457  30.957  0.00  0.00    +0.292 HD
ENDBRANCH  60  69
ENDBRANCH  57  63
ENDBRANCH  55  58
ENDBRANCH  54  55
ENDBRANCH  53  54
ENDBRANCH  41  53
ENDBRANCH  40  43
ENDBRANCH   1  40
TORSDOF 24
ENDMDL
MODEL 5
REMARK VINA RESULT:      -6.1      2.407     10.111
REMARK  Name = 
REMARK  26 active torsions:
REMARK  status: ('A' for Active; 'I' for Inactive)
REMARK    1  A    between atoms: C_1  and  O_2
REMARK    2  A    between atoms: O_2  and  C_3
REMARK    3  A    between atoms: C_5  and  C_12
REMARK    4  A    between atoms: C_7  and  O_10
REMARK    5  A    between atoms: C_8  and  O_9
REMARK    6  A    between atoms: O_10  and  C_11
REMARK    7  A    between atoms: C_13  and  C_14
REMARK    8  A    between atoms: C_14  and  O_16
REMARK    9  A    between atoms: O_16  and  C_17
REMARK   10  A    between atoms: C_17  and  C_18
REMARK   11  A    between atoms: C_19  and  O_64
REMARK   12  A    between atoms: C_21  and  O_63
REMARK   13  A    between atoms: C_22  and  O_62
REMARK   14  A    between atoms: C_24  and  O_27
REMARK   15  A    between atoms: O_27  and  C_28
REMARK   16  A    between atoms: C_29  and  O_40
REMARK   17  A    between atoms: C_32  and  C_38
REMARK   18  A    between atoms: C_33  and  O_37
REMARK   19  A    between atoms: C_35  and  O_36
REMARK   20  A    between atoms: C_38  and  O_39
REMARK   21  A    between atoms: O_40  and  C_41
REMARK   22  A    between atoms: C_42  and  C_54
REMARK   23  A    between atoms: C_46  and  O_53
REMARK   24  A    between atoms: C_48  and  O_52
REMARK   25  A    between atoms: C_56  and  O_61
REMARK   26  A    between atoms: C_57  and  O_60
REMARK                            x       y       z     vdW  Elec       q    Type
REMARK                         _______ _______ _______ _____ _____    ______ ____
ROOT
ATOM      1  C   UNL     1       7.622   0.260  24.623  0.00  0.00    +0.221 C 
ATOM      2  C   UNL     1       7.722  -0.273  23.181  0.00  0.00    +0.180 C 
ATOM      3  C   UNL     1       9.177  -0.303  22.649  0.00  0.00    +0.177 C 
ATOM      4  C   UNL     1      10.158   0.742  23.228  0.00  0.00    +0.179 C 
ATOM      5  O   UNL     1       9.844   1.248  24.524  0.00  0.00    -0.331 OA
ATOM      6  C   UNL     1       8.464   1.575  24.717  0.00  0.00    +0.340 C 
ENDROOT
BRANCH   3   7
ATOM      7  O   UNL     1       9.238  -0.282  21.219  0.00  0.00    -0.386 OA
ATOM      8  H   UNL     1       9.586  -1.135  20.908  0.00  0.00    +0.210 HD
ENDBRANCH   3   7
BRANCH   2   9
ATOM      9  O   UNL     1       6.855   0.446  22.291  0.00  0.00    -0.386 OA
ATOM     10  H   UNL     1       7.391   0.913  21.628  0.00  0.00    +0.210 HD
ENDBRANCH   2   9
BRANCH   4  11
ATOM     11  C   UNL     1      10.545   1.891  22.287  0.00  0.00    +0.190 C 
BRANCH  11  12
ATOM     12  O   UNL     1       9.433   2.340  21.501  0.00  0.00    -0.392 OA
ATOM     13  H   UNL     1       9.772   2.521  20.604  0.00  0.00    +0.210 HD
ENDBRANCH  11  12
ENDBRANCH   4  11
BRANCH   6  14
ATOM     14  O   UNL     1       7.952   2.614  23.850  0.00  0.00    -0.453 OA
BRANCH  14  15
ATOM     15  C   UNL     1       6.968   3.470  24.381  0.00  0.00    +0.214 A 
ATOM     16  C   UNL     1       5.500   3.121  24.374  0.00  0.00    +0.238 A 
ATOM     17  O   UNL     1       5.059   2.215  23.682  0.00  0.00    -0.283 OA
ATOM     18  C   UNL     1       4.592   4.015  25.118  0.00  0.00    +0.109 A 
ATOM     19  C   UNL     1       5.075   5.303  25.450  0.00  0.00    +0.147 A 
ATOM     20  C   UNL     1       4.280   6.250  26.042  0.00  0.00    +0.092 A 
ATOM     21  C   UNL     1       2.961   5.961  26.336  0.00  0.00    +0.124 A 
ATOM     22  C   UNL     1       2.448   4.693  26.041  0.00  0.00    +0.091 A 
ATOM     23  O   UNL     1       6.375   5.654  25.256  0.00  0.00    -0.451 OA
ATOM     24  C   UNL     1       3.255   3.745  25.435  0.00  0.00    +0.135 A 
ATOM     25  C   UNL     1       7.273   4.718  24.810  0.00  0.00    +0.181 A 
BRANCH  25  26
ATOM     26  C   UNL     1       8.561   5.409  24.608  0.00  0.00    +0.025 A 
ATOM     27  C   UNL     1       8.933   6.162  25.699  0.00  0.00    +0.015 A 
ATOM     28  C   UNL     1      10.261   6.586  25.794  0.00  0.00    +0.050 A 
ATOM     29  C   UNL     1      11.193   6.369  24.800  0.00  0.00    +0.158 A 
ATOM     30  C   UNL     1      10.828   5.628  23.716  0.00  0.00    +0.159 A 
ATOM     31  C   UNL     1       9.519   5.130  23.605  0.00  0.00    +0.060 A 
BRANCH  30  32
ATOM     32  O   UNL     1      11.761   5.257  22.790  0.00  0.00    -0.503 OA
ATOM     33  H   UNL     1      12.384   6.011  22.758  0.00  0.00    +0.292 HD
ENDBRANCH  30  32
BRANCH  29  34
ATOM     34  O   UNL     1      12.439   6.886  24.999  0.00  0.00    -0.503 OA
ATOM     35  H   UNL     1      12.489   7.209  25.919  0.00  0.00    +0.292 HD
ENDBRANCH  29  34
ENDBRANCH  25  26
BRANCH  24  36
ATOM     36  O   UNL     1       2.731   2.531  25.159  0.00  0.00    -0.506 OA
ATOM     37  H   UNL     1       1.794   2.591  24.909  0.00  0.00    +0.292 HD
ENDBRANCH  24  36
BRANCH  21  38
ATOM     38  O   UNL     1       2.146   6.871  26.940  0.00  0.00    -0.507 OA
ATOM     39  H   UNL     1       2.197   6.750  27.894  0.00  0.00    +0.292 HD
ENDBRANCH  21  38
ENDBRANCH  14  15
ENDBRANCH   6  14
BRANCH   1  40
ATOM     40  O   UNL     1       8.045  -0.818  25.515  0.00  0.00    -0.337 OA
BRANCH  40  43
ATOM     41  C   UNL     1       5.438  -2.773  27.103  0.00  0.00    +0.190 C 
ATOM     42  O   UNL     1       6.445  -1.816  26.822  0.00  0.00    -0.339 OA
ATOM     43  C   UNL     1       7.108  -1.908  25.579  0.00  0.00    +0.282 C 
ATOM     44  C   UNL     1       7.807  -3.289  25.455  0.00  0.00    +0.201 C 
ATOM     45  C   UNL     1       6.799  -4.427  25.776  0.00  0.00    +0.179 C 
ATOM     46  C   UNL     1       6.087  -4.160  27.121  0.00  0.00    +0.178 C 
BRANCH  46  47
ATOM     47  O   UNL     1       5.113  -5.156  27.417  0.00  0.00    -0.386 OA
ATOM     48  H   UNL     1       4.239  -4.783  27.207  0.00  0.00    +0.210 HD
ENDBRANCH  46  47
BRANCH  45  49
ATOM     49  O   UNL     1       7.456  -5.704  25.791  0.00  0.00    -0.386 OA
ATOM     50  H   UNL     1       7.123  -6.236  25.050  0.00  0.00    +0.210 HD
ENDBRANCH  45  49
BRANCH  44  51
ATOM     51  O   UNL     1       8.382  -3.481  24.151  0.00  0.00    -0.384 OA
ATOM     52  H   UNL     1       7.715  -3.250  23.480  0.00  0.00    +0.210 HD
ENDBRANCH  44  51
BRANCH  41  53
ATOM     53  C   UNL     1       4.205  -2.671  26.184  0.00  0.00    +0.266 C 
BRANCH  53  54
ATOM     54  O   UNL     1       3.052  -3.286  26.791  0.00  0.00    -0.459 OA
BRANCH  54  55
ATOM     55  C   UNL     1       1.887  -3.163  26.111  0.00  0.00    +0.332 C 
ATOM     56  O   UNL     1       1.416  -2.123  25.677  0.00  0.00    -0.246 OA
BRANCH  55  58
ATOM     57  C   UNL     1       1.913  -5.414  25.279  0.00  0.00    +0.015 C 
ATOM     58  C   UNL     1       1.241  -4.483  25.972  0.00  0.00    +0.092 C 
BRANCH  57  63
ATOM     59  C   UNL     1       0.841  -8.944  25.880  0.00  0.00    +0.166 A 
ATOM     60  C   UNL     1       0.721  -9.458  24.557  0.00  0.00    +0.201 A 
ATOM     61  C   UNL     1       1.026  -8.649  23.452  0.00  0.00    +0.166 A 
ATOM     62  C   UNL     1       1.367  -7.300  23.689  0.00  0.00    +0.057 A 
ATOM     63  C   UNL     1       1.485  -6.785  24.981  0.00  0.00    -0.018 A 
ATOM     64  C   UNL     1       1.202  -7.612  26.072  0.00  0.00    +0.057 A 
BRANCH  59  66
ATOM     65  C   UNL     1       0.748  -9.210  28.258  0.00  0.00    +0.277 C 
ATOM     66  O   UNL     1       0.732  -9.813  26.950  0.00  0.00    -0.491 OA
ENDBRANCH  59  66
BRANCH  61  67
ATOM     67  O   UNL     1       1.118  -8.946  22.123  0.00  0.00    -0.491 OA
ATOM     68  C   UNL     1       0.831  -8.020  21.092  0.00  0.00    +0.277 C 
ENDBRANCH  61  67
BRANCH  60  69
ATOM     69  O   UNL     1       0.460 -10.801  24.430  0.00  0.00    -0.501 OA
ATOM     70  H   UNL     1       1.155 -11.184  23.869  0.00  0.00    +0.292 HD
ENDBRANCH  60  69
ENDBRANCH  57  63
ENDBRANCH  55  58
ENDBRANCH  54  55
ENDBRANCH  53  54
ENDBRANCH  41  53
ENDBRANCH  40  43
ENDBRANCH   1  40
TORSDOF 24
ENDMDL
MODEL 6
REMARK VINA RESULT:      -6.0      2.351      8.522
REMARK  Name = 
REMARK  26 active torsions:
REMARK  status: ('A' for Active; 'I' for Inactive)
REMARK    1  A    between atoms: C_1  and  O_2
REMARK    2  A    between atoms: O_2  and  C_3
REMARK    3  A    between atoms: C_5  and  C_12
REMARK    4  A    between atoms: C_7  and  O_10
REMARK    5  A    between atoms: C_8  and  O_9
REMARK    6  A    between atoms: O_10  and  C_11
REMARK    7  A    between atoms: C_13  and  C_14
REMARK    8  A    between atoms: C_14  and  O_16
REMARK    9  A    between atoms: O_16  and  C_17
REMARK   10  A    between atoms: C_17  and  C_18
REMARK   11  A    between atoms: C_19  and  O_64
REMARK   12  A    between atoms: C_21  and  O_63
REMARK   13  A    between atoms: C_22  and  O_62
REMARK   14  A    between atoms: C_24  and  O_27
REMARK   15  A    between atoms: O_27  and  C_28
REMARK   16  A    between atoms: C_29  and  O_40
REMARK   17  A    between atoms: C_32  and  C_38
REMARK   18  A    between atoms: C_33  and  O_37
REMARK   19  A    between atoms: C_35  and  O_36
REMARK   20  A    between atoms: C_38  and  O_39
REMARK   21  A    between atoms: O_40  and  C_41
REMARK   22  A    between atoms: C_42  and  C_54
REMARK   23  A    between atoms: C_46  and  O_53
REMARK   24  A    between atoms: C_48  and  O_52
REMARK   25  A    between atoms: C_56  and  O_61
REMARK   26  A    between atoms: C_57  and  O_60
REMARK                            x       y       z     vdW  Elec       q    Type
REMARK                         _______ _______ _______ _____ _____    ______ ____
ROOT
ATOM      1  C   UNL     1       8.000   3.403  23.812  0.00  0.00    +0.221 C 
ATOM      2  C   UNL     1       8.190   4.732  23.057  0.00  0.00    +0.180 C 
ATOM      3  C   UNL     1       9.039   5.759  23.848  0.00  0.00    +0.177 C 
ATOM      4  C   UNL     1       8.992   5.668  25.391  0.00  0.00    +0.179 C 
ATOM      5  O   UNL     1       8.659   4.393  25.935  0.00  0.00    -0.331 OA
ATOM      6  C   UNL     1       7.572   3.732  25.280  0.00  0.00    +0.340 C 
ENDROOT
BRANCH   3   7
ATOM      7  O   UNL     1       8.793   7.108  23.436  0.00  0.00    -0.386 OA
ATOM      8  H   UNL     1       9.258   7.269  22.598  0.00  0.00    +0.210 HD
ENDBRANCH   3   7
BRANCH   2   9
ATOM      9  O   UNL     1       6.932   5.295  22.654  0.00  0.00    -0.386 OA
ATOM     10  H   UNL     1       6.389   5.465  23.442  0.00  0.00    +0.210 HD
ENDBRANCH   2   9
BRANCH   4  11
ATOM     11  C   UNL     1       8.203   6.774  26.103  0.00  0.00    +0.190 C 
BRANCH  11  12
ATOM     12  O   UNL     1       6.971   7.074  25.432  0.00  0.00    -0.392 OA
ATOM     13  H   UNL     1       6.957   8.037  25.277  0.00  0.00    +0.210 HD
ENDBRANCH  11  12
ENDBRANCH   4  11
BRANCH   6  14
ATOM     14  O   UNL     1       6.306   4.429  25.335  0.00  0.00    -0.453 OA
BRANCH  14  15
ATOM     15  C   UNL     1       5.204   3.727  25.862  0.00  0.00    +0.214 A 
ATOM     16  C   UNL     1       5.313   2.845  27.080  0.00  0.00    +0.238 A 
ATOM     17  O   UNL     1       6.396   2.483  27.516  0.00  0.00    -0.283 OA
ATOM     18  C   UNL     1       4.056   2.308  27.638  0.00  0.00    +0.109 A 
ATOM     19  C   UNL     1       2.913   2.331  26.803  0.00  0.00    +0.147 A 
ATOM     20  C   UNL     1       1.725   1.760  27.180  0.00  0.00    +0.092 A 
ATOM     21  C   UNL     1       1.613   1.139  28.409  0.00  0.00    +0.124 A 
ATOM     22  C   UNL     1       2.714   1.110  29.272  0.00  0.00    +0.091 A 
ATOM     23  O   UNL     1       2.912   2.975  25.605  0.00  0.00    -0.451 OA
ATOM     24  C   UNL     1       3.914   1.681  28.881  0.00  0.00    +0.135 A 
ATOM     25  C   UNL     1       4.011   3.700  25.221  0.00  0.00    +0.181 A 
BRANCH  25  26
ATOM     26  C   UNL     1       3.753   4.196  23.856  0.00  0.00    +0.025 A 
ATOM     27  C   UNL     1       3.623   3.177  22.940  0.00  0.00    +0.015 A 
ATOM     28  C   UNL     1       3.046   3.465  21.700  0.00  0.00    +0.050 A 
ATOM     29  C   UNL     1       2.688   4.742  21.316  0.00  0.00    +0.158 A 
ATOM     30  C   UNL     1       2.819   5.754  22.218  0.00  0.00    +0.159 A 
ATOM     31  C   UNL     1       3.341   5.502  23.497  0.00  0.00    +0.060 A 
BRANCH  30  32
ATOM     32  O   UNL     1       2.332   6.998  21.933  0.00  0.00    -0.503 OA
ATOM     33  H   UNL     1       1.992   7.328  22.789  0.00  0.00    +0.292 HD
ENDBRANCH  30  32
BRANCH  29  34
ATOM     34  O   UNL     1       2.187   4.888  20.056  0.00  0.00    -0.503 OA
ATOM     35  H   UNL     1       2.541   4.165  19.503  0.00  0.00    +0.292 HD
ENDBRANCH  29  34
ENDBRANCH  25  26
BRANCH  24  36
ATOM     36  O   UNL     1       4.960   1.634  29.734  0.00  0.00    -0.506 OA
ATOM     37  H   UNL     1       4.739   1.155  30.551  0.00  0.00    +0.292 HD
ENDBRANCH  24  36
BRANCH  21  38
ATOM     38  O   UNL     1       0.443   0.576  28.823  0.00  0.00    -0.507 OA
ATOM     39  H   UNL     1       0.444   0.529  29.785  0.00  0.00    +0.292 HD
ENDBRANCH  21  38
ENDBRANCH  14  15
ENDBRANCH   6  14
BRANCH   1  40
ATOM     40  O   UNL     1       9.243   2.647  23.678  0.00  0.00    -0.337 OA
BRANCH  40  43
ATOM     41  C   UNL     1       9.655  -0.740  24.903  0.00  0.00    +0.190 C 
ATOM     42  O   UNL     1       9.735   0.664  24.722  0.00  0.00    -0.339 OA
ATOM     43  C   UNL     1       9.044   1.223  23.625  0.00  0.00    +0.282 C 
ATOM     44  C   UNL     1       9.570   0.606  22.301  0.00  0.00    +0.201 C 
ATOM     45  C   UNL     1       9.560  -0.945  22.394  0.00  0.00    +0.179 C 
ATOM     46  C   UNL     1      10.276  -1.417  23.678  0.00  0.00    +0.178 C 
BRANCH  46  47
ATOM     47  O   UNL     1      10.234  -2.834  23.824  0.00  0.00    -0.386 OA
ATOM     48  H   UNL     1      10.647  -3.222  23.033  0.00  0.00    +0.210 HD
ENDBRANCH  46  47
BRANCH  45  49
ATOM     49  O   UNL     1      10.161  -1.531  21.229  0.00  0.00    -0.386 OA
ATOM     50  H   UNL     1      11.030  -1.122  21.085  0.00  0.00    +0.210 HD
ENDBRANCH  45  49
BRANCH  44  51
ATOM     51  O   UNL     1       8.804   1.046  21.166  0.00  0.00    -0.384 OA
ATOM     52  H   UNL     1       8.030   0.463  21.070  0.00  0.00    +0.210 HD
ENDBRANCH  44  51
BRANCH  41  53
ATOM     53  C   UNL     1       8.241  -1.247  25.248  0.00  0.00    +0.266 C 
BRANCH  53  54
ATOM     54  O   UNL     1       7.299  -0.157  25.315  0.00  0.00    -0.459 OA
BRANCH  54  55
ATOM     55  C   UNL     1       6.048  -0.427  24.872  0.00  0.00    +0.332 C 
ATOM     56  O   UNL     1       5.122   0.368  24.810  0.00  0.00    -0.246 OA
BRANCH  55  58
ATOM     57  C   UNL     1       5.001  -2.576  25.087  0.00  0.00    +0.015 C 
ATOM     58  C   UNL     1       5.946  -1.845  24.478  0.00  0.00    +0.092 C 
BRANCH  57  63
ATOM     59  C   UNL     1       3.558  -5.665  23.556  0.00  0.00    +0.166 A 
ATOM     60  C   UNL     1       4.018  -6.687  24.435  0.00  0.00    +0.201 A 
ATOM     61  C   UNL     1       4.784  -6.359  25.564  0.00  0.00    +0.166 A 
ATOM     62  C   UNL     1       5.153  -5.010  25.749  0.00  0.00    +0.057 A 
ATOM     63  C   UNL     1       4.710  -4.000  24.892  0.00  0.00    -0.018 A 
ATOM     64  C   UNL     1       3.926  -4.341  23.786  0.00  0.00    +0.057 A 
BRANCH  59  66
ATOM     65  C   UNL     1       1.258  -5.753  22.892  0.00  0.00    +0.277 C 
ATOM     66  O   UNL     1       2.643  -5.989  22.571  0.00  0.00    -0.491 OA
ENDBRANCH  59  66
BRANCH  61  67
ATOM     67  O   UNL     1       5.217  -7.126  26.606  0.00  0.00    -0.491 OA
ATOM     68  C   UNL     1       4.975  -6.810  27.965  0.00  0.00    +0.277 C 
ENDBRANCH  61  67
BRANCH  60  69
ATOM     69  O   UNL     1       3.543  -7.958  24.218  0.00  0.00    -0.501 OA
ATOM     70  H   UNL     1       3.586  -8.128  23.261  0.00  0.00    +0.292 HD
ENDBRANCH  60  69
ENDBRANCH  57  63
ENDBRANCH  55  58
ENDBRANCH  54  55
ENDBRANCH  53  54
ENDBRANCH  41  53
ENDBRANCH  40  43
ENDBRANCH   1  40
TORSDOF 24
ENDMDL
MODEL 7
REMARK VINA RESULT:      -5.9      1.695      2.124
REMARK  Name = 
REMARK  26 active torsions:
REMARK  status: ('A' for Active; 'I' for Inactive)
REMARK    1  A    between atoms: C_1  and  O_2
REMARK    2  A    between atoms: O_2  and  C_3
REMARK    3  A    between atoms: C_5  and  C_12
REMARK    4  A    between atoms: C_7  and  O_10
REMARK    5  A    between atoms: C_8  and  O_9
REMARK    6  A    between atoms: O_10  and  C_11
REMARK    7  A    between atoms: C_13  and  C_14
REMARK    8  A    between atoms: C_14  and  O_16
REMARK    9  A    between atoms: O_16  and  C_17
REMARK   10  A    between atoms: C_17  and  C_18
REMARK   11  A    between atoms: C_19  and  O_64
REMARK   12  A    between atoms: C_21  and  O_63
REMARK   13  A    between atoms: C_22  and  O_62
REMARK   14  A    between atoms: C_24  and  O_27
REMARK   15  A    between atoms: O_27  and  C_28
REMARK   16  A    between atoms: C_29  and  O_40
REMARK   17  A    between atoms: C_32  and  C_38
REMARK   18  A    between atoms: C_33  and  O_37
REMARK   19  A    between atoms: C_35  and  O_36
REMARK   20  A    between atoms: C_38  and  O_39
REMARK   21  A    between atoms: O_40  and  C_41
REMARK   22  A    between atoms: C_42  and  C_54
REMARK   23  A    between atoms: C_46  and  O_53
REMARK   24  A    between atoms: C_48  and  O_52
REMARK   25  A    between atoms: C_56  and  O_61
REMARK   26  A    between atoms: C_57  and  O_60
REMARK                            x       y       z     vdW  Elec       q    Type
REMARK                         _______ _______ _______ _____ _____    ______ ____
ROOT
ATOM      1  C   UNL     1       7.547  -2.771  23.405  0.00  0.00    +0.221 C 
ATOM      2  C   UNL     1       8.163  -4.168  23.197  0.00  0.00    +0.180 C 
ATOM      3  C   UNL     1       7.459  -4.977  22.079  0.00  0.00    +0.177 C 
ATOM      4  C   UNL     1       5.964  -4.672  21.827  0.00  0.00    +0.179 C 
ATOM      5  O   UNL     1       5.515  -3.373  22.209  0.00  0.00    -0.331 OA
ATOM      6  C   UNL     1       5.994  -2.930  23.483  0.00  0.00    +0.340 C 
ENDROOT
BRANCH   3   7
ATOM      7  O   UNL     1       7.645  -6.389  22.224  0.00  0.00    -0.386 OA
ATOM      8  H   UNL     1       8.322  -6.681  21.590  0.00  0.00    +0.210 HD
ENDBRANCH   3   7
BRANCH   2   9
ATOM      9  O   UNL     1       8.216  -4.910  24.425  0.00  0.00    -0.386 OA
ATOM     10  H   UNL     1       7.510  -4.601  25.017  0.00  0.00    +0.210 HD
ENDBRANCH   2   9
BRANCH   4  11
ATOM     11  C   UNL     1       4.973  -5.741  22.306  0.00  0.00    +0.190 C 
BRANCH  11  12
ATOM     12  O   UNL     1       5.372  -6.325  23.553  0.00  0.00    -0.392 OA
ATOM     13  H   UNL     1       5.841  -7.154  23.342  0.00  0.00    +0.210 HD
ENDBRANCH  11  12
ENDBRANCH   4  11
BRANCH   6  14
ATOM     14  O   UNL     1       5.584  -3.739  24.610  0.00  0.00    -0.453 OA
BRANCH  14  15
ATOM     15  C   UNL     1       4.961  -3.079  25.687  0.00  0.00    +0.214 A 
ATOM     16  C   UNL     1       5.676  -2.055  26.532  0.00  0.00    +0.238 A 
ATOM     17  O   UNL     1       6.892  -1.935  26.503  0.00  0.00    -0.283 OA
ATOM     18  C   UNL     1       4.866  -1.306  27.512  0.00  0.00    +0.109 A 
ATOM     19  C   UNL     1       3.604  -1.844  27.859  0.00  0.00    +0.147 A 
ATOM     20  C   UNL     1       2.818  -1.290  28.836  0.00  0.00    +0.092 A 
ATOM     21  C   UNL     1       3.250  -0.169  29.518  0.00  0.00    +0.124 A 
ATOM     22  C   UNL     1       4.484   0.406  29.194  0.00  0.00    +0.091 A 
ATOM     23  O   UNL     1       3.071  -2.906  27.197  0.00  0.00    -0.451 OA
ATOM     24  C   UNL     1       5.276  -0.165  28.212  0.00  0.00    +0.135 A 
ATOM     25  C   UNL     1       3.721  -3.426  26.107  0.00  0.00    +0.181 A 
BRANCH  25  26
ATOM     26  C   UNL     1       2.960  -4.611  25.667  0.00  0.00    +0.025 A 
ATOM     27  C   UNL     1       2.155  -4.349  24.582  0.00  0.00    +0.015 A 
ATOM     28  C   UNL     1       1.649  -5.428  23.852  0.00  0.00    +0.050 A 
ATOM     29  C   UNL     1       1.840  -6.743  24.224  0.00  0.00    +0.158 A 
ATOM     30  C   UNL     1       2.633  -7.007  25.300  0.00  0.00    +0.159 A 
ATOM     31  C   UNL     1       3.211  -5.956  26.030  0.00  0.00    +0.060 A 
BRANCH  30  32
ATOM     32  O   UNL     1       2.974  -8.294  25.605  0.00  0.00    -0.503 OA
ATOM     33  H   UNL     1       2.495  -8.482  26.437  0.00  0.00    +0.292 HD
ENDBRANCH  30  32
BRANCH  29  34
ATOM     34  O   UNL     1       1.243  -7.695  23.451  0.00  0.00    -0.503 OA
ATOM     35  H   UNL     1       0.897  -8.391  24.041  0.00  0.00    +0.292 HD
ENDBRANCH  29  34
ENDBRANCH  25  26
BRANCH  24  36
ATOM     36  O   UNL     1       6.464   0.410  27.923  0.00  0.00    -0.506 OA
ATOM     37  H   UNL     1       7.137   0.203  28.593  0.00  0.00    +0.292 HD
ENDBRANCH  24  36
BRANCH  21  38
ATOM     38  O   UNL     1       2.489   0.419  30.485  0.00  0.00    -0.507 OA
ATOM     39  H   UNL     1       2.228  -0.252  31.125  0.00  0.00    +0.292 HD
ENDBRANCH  21  38
ENDBRANCH  14  15
ENDBRANCH   6  14
BRANCH   1  40
ATOM     40  O   UNL     1       8.035  -1.917  22.324  0.00  0.00    -0.337 OA
BRANCH  40  43
ATOM     41  C   UNL     1       8.714   1.595  21.735  0.00  0.00    +0.190 C 
ATOM     42  O   UNL     1       8.462   0.209  21.575  0.00  0.00    -0.339 OA
ATOM     43  C   UNL     1       8.320  -0.570  22.744  0.00  0.00    +0.282 C 
ATOM     44  C   UNL     1       9.615  -0.483  23.597  0.00  0.00    +0.201 C 
ATOM     45  C   UNL     1      10.011   1.003  23.813  0.00  0.00    +0.179 C 
ATOM     46  C   UNL     1      10.051   1.757  22.465  0.00  0.00    +0.178 C 
BRANCH  46  47
ATOM     47  O   UNL     1      10.355   3.139  22.634  0.00  0.00    -0.386 OA
ATOM     48  H   UNL     1       9.511   3.616  22.725  0.00  0.00    +0.210 HD
ENDBRANCH  46  47
BRANCH  45  49
ATOM     49  O   UNL     1      11.273   1.102  24.491  0.00  0.00    -0.386 OA
ATOM     50  H   UNL     1      11.971   1.260  23.833  0.00  0.00    +0.210 HD
ENDBRANCH  45  49
BRANCH  44  51
ATOM     51  O   UNL     1       9.466  -1.152  24.861  0.00  0.00    -0.384 OA
ATOM     52  H   UNL     1       8.824  -0.658  25.400  0.00  0.00    +0.210 HD
ENDBRANCH  44  51
BRANCH  41  53
ATOM     53  C   UNL     1       7.550   2.371  22.381  0.00  0.00    +0.266 C 
BRANCH  53  54
ATOM     54  O   UNL     1       7.482   3.720  21.878  0.00  0.00    -0.459 OA
BRANCH  54  55
ATOM     55  C   UNL     1       7.002   4.650  22.737  0.00  0.00    +0.332 C 
ATOM     56  O   UNL     1       7.370   5.813  22.816  0.00  0.00    -0.246 OA
BRANCH  55  58
ATOM     57  C   UNL     1       5.763   4.624  24.792  0.00  0.00    +0.015 C 
ATOM     58  C   UNL     1       5.957   4.056  23.593  0.00  0.00    +0.092 C 
BRANCH  57  63
ATOM     59  C   UNL     1       3.934   4.634  28.052  0.00  0.00    +0.166 A 
ATOM     60  C   UNL     1       3.077   3.503  27.927  0.00  0.00    +0.201 A 
ATOM     61  C   UNL     1       3.121   2.705  26.774  0.00  0.00    +0.166 A 
ATOM     62  C   UNL     1       3.968   3.106  25.719  0.00  0.00    +0.057 A 
ATOM     63  C   UNL     1       4.810   4.215  25.829  0.00  0.00    -0.018 A 
ATOM     64  C   UNL     1       4.772   4.984  26.995  0.00  0.00    +0.057 A 
BRANCH  59  66
ATOM     65  C   UNL     1       5.268   5.937  29.555  0.00  0.00    +0.277 C 
ATOM     66  O   UNL     1       4.017   5.282  29.271  0.00  0.00    -0.491 OA
ENDBRANCH  59  66
BRANCH  61  67
ATOM     67  O   UNL     1       2.513   1.519  26.482  0.00  0.00    -0.491 OA
ATOM     68  C   UNL     1       1.111   1.329  26.511  0.00  0.00    +0.277 C 
ENDBRANCH  61  67
BRANCH  60  69
ATOM     69  O   UNL     1       2.347   3.147  29.035  0.00  0.00    -0.501 OA
ATOM     70  H   UNL     1       2.182   3.955  29.550  0.00  0.00    +0.292 HD
ENDBRANCH  60  69
ENDBRANCH  57  63
ENDBRANCH  55  58
ENDBRANCH  54  55
ENDBRANCH  53  54
ENDBRANCH  41  53
ENDBRANCH  40  43
ENDBRANCH   1  40
TORSDOF 24
ENDMDL
MODEL 8
REMARK VINA RESULT:      -5.8      2.238      9.867
REMARK  Name = 
REMARK  26 active torsions:
REMARK  status: ('A' for Active; 'I' for Inactive)
REMARK    1  A    between atoms: C_1  and  O_2
REMARK    2  A    between atoms: O_2  and  C_3
REMARK    3  A    between atoms: C_5  and  C_12
REMARK    4  A    between atoms: C_7  and  O_10
REMARK    5  A    between atoms: C_8  and  O_9
REMARK    6  A    between atoms: O_10  and  C_11
REMARK    7  A    between atoms: C_13  and  C_14
REMARK    8  A    between atoms: C_14  and  O_16
REMARK    9  A    between atoms: O_16  and  C_17
REMARK   10  A    between atoms: C_17  and  C_18
REMARK   11  A    between atoms: C_19  and  O_64
REMARK   12  A    between atoms: C_21  and  O_63
REMARK   13  A    between atoms: C_22  and  O_62
REMARK   14  A    between atoms: C_24  and  O_27
REMARK   15  A    between atoms: O_27  and  C_28
REMARK   16  A    between atoms: C_29  and  O_40
REMARK   17  A    between atoms: C_32  and  C_38
REMARK   18  A    between atoms: C_33  and  O_37
REMARK   19  A    between atoms: C_35  and  O_36
REMARK   20  A    between atoms: C_38  and  O_39
REMARK   21  A    between atoms: O_40  and  C_41
REMARK   22  A    between atoms: C_42  and  C_54
REMARK   23  A    between atoms: C_46  and  O_53
REMARK   24  A    between atoms: C_48  and  O_52
REMARK   25  A    between atoms: C_56  and  O_61
REMARK   26  A    between atoms: C_57  and  O_60
REMARK                            x       y       z     vdW  Elec       q    Type
REMARK                         _______ _______ _______ _____ _____    ______ ____
ROOT
ATOM      1  C   UNL     1       4.020   0.786  27.467  0.00  0.00    +0.221 C 
ATOM      2  C   UNL     1       4.213   1.471  28.833  0.00  0.00    +0.180 C 
ATOM      3  C   UNL     1       3.542   2.865  28.909  0.00  0.00    +0.177 C 
ATOM      4  C   UNL     1       3.409   3.653  27.586  0.00  0.00    +0.179 C 
ATOM      5  O   UNL     1       3.387   2.875  26.390  0.00  0.00    -0.331 OA
ATOM      6  C   UNL     1       4.358   1.824  26.348  0.00  0.00    +0.340 C 
ENDROOT
BRANCH   3   7
ATOM      7  O   UNL     1       4.128   3.702  29.912  0.00  0.00    -0.386 OA
ATOM      8  H   UNL     1       4.478   4.502  29.486  0.00  0.00    +0.210 HD
ENDBRANCH   3   7
BRANCH   2   9
ATOM      9  O   UNL     1       5.601   1.539  29.198  0.00  0.00    -0.386 OA
ATOM     10  H   UNL     1       6.146   1.517  28.394  0.00  0.00    +0.210 HD
ENDBRANCH   2   9
BRANCH   4  11
ATOM     11  C   UNL     1       4.351   4.853  27.423  0.00  0.00    +0.190 C 
BRANCH  11  12
ATOM     12  O   UNL     1       5.680   4.558  27.872  0.00  0.00    -0.392 OA
ATOM     13  H   UNL     1       5.826   3.605  27.727  0.00  0.00    +0.210 HD
ENDBRANCH  11  12
ENDBRANCH   4  11
BRANCH   6  14
ATOM     14  O   UNL     1       5.737   2.259  26.406  0.00  0.00    -0.453 OA
BRANCH  14  15
ATOM     15  C   UNL     1       6.657   1.604  25.564  0.00  0.00    +0.214 A 
ATOM     16  C   UNL     1       7.438   0.392  26.005  0.00  0.00    +0.238 A 
ATOM     17  O   UNL     1       7.518   0.072  27.182  0.00  0.00    -0.283 OA
ATOM     18  C   UNL     1       8.232  -0.309  24.977  0.00  0.00    +0.109 A 
ATOM     19  C   UNL     1       8.512   0.394  23.781  0.00  0.00    +0.147 A 
ATOM     20  C   UNL     1       9.330  -0.119  22.808  0.00  0.00    +0.092 A 
ATOM     21  C   UNL     1       9.910  -1.362  22.976  0.00  0.00    +0.124 A 
ATOM     22  C   UNL     1       9.644  -2.099  24.135  0.00  0.00    +0.091 A 
ATOM     23  O   UNL     1       7.936   1.594  23.503  0.00  0.00    -0.451 OA
ATOM     24  C   UNL     1       8.825  -1.569  25.118  0.00  0.00    +0.135 A 
ATOM     25  C   UNL     1       6.988   2.108  24.351  0.00  0.00    +0.181 A 
BRANCH  25  26
ATOM     26  C   UNL     1       6.623   3.444  23.842  0.00  0.00    +0.025 A 
ATOM     27  C   UNL     1       7.723   4.201  23.509  0.00  0.00    +0.015 A 
ATOM     28  C   UNL     1       7.535   5.330  22.707  0.00  0.00    +0.050 A 
ATOM     29  C   UNL     1       6.290   5.775  22.314  0.00  0.00    +0.158 A 
ATOM     30  C   UNL     1       5.198   5.031  22.645  0.00  0.00    +0.159 A 
ATOM     31  C   UNL     1       5.343   3.856  23.402  0.00  0.00    +0.060 A 
BRANCH  30  32
ATOM     32  O   UNL     1       3.968   5.350  22.144  0.00  0.00    -0.503 OA
ATOM     33  H   UNL     1       4.161   5.813  21.303  0.00  0.00    +0.292 HD
ENDBRANCH  30  32
BRANCH  29  34
ATOM     34  O   UNL     1       6.250   6.923  21.578  0.00  0.00    -0.503 OA
ATOM     35  H   UNL     1       5.656   7.552  22.030  0.00  0.00    +0.292 HD
ENDBRANCH  29  34
ENDBRANCH  25  26
BRANCH  24  36
ATOM     36  O   UNL     1       8.589  -2.303  26.228  0.00  0.00    -0.506 OA
ATOM     37  H   UNL     1       9.093  -1.974  26.991  0.00  0.00    +0.292 HD
ENDBRANCH  24  36
BRANCH  21  38
ATOM     38  O   UNL     1      10.715  -1.911  22.023  0.00  0.00    -0.507 OA
ATOM     39  H   UNL     1      10.857  -2.841  22.233  0.00  0.00    +0.292 HD
ENDBRANCH  21  38
ENDBRANCH  14  15
ENDBRANCH   6  14
BRANCH   1  40
ATOM     40  O   UNL     1       2.658   0.256  27.436  0.00  0.00    -0.337 OA
BRANCH  40  43
ATOM     41  C   UNL     1       0.935  -2.817  26.585  0.00  0.00    +0.190 C 
ATOM     42  O   UNL     1       1.244  -1.476  26.923  0.00  0.00    -0.339 OA
ATOM     43  C   UNL     1       2.599  -1.154  27.154  0.00  0.00    +0.282 C 
ATOM     44  C   UNL     1       3.153  -2.010  28.324  0.00  0.00    +0.201 C 
ATOM     45  C   UNL     1       2.842  -3.513  28.078  0.00  0.00    +0.179 C 
ATOM     46  C   UNL     1       1.344  -3.713  27.759  0.00  0.00    +0.178 C 
BRANCH  46  47
ATOM     47  O   UNL     1       1.036  -5.074  27.471  0.00  0.00    -0.386 OA
ATOM     48  H   UNL     1       0.305  -5.339  28.057  0.00  0.00    +0.210 HD
ENDBRANCH  46  47
BRANCH  45  49
ATOM     49  O   UNL     1       3.233  -4.308  29.208  0.00  0.00    -0.386 OA
ATOM     50  H   UNL     1       3.815  -3.778  29.778  0.00  0.00    +0.210 HD
ENDBRANCH  45  49
BRANCH  44  51
ATOM     51  O   UNL     1       4.566  -1.814  28.507  0.00  0.00    -0.384 OA
ATOM     52  H   UNL     1       4.800  -0.926  28.185  0.00  0.00    +0.210 HD
ENDBRANCH  44  51
BRANCH  41  53
ATOM     53  C   UNL     1       1.506  -3.268  25.226  0.00  0.00    +0.266 C 
BRANCH  53  54
ATOM     54  O   UNL     1       0.963  -4.543  24.831  0.00  0.00    -0.459 OA
BRANCH  54  55
ATOM     55  C   UNL     1       1.544  -5.127  23.756  0.00  0.00    +0.332 C 
ATOM     56  O   UNL     1       0.960  -5.689  22.841  0.00  0.00    -0.246 OA
BRANCH  55  58
ATOM     57  C   UNL     1       3.587  -5.434  24.976  0.00  0.00    +0.015 C 
ATOM     58  C   UNL     1       3.012  -5.002  23.844  0.00  0.00    +0.092 C 
BRANCH  57  63
ATOM     59  C   UNL     1       7.288  -5.196  24.502  0.00  0.00    +0.166 A 
ATOM     60  C   UNL     1       7.780  -5.388  25.825  0.00  0.00    +0.201 A 
ATOM     61  C   UNL     1       6.891  -5.631  26.883  0.00  0.00    +0.166 A 
ATOM     62  C   UNL     1       5.507  -5.593  26.612  0.00  0.00    +0.057 A 
ATOM     63  C   UNL     1       5.013  -5.403  25.319  0.00  0.00    -0.018 A 
ATOM     64  C   UNL     1       5.913  -5.187  24.272  0.00  0.00    +0.057 A 
BRANCH  59  66
ATOM     65  C   UNL     1       7.645  -5.451  22.148  0.00  0.00    +0.277 C 
ATOM     66  O   UNL     1       8.185  -5.160  23.451  0.00  0.00    -0.491 OA
ENDBRANCH  59  66
BRANCH  61  67
ATOM     67  O   UNL     1       7.120  -5.974  28.184  0.00  0.00    -0.491 OA
ATOM     68  C   UNL     1       6.109  -6.429  29.064  0.00  0.00    +0.277 C 
ENDBRANCH  61  67
BRANCH  60  69
ATOM     69  O   UNL     1       9.142  -5.487  25.976  0.00  0.00    -0.501 OA
ATOM     70  H   UNL     1       9.460  -6.152  25.343  0.00  0.00    +0.292 HD
ENDBRANCH  60  69
ENDBRANCH  57  63
ENDBRANCH  55  58
ENDBRANCH  54  55
ENDBRANCH  53  54
ENDBRANCH  41  53
ENDBRANCH  40  43
ENDBRANCH   1  40
TORSDOF 24
ENDMDL
MODEL 9
REMARK VINA RESULT:      -5.8      2.664      6.258
REMARK  Name = 
REMARK  26 active torsions:
REMARK  status: ('A' for Active; 'I' for Inactive)
REMARK    1  A    between atoms: C_1  and  O_2
REMARK    2  A    between atoms: O_2  and  C_3
REMARK    3  A    between atoms: C_5  and  C_12
REMARK    4  A    between atoms: C_7  and  O_10
REMARK    5  A    between atoms: C_8  and  O_9
REMARK    6  A    between atoms: O_10  and  C_11
REMARK    7  A    between atoms: C_13  and  C_14
REMARK    8  A    between atoms: C_14  and  O_16
REMARK    9  A    between atoms: O_16  and  C_17
REMARK   10  A    between atoms: C_17  and  C_18
REMARK   11  A    between atoms: C_19  and  O_64
REMARK   12  A    between atoms: C_21  and  O_63
REMARK   13  A    between atoms: C_22  and  O_62
REMARK   14  A    between atoms: C_24  and  O_27
REMARK   15  A    between atoms: O_27  and  C_28
REMARK   16  A    between atoms: C_29  and  O_40
REMARK   17  A    between atoms: C_32  and  C_38
REMARK   18  A    between atoms: C_33  and  O_37
REMARK   19  A    between atoms: C_35  and  O_36
REMARK   20  A    between atoms: C_38  and  O_39
REMARK   21  A    between atoms: O_40  and  C_41
REMARK   22  A    between atoms: C_42  and  C_54
REMARK   23  A    between atoms: C_46  and  O_53
REMARK   24  A    between atoms: C_48  and  O_52
REMARK   25  A    between atoms: C_56  and  O_61
REMARK   26  A    between atoms: C_57  and  O_60
REMARK                            x       y       z     vdW  Elec       q    Type
REMARK                         _______ _______ _______ _____ _____    ______ ____
ROOT
ATOM      1  C   UNL     1       4.927   0.908  26.069  0.00  0.00    +0.221 C 
ATOM      2  C   UNL     1       6.256   1.621  26.378  0.00  0.00    +0.180 C 
ATOM      3  C   UNL     1       7.376   1.276  25.364  0.00  0.00    +0.177 C 
ATOM      4  C   UNL     1       7.304  -0.112  24.686  0.00  0.00    +0.179 C 
ATOM      5  O   UNL     1       6.010  -0.706  24.605  0.00  0.00    -0.331 OA
ATOM      6  C   UNL     1       5.233  -0.602  25.802  0.00  0.00    +0.340 C 
ENDROOT
BRANCH   3   7
ATOM      7  O   UNL     1       8.686   1.483  25.902  0.00  0.00    -0.386 OA
ATOM      8  H   UNL     1       9.226   1.948  25.241  0.00  0.00    +0.210 HD
ENDBRANCH   3   7
BRANCH   2   9
ATOM      9  O   UNL     1       6.683   1.382  27.728  0.00  0.00    -0.386 OA
ATOM     10  H   UNL     1       6.942   2.225  28.137  0.00  0.00    +0.210 HD
ENDBRANCH   2   9
BRANCH   4  11
ATOM     11  C   UNL     1       8.335  -1.144  25.161  0.00  0.00    +0.190 C 
BRANCH  11  12
ATOM     12  O   UNL     1       8.504  -1.119  26.585  0.00  0.00    -0.392 OA
ATOM     13  H   UNL     1       9.105  -1.853  26.814  0.00  0.00    +0.210 HD
ENDBRANCH  11  12
ENDBRANCH   4  11
BRANCH   6  14
ATOM     14  O   UNL     1       5.799  -1.257  26.961  0.00  0.00    -0.453 OA
BRANCH  14  15
ATOM     15  C   UNL     1       5.110  -2.374  27.472  0.00  0.00    +0.214 A 
ATOM     16  C   UNL     1       4.115  -2.267  28.600  0.00  0.00    +0.238 A 
ATOM     17  O   UNL     1       4.045  -1.269  29.301  0.00  0.00    -0.283 OA
ATOM     18  C   UNL     1       3.329  -3.474  28.923  0.00  0.00    +0.109 A 
ATOM     19  C   UNL     1       3.814  -4.713  28.439  0.00  0.00    +0.147 A 
ATOM     20  C   UNL     1       3.225  -5.905  28.770  0.00  0.00    +0.092 A 
ATOM     21  C   UNL     1       2.120  -5.925  29.601  0.00  0.00    +0.124 A 
ATOM     22  C   UNL     1       1.598  -4.721  30.087  0.00  0.00    +0.091 A 
ATOM     23  O   UNL     1       4.855  -4.785  27.567  0.00  0.00    -0.451 OA
ATOM     24  C   UNL     1       2.205  -3.521  29.754  0.00  0.00    +0.135 A 
ATOM     25  C   UNL     1       5.404  -3.632  27.065  0.00  0.00    +0.181 A 
BRANCH  25  26
ATOM     26  C   UNL     1       6.558  -4.023  26.233  0.00  0.00    +0.025 A 
ATOM     27  C   UNL     1       7.636  -4.432  26.985  0.00  0.00    +0.015 A 
ATOM     28  C   UNL     1       8.658  -5.145  26.351  0.00  0.00    +0.050 A 
ATOM     29  C   UNL     1       8.683  -5.374  24.990  0.00  0.00    +0.158 A 
ATOM     30  C   UNL     1       7.619  -4.967  24.242  0.00  0.00    +0.159 A 
ATOM     31  C   UNL     1       6.542  -4.298  24.845  0.00  0.00    +0.060 A 
BRANCH  30  32
ATOM     32  O   UNL     1       7.532  -5.314  22.924  0.00  0.00    -0.503 OA
ATOM     33  H   UNL     1       8.120  -6.091  22.837  0.00  0.00    +0.292 HD
ENDBRANCH  30  32
BRANCH  29  34
ATOM     34  O   UNL     1       9.768  -6.036  24.497  0.00  0.00    -0.503 OA
ATOM     35  H   UNL     1       9.481  -6.552  23.720  0.00  0.00    +0.292 HD
ENDBRANCH  29  34
ENDBRANCH  25  26
BRANCH  24  36
ATOM     36  O   UNL     1       1.680  -2.375  30.241  0.00  0.00    -0.506 OA
ATOM     37  H   UNL     1       1.423  -2.464  31.175  0.00  0.00    +0.292 HD
ENDBRANCH  24  36
BRANCH  21  38
ATOM     38  O   UNL     1       1.499  -7.090  29.939  0.00  0.00    -0.507 OA
ATOM     39  H   UNL     1       1.893  -7.429  30.750  0.00  0.00    +0.292 HD
ENDBRANCH  21  38
ENDBRANCH  14  15
ENDBRANCH   6  14
BRANCH   1  40
ATOM     40  O   UNL     1       4.298   1.624  24.961  0.00  0.00    -0.337 OA
BRANCH  40  43
ATOM     41  C   UNL     1       3.299   4.916  26.102  0.00  0.00    +0.190 C 
ATOM     42  O   UNL     1       4.047   3.784  25.691  0.00  0.00    -0.339 OA
ATOM     43  C   UNL     1       3.334   2.604  25.386  0.00  0.00    +0.282 C 
ATOM     44  C   UNL     1       2.531   2.137  26.629  0.00  0.00    +0.201 C 
ATOM     45  C   UNL     1       1.689   3.315  27.194  0.00  0.00    +0.179 C 
ATOM     46  C   UNL     1       2.574   4.563  27.404  0.00  0.00    +0.178 C 
BRANCH  46  47
ATOM     47  O   UNL     1       1.821   5.681  27.867  0.00  0.00    -0.386 OA
ATOM     48  H   UNL     1       1.886   6.378  27.190  0.00  0.00    +0.210 HD
ENDBRANCH  46  47
BRANCH  45  49
ATOM     49  O   UNL     1       1.038   2.938  28.417  0.00  0.00    -0.386 OA
ATOM     50  H   UNL     1       0.171   2.555  28.205  0.00  0.00    +0.210 HD
ENDBRANCH  45  49
BRANCH  44  51
ATOM     51  O   UNL     1       1.684   1.015  26.326  0.00  0.00    -0.384 OA
ATOM     52  H   UNL     1       0.936   1.013  26.950  0.00  0.00    +0.210 HD
ENDBRANCH  44  51
BRANCH  41  53
ATOM     53  C   UNL     1       2.378   5.489  25.008  0.00  0.00    +0.266 C 
BRANCH  53  54
ATOM     54  O   UNL     1       3.110   6.341  24.105  0.00  0.00    -0.459 OA
BRANCH  54  55
ATOM     55  C   UNL     1       3.486   5.779  22.932  0.00  0.00    +0.332 C 
ATOM     56  O   UNL     1       2.745   5.484  22.006  0.00  0.00    -0.246 OA
BRANCH  55  58
ATOM     57  C   UNL     1       5.358   4.286  22.768  0.00  0.00    +0.015 C 
ATOM     58  C   UNL     1       4.944   5.551  22.926  0.00  0.00    +0.092 C 
BRANCH  57  63
ATOM     59  C   UNL     1       9.027   4.155  23.472  0.00  0.00    +0.166 A 
ATOM     60  C   UNL     1       9.439   3.005  22.739  0.00  0.00    +0.201 A 
ATOM     61  C   UNL     1       8.511   2.280  21.977  0.00  0.00    +0.166 A 
ATOM     62  C   UNL     1       7.156   2.671  22.030  0.00  0.00    +0.057 A 
ATOM     63  C   UNL     1       6.740   3.795  22.747  0.00  0.00    -0.018 A 
ATOM     64  C   UNL     1       7.682   4.521  23.481  0.00  0.00    +0.057 A 
BRANCH  59  66
ATOM     65  C   UNL     1       9.754   6.384  23.964  0.00  0.00    +0.277 C 
ATOM     66  O   UNL     1       9.989   4.965  24.047  0.00  0.00    -0.491 OA
ENDBRANCH  59  66
BRANCH  61  67
ATOM     67  O   UNL     1       8.683   1.249  21.101  0.00  0.00    -0.491 OA
ATOM     68  C   UNL     1       9.244  -0.001  21.460  0.00  0.00    +0.277 C 
ENDBRANCH  61  67
BRANCH  60  69
ATOM     69  O   UNL     1      10.788   2.750  22.685  0.00  0.00    -0.501 OA
ATOM     70  H   UNL     1      11.251   3.604  22.735  0.00  0.00    +0.292 HD
ENDBRANCH  60  69
ENDBRANCH  57  63
ENDBRANCH  55  58
ENDBRANCH  54  55
ENDBRANCH  53  54
ENDBRANCH  41  53
ENDBRANCH  40  43
ENDBRANCH   1  40
TORSDOF 24
ENDMDL
