MODEL 1
REMARK VINA RESULT:      -6.1      0.000      0.000
REMARK  Name = 
REMARK  27 active torsions:
REMARK  status: ('A' for Active; 'I' for Inactive)
REMARK    1  A    between atoms: C_1  and  C_2
REMARK    2  A    between atoms: C_3  and  O_74
REMARK    3  A    between atoms: C_5  and  O_73
REMARK    4  A    between atoms: C_6  and  O_72
REMARK    5  A    between atoms: C_8  and  O_11
REMARK    6  A    between atoms: O_11  and  C_12
REMARK    7  A    between atoms: C_14  and  O_71
REMARK    8  A    between atoms: C_19  and  C_63
REMARK    9  A    between atoms: C_20  and  O_23
REMARK   10  A    between atoms: O_23  and  C_24
REMARK   11  A    between atoms: C_26  and  O_48
REMARK   12  A    between atoms: C_27  and  O_47
REMARK   13  A    between atoms: C_29  and  O_46
REMARK   14  A    between atoms: C_31  and  C_33
REMARK   15  A    between atoms: C_33  and  O_34
REMARK   16  A    between atoms: O_34  and  C_35
REMARK   17  A    between atoms: C_35  and  C_37
REMARK   18  A    between atoms: C_38  and  C_39
REMARK   19  A    between atoms: C_42  and  O_45
REMARK   20  A    between atoms: O_48  and  C_49
REMARK   21  A    between atoms: C_51  and  O_62
REMARK   22  A    between atoms: C_52  and  O_61
REMARK   23  A    between atoms: C_54  and  O_60
REMARK   24  A    between atoms: C_56  and  C_58
REMARK   25  A    between atoms: C_58  and  O_59
REMARK   26  A    between atoms: C_65  and  O_70
REMARK   27  A    between atoms: C_66  and  O_69
REMARK                            x       y       z     vdW  Elec       q    Type
REMARK                         _______ _______ _______ _____ _____    ______ ____
ROOT
ATOM      1  C   UNL     1       3.703  -1.723  26.401  0.00  0.00    +0.340 C 
ATOM      2  O   UNL     1       3.357  -0.345  26.705  0.00  0.00    -0.330 OA
ATOM      3  C   UNL     1       2.791  -0.121  28.002  0.00  0.00    +0.191 C 
ATOM      4  C   UNL     1       1.518  -0.958  28.201  0.00  0.00    +0.178 C 
ATOM      5  C   UNL     1       1.899  -2.436  28.116  0.00  0.00    +0.180 C 
ATOM      6  C   UNL     1       2.533  -2.742  26.744  0.00  0.00    +0.221 C 
ENDROOT
BRANCH   5   7
ATOM      7  O   UNL     1       2.765  -2.786  29.194  0.00  0.00    -0.386 OA
ATOM      8  H   UNL     1       2.310  -2.542  30.022  0.00  0.00    +0.210 HD
ENDBRANCH   5   7
BRANCH   4   9
ATOM      9  O   UNL     1       0.530  -0.612  27.221  0.00  0.00    -0.386 OA
ATOM     10  H   UNL     1      -0.339  -0.910  27.550  0.00  0.00    +0.210 HD
ENDBRANCH   4   9
BRANCH   6  11
ATOM     11  O   UNL     1       2.796  -4.174  26.527  0.00  0.00    -0.337 OA
BRANCH  11  12
ATOM     12  C   UNL     1       3.690  -4.497  25.406  0.00  0.00    +0.282 C 
ATOM     13  O   UNL     1       2.985  -5.038  24.246  0.00  0.00    -0.341 OA
ATOM     14  C   UNL     1       2.547  -6.419  24.317  0.00  0.00    +0.178 C 
ATOM     15  C   UNL     1       3.622  -7.390  24.860  0.00  0.00    +0.177 C 
ATOM     16  C   UNL     1       4.262  -6.823  26.111  0.00  0.00    +0.179 C 
ATOM     17  C   UNL     1       4.861  -5.456  25.751  0.00  0.00    +0.201 C 
BRANCH  17  18
ATOM     18  O   UNL     1       5.776  -4.988  26.751  0.00  0.00    -0.384 OA
ATOM     19  H   UNL     1       6.567  -5.558  26.713  0.00  0.00    +0.210 HD
ENDBRANCH  17  18
BRANCH  16  20
ATOM     20  O   UNL     1       3.333  -6.775  27.193  0.00  0.00    -0.386 OA
ATOM     21  H   UNL     1       2.696  -6.037  27.076  0.00  0.00    +0.210 HD
ENDBRANCH  16  20
BRANCH  15  22
ATOM     22  O   UNL     1       4.650  -7.618  23.880  0.00  0.00    -0.386 OA
ATOM     23  H   UNL     1       4.706  -6.839  23.297  0.00  0.00    +0.210 HD
ENDBRANCH  15  22
BRANCH  14  24
ATOM     24  C   UNL     1       2.094  -6.989  22.941  0.00  0.00    +0.190 C 
BRANCH  24  25
ATOM     25  O   UNL     1       1.784  -8.376  22.955  0.00  0.00    -0.392 OA
ATOM     26  H   UNL     1       2.173  -8.760  23.755  0.00  0.00    +0.210 HD
ENDBRANCH  24  25
ENDBRANCH  14  24
ENDBRANCH  11  12
ENDBRANCH   6  11
BRANCH   3  27
ATOM     27  C   UNL     1       2.424   1.369  28.164  0.00  0.00    +0.266 C 
BRANCH  27  28
ATOM     28  O   UNL     1       1.829   1.998  27.012  0.00  0.00    -0.459 OA
BRANCH  28  29
ATOM     29  C   UNL     1       2.471   3.093  26.548  0.00  0.00    +0.332 C 
ATOM     30  O   UNL     1       3.326   3.744  27.129  0.00  0.00    -0.246 OA
BRANCH  29  31
ATOM     31  C   UNL     1       1.853   3.484  25.270  0.00  0.00    +0.092 C 
ATOM     32  C   UNL     1       2.578   3.414  24.139  0.00  0.00    +0.015 C 
BRANCH  32  33
ATOM     33  C   UNL     1       2.128   3.959  22.854  0.00  0.00    -0.025 A 
ATOM     34  C   UNL     1       2.285   3.194  21.693  0.00  0.00    +0.011 A 
ATOM     35  C   UNL     1       1.908   3.715  20.455  0.00  0.00    +0.046 A 
ATOM     36  C   UNL     1       1.376   4.999  20.376  0.00  0.00    +0.117 A 
ATOM     37  C   UNL     1       1.233   5.783  21.509  0.00  0.00    +0.046 A 
ATOM     38  C   UNL     1       1.626   5.264  22.756  0.00  0.00    +0.011 A 
BRANCH  36  39
ATOM     39  O   UNL     1       1.022   5.465  19.144  0.00  0.00    -0.507 OA
ATOM     40  H   UNL     1       0.108   5.191  18.968  0.00  0.00    +0.292 HD
ENDBRANCH  36  39
ENDBRANCH  32  33
ENDBRANCH  29  31
ENDBRANCH  28  29
ENDBRANCH  27  28
ENDBRANCH   3  27
BRANCH   1  41
ATOM     41  O   UNL     1       4.997  -2.051  26.947  0.00  0.00    -0.453 OA
BRANCH  41  47
ATOM     42  C   UNL     1       8.055   3.307  25.416  0.00  0.00    +0.131 A 
ATOM     43  C   UNL     1       8.222   1.988  24.975  0.00  0.00    +0.093 A 
ATOM     44  C   UNL     1       7.648   0.927  25.686  0.00  0.00    +0.147 A 
ATOM     45  O   UNL     1       7.844  -0.352  25.233  0.00  0.00    -0.451 OA
ATOM     46  C   UNL     1       6.874  -1.322  25.552  0.00  0.00    +0.181 A 
ATOM     47  C   UNL     1       6.086  -1.213  26.663  0.00  0.00    +0.214 A 
ATOM     48  C   UNL     1       6.387  -0.011  27.523  0.00  0.00    +0.238 A 
ATOM     49  O   UNL     1       6.238   0.024  28.737  0.00  0.00    -0.283 OA
ATOM     50  C   UNL     1       6.910   1.167  26.824  0.00  0.00    +0.109 A 
ATOM     51  C   UNL     1       6.708   2.477  27.257  0.00  0.00    +0.135 A 
ATOM     52  C   UNL     1       7.291   3.541  26.562  0.00  0.00    +0.092 A 
BRANCH  46  53
ATOM     53  C   UNL     1       6.841  -2.398  24.493  0.00  0.00    +0.025 A 
ATOM     54  C   UNL     1       5.852  -2.352  23.474  0.00  0.00    +0.015 A 
ATOM     55  C   UNL     1       5.736  -3.351  22.498  0.00  0.00    +0.050 A 
ATOM     56  C   UNL     1       6.613  -4.414  22.527  0.00  0.00    +0.158 A 
ATOM     57  C   UNL     1       7.619  -4.465  23.483  0.00  0.00    +0.159 A 
ATOM     58  C   UNL     1       7.758  -3.457  24.441  0.00  0.00    +0.060 A 
BRANCH  57  59
ATOM     59  O   UNL     1       8.441  -5.559  23.442  0.00  0.00    -0.503 OA
ATOM     60  H   UNL     1       8.132  -6.215  24.107  0.00  0.00    +0.292 HD
ENDBRANCH  57  59
BRANCH  56  61
ATOM     61  O   UNL     1       6.490  -5.423  21.615  0.00  0.00    -0.503 OA
ATOM     62  H   UNL     1       5.721  -5.156  21.071  0.00  0.00    +0.292 HD
ENDBRANCH  56  61
ENDBRANCH  46  53
BRANCH  51  63
ATOM     63  O   UNL     1       5.895   2.738  28.324  0.00  0.00    -0.506 OA
ATOM     64  H   UNL     1       6.327   3.377  28.911  0.00  0.00    +0.292 HD
ENDBRANCH  51  63
BRANCH  42  65
ATOM     65  O   UNL     1       8.570   4.438  24.830  0.00  0.00    -0.461 OA
BRANCH  65  69
ATOM     66  C   UNL     1       5.291   7.106  25.291  0.00  0.00    +0.041 C 
ATOM     67  C   UNL     1       5.285   5.972  24.268  0.00  0.00    +0.150 C 
ATOM     68  O   UNL     1       6.286   4.995  24.574  0.00  0.00    -0.334 OA
ATOM     69  C   UNL     1       7.638   5.432  24.384  0.00  0.00    +0.339 C 
ATOM     70  C   UNL     1       7.875   5.785  22.894  0.00  0.00    +0.214 C 
ATOM     71  C   UNL     1       6.865   6.870  22.482  0.00  0.00    +0.180 C 
ATOM     72  C   UNL     1       5.421   6.456  22.819  0.00  0.00    +0.174 C 
BRANCH  72  73
ATOM     73  O   UNL     1       5.044   5.400  21.916  0.00  0.00    -0.387 OA
ATOM     74  H   UNL     1       5.880   5.056  21.528  0.00  0.00    +0.210 HD
ENDBRANCH  72  73
BRANCH  71  75
ATOM     75  O   UNL     1       6.973   7.107  21.068  0.00  0.00    -0.386 OA
ATOM     76  H   UNL     1       6.095   7.441  20.785  0.00  0.00    +0.210 HD
ENDBRANCH  71  75
BRANCH  70  77
ATOM     77  O   UNL     1       7.688   4.639  22.034  0.00  0.00    -0.383 OA
ATOM     78  H   UNL     1       6.786   4.742  21.667  0.00  0.00    +0.210 HD
ENDBRANCH  70  77
ENDBRANCH  65  69
ENDBRANCH  42  65
ENDBRANCH  41  47
ENDBRANCH   1  41
TORSDOF 26
ENDMDL
MODEL 2
REMARK VINA RESULT:      -5.6      2.136      8.460
REMARK  Name = 
REMARK  27 active torsions:
REMARK  status: ('A' for Active; 'I' for Inactive)
REMARK    1  A    between atoms: C_1  and  C_2
REMARK    2  A    between atoms: C_3  and  O_74
REMARK    3  A    between atoms: C_5  and  O_73
REMARK    4  A    between atoms: C_6  and  O_72
REMARK    5  A    between atoms: C_8  and  O_11
REMARK    6  A    between atoms: O_11  and  C_12
REMARK    7  A    between atoms: C_14  and  O_71
REMARK    8  A    between atoms: C_19  and  C_63
REMARK    9  A    between atoms: C_20  and  O_23
REMARK   10  A    between atoms: O_23  and  C_24
REMARK   11  A    between atoms: C_26  and  O_48
REMARK   12  A    between atoms: C_27  and  O_47
REMARK   13  A    between atoms: C_29  and  O_46
REMARK   14  A    between atoms: C_31  and  C_33
REMARK   15  A    between atoms: C_33  and  O_34
REMARK   16  A    between atoms: O_34  and  C_35
REMARK   17  A    between atoms: C_35  and  C_37
REMARK   18  A    between atoms: C_38  and  C_39
REMARK   19  A    between atoms: C_42  and  O_45
REMARK   20  A    between atoms: O_48  and  C_49
REMARK   21  A    between atoms: C_51  and  O_62
REMARK   22  A    between atoms: C_52  and  O_61
REMARK   23  A    between atoms: C_54  and  O_60
REMARK   24  A    between atoms: C_56  and  C_58
REMARK   25  A    between atoms: C_58  and  O_59
REMARK   26  A    between atoms: C_65  and  O_70
REMARK   27  A    between atoms: C_66  and  O_69
REMARK                            x       y       z     vdW  Elec       q    Type
REMARK                         _______ _______ _______ _____ _____    ______ ____
ROOT
ATOM      1  C   UNL     1       7.137   1.319  26.783  0.00  0.00    +0.340 C 
ATOM      2  O   UNL     1       6.282   2.057  27.698  0.00  0.00    -0.330 OA
ATOM      3  C   UNL     1       5.605   3.188  27.137  0.00  0.00    +0.191 C 
ATOM      4  C   UNL     1       6.605   4.194  26.549  0.00  0.00    +0.178 C 
ATOM      5  C   UNL     1       7.366   3.506  25.415  0.00  0.00    +0.180 C 
ATOM      6  C   UNL     1       8.106   2.264  25.950  0.00  0.00    +0.221 C 
ENDROOT
BRANCH   5   7
ATOM      7  O   UNL     1       6.475   3.178  24.349  0.00  0.00    -0.386 OA
ATOM      8  H   UNL     1       5.706   3.775  24.421  0.00  0.00    +0.210 HD
ENDBRANCH   5   7
BRANCH   4   9
ATOM      9  O   UNL     1       7.497   4.671  27.565  0.00  0.00    -0.386 OA
ATOM     10  H   UNL     1       8.118   3.951  27.785  0.00  0.00    +0.210 HD
ENDBRANCH   4   9
BRANCH   6  11
ATOM     11  O   UNL     1       8.979   1.627  24.950  0.00  0.00    -0.337 OA
BRANCH  11  12
ATOM     12  C   UNL     1       8.491   1.654  23.564  0.00  0.00    +0.282 C 
ATOM     13  O   UNL     1       7.560   0.569  23.261  0.00  0.00    -0.341 OA
ATOM     14  C   UNL     1       8.123  -0.753  23.056  0.00  0.00    +0.178 C 
ATOM     15  C   UNL     1       9.367  -0.768  22.136  0.00  0.00    +0.177 C 
ATOM     16  C   UNL     1      10.339   0.320  22.545  0.00  0.00    +0.179 C 
ATOM     17  C   UNL     1       9.596   1.661  22.475  0.00  0.00    +0.201 C 
BRANCH  17  18
ATOM     18  O   UNL     1      10.495   2.777  22.507  0.00  0.00    -0.384 OA
ATOM     19  H   UNL     1      10.108   3.481  21.951  0.00  0.00    +0.210 HD
ENDBRANCH  17  18
BRANCH  16  20
ATOM     20  O   UNL     1      10.912   0.049  23.824  0.00  0.00    -0.386 OA
ATOM     21  H   UNL     1      10.377   0.453  24.541  0.00  0.00    +0.210 HD
ENDBRANCH  16  20
BRANCH  15  22
ATOM     22  O   UNL     1       8.993  -0.558  20.763  0.00  0.00    -0.386 OA
ATOM     23  H   UNL     1       9.755  -0.772  20.194  0.00  0.00    +0.210 HD
ENDBRANCH  15  22
BRANCH  14  24
ATOM     24  C   UNL     1       7.109  -1.760  22.440  0.00  0.00    +0.190 C 
BRANCH  24  25
ATOM     25  O   UNL     1       7.684  -2.993  22.029  0.00  0.00    -0.392 OA
ATOM     26  H   UNL     1       8.552  -2.803  21.643  0.00  0.00    +0.210 HD
ENDBRANCH  24  25
ENDBRANCH  14  24
ENDBRANCH  11  12
ENDBRANCH   6  11
BRANCH   3  27
ATOM     27  C   UNL     1       4.783   3.901  28.230  0.00  0.00    +0.266 C 
BRANCH  27  28
ATOM     28  O   UNL     1       3.378   4.064  27.954  0.00  0.00    -0.459 OA
BRANCH  28  29
ATOM     29  C   UNL     1       3.065   5.045  27.079  0.00  0.00    +0.332 C 
ATOM     30  O   UNL     1       3.214   6.246  27.238  0.00  0.00    -0.246 OA
BRANCH  29  31
ATOM     31  C   UNL     1       2.350   4.439  25.942  0.00  0.00    +0.092 C 
ATOM     32  C   UNL     1       3.043   4.055  24.856  0.00  0.00    +0.015 C 
BRANCH  32  33
ATOM     33  C   UNL     1       2.413   3.626  23.603  0.00  0.00    -0.025 A 
ATOM     34  C   UNL     1       1.127   3.076  23.636  0.00  0.00    +0.011 A 
ATOM     35  C   UNL     1       0.531   2.618  22.462  0.00  0.00    +0.046 A 
ATOM     36  C   UNL     1       1.219   2.707  21.254  0.00  0.00    +0.117 A 
ATOM     37  C   UNL     1       2.502   3.227  21.201  0.00  0.00    +0.046 A 
ATOM     38  C   UNL     1       3.109   3.676  22.388  0.00  0.00    +0.011 A 
BRANCH  36  39
ATOM     39  O   UNL     1       0.595   2.246  20.133  0.00  0.00    -0.507 OA
ATOM     40  H   UNL     1       1.009   1.405  19.881  0.00  0.00    +0.292 HD
ENDBRANCH  36  39
ENDBRANCH  32  33
ENDBRANCH  29  31
ENDBRANCH  28  29
ENDBRANCH  27  28
ENDBRANCH   3  27
BRANCH   1  41
ATOM     41  O   UNL     1       6.359   0.384  26.008  0.00  0.00    -0.453 OA
BRANCH  41  47
ATOM     42  C   UNL     1       5.144  -5.855  25.996  0.00  0.00    +0.131 A 
ATOM     43  C   UNL     1       4.600  -4.808  26.750  0.00  0.00    +0.093 A 
ATOM     44  C   UNL     1       5.246  -3.567  26.806  0.00  0.00    +0.147 A 
ATOM     45  O   UNL     1       4.692  -2.570  27.566  0.00  0.00    -0.451 OA
ATOM     46  C   UNL     1       4.966  -1.235  27.207  0.00  0.00    +0.181 A 
ATOM     47  C   UNL     1       6.106  -0.891  26.537  0.00  0.00    +0.214 A 
ATOM     48  C   UNL     1       7.044  -2.043  26.274  0.00  0.00    +0.238 A 
ATOM     49  O   UNL     1       8.262  -1.938  26.204  0.00  0.00    -0.283 OA
ATOM     50  C   UNL     1       6.421  -3.359  26.118  0.00  0.00    +0.109 A 
ATOM     51  C   UNL     1       6.958  -4.383  25.337  0.00  0.00    +0.135 A 
ATOM     52  C   UNL     1       6.327  -5.629  25.288  0.00  0.00    +0.092 A 
BRANCH  46  53
ATOM     53  C   UNL     1       3.831  -0.335  27.631  0.00  0.00    +0.025 A 
ATOM     54  C   UNL     1       3.721   0.067  28.990  0.00  0.00    +0.015 A 
ATOM     55  C   UNL     1       2.658   0.855  29.454  0.00  0.00    +0.050 A 
ATOM     56  C   UNL     1       1.688   1.255  28.560  0.00  0.00    +0.158 A 
ATOM     57  C   UNL     1       1.791   0.916  27.217  0.00  0.00    +0.159 A 
ATOM     58  C   UNL     1       2.864   0.156  26.743  0.00  0.00    +0.060 A 
BRANCH  57  59
ATOM     59  O   UNL     1       0.780   1.351  26.402  0.00  0.00    -0.503 OA
ATOM     60  H   UNL     1       0.023   0.727  26.473  0.00  0.00    +0.292 HD
ENDBRANCH  57  59
BRANCH  56  61
ATOM     61  O   UNL     1       0.619   1.983  28.998  0.00  0.00    -0.503 OA
ATOM     62  H   UNL     1       0.452   1.639  29.899  0.00  0.00    +0.292 HD
ENDBRANCH  56  61
ENDBRANCH  46  53
BRANCH  51  63
ATOM     63  O   UNL     1       8.066  -4.160  24.568  0.00  0.00    -0.506 OA
ATOM     64  H   UNL     1       7.808  -3.692  23.759  0.00  0.00    +0.292 HD
ENDBRANCH  51  63
BRANCH  42  65
ATOM     65  O   UNL     1       4.630  -7.122  25.863  0.00  0.00    -0.461 OA
BRANCH  65  69
ATOM     66  C   UNL     1       0.684  -8.707  25.859  0.00  0.00    +0.041 C 
ATOM     67  C   UNL     1       1.616  -8.830  24.655  0.00  0.00    +0.150 C 
ATOM     68  O   UNL     1       2.976  -8.594  25.029  0.00  0.00    -0.334 OA
ATOM     69  C   UNL     1       3.282  -7.240  25.385  0.00  0.00    +0.339 C 
ATOM     70  C   UNL     1       3.042  -6.308  24.170  0.00  0.00    +0.214 C 
ATOM     71  C   UNL     1       1.578  -6.459  23.720  0.00  0.00    +0.180 C 
ATOM     72  C   UNL     1       1.212  -7.934  23.477  0.00  0.00    +0.174 C 
BRANCH  72  73
ATOM     73  O   UNL     1       1.892  -8.366  22.283  0.00  0.00    -0.387 OA
ATOM     74  H   UNL     1       2.404  -7.590  21.961  0.00  0.00    +0.210 HD
ENDBRANCH  72  73
BRANCH  71  75
ATOM     75  O   UNL     1       1.375  -5.714  22.508  0.00  0.00    -0.386 OA
ATOM     76  H   UNL     1       2.214  -5.786  22.005  0.00  0.00    +0.210 HD
ENDBRANCH  71  75
BRANCH  70  77
ATOM     77  O   UNL     1       3.898  -6.644  23.056  0.00  0.00    -0.383 OA
ATOM     78  H   UNL     1       3.704  -7.584  22.862  0.00  0.00    +0.210 HD
ENDBRANCH  70  77
ENDBRANCH  65  69
ENDBRANCH  42  65
ENDBRANCH  41  47
ENDBRANCH   1  41
TORSDOF 26
ENDMDL
MODEL 3
REMARK VINA RESULT:      -5.3      2.469      5.558
REMARK  Name = 
REMARK  27 active torsions:
REMARK  status: ('A' for Active; 'I' for Inactive)
REMARK    1  A    between atoms: C_1  and  C_2
REMARK    2  A    between atoms: C_3  and  O_74
REMARK    3  A    between atoms: C_5  and  O_73
REMARK    4  A    between atoms: C_6  and  O_72
REMARK    5  A    between atoms: C_8  and  O_11
REMARK    6  A    between atoms: O_11  and  C_12
REMARK    7  A    between atoms: C_14  and  O_71
REMARK    8  A    between atoms: C_19  and  C_63
REMARK    9  A    between atoms: C_20  and  O_23
REMARK   10  A    between atoms: O_23  and  C_24
REMARK   11  A    between atoms: C_26  and  O_48
REMARK   12  A    between atoms: C_27  and  O_47
REMARK   13  A    between atoms: C_29  and  O_46
REMARK   14  A    between atoms: C_31  and  C_33
REMARK   15  A    between atoms: C_33  and  O_34
REMARK   16  A    between atoms: O_34  and  C_35
REMARK   17  A    between atoms: C_35  and  C_37
REMARK   18  A    between atoms: C_38  and  C_39
REMARK   19  A    between atoms: C_42  and  O_45
REMARK   20  A    between atoms: O_48  and  C_49
REMARK   21  A    between atoms: C_51  and  O_62
REMARK   22  A    between atoms: C_52  and  O_61
REMARK   23  A    between atoms: C_54  and  O_60
REMARK   24  A    between atoms: C_56  and  C_58
REMARK   25  A    between atoms: C_58  and  O_59
REMARK   26  A    between atoms: C_65  and  O_70
REMARK   27  A    between atoms: C_66  and  O_69
REMARK                            x       y       z     vdW  Elec       q    Type
REMARK                         _______ _______ _______ _____ _____    ______ ____
ROOT
ATOM      1  C   UNL     1       4.640  -4.272  25.254  0.00  0.00    +0.340 C 
ATOM      2  O   UNL     1       5.649  -4.939  24.449  0.00  0.00    -0.330 OA
ATOM      3  C   UNL     1       5.214  -5.396  23.163  0.00  0.00    +0.191 C 
ATOM      4  C   UNL     1       4.031  -6.368  23.295  0.00  0.00    +0.178 C 
ATOM      5  C   UNL     1       2.863  -5.618  23.935  0.00  0.00    +0.180 C 
ATOM      6  C   UNL     1       3.273  -5.081  25.321  0.00  0.00    +0.221 C 
ENDROOT
BRANCH   5   7
ATOM      7  O   UNL     1       2.413  -4.575  23.071  0.00  0.00    -0.386 OA
ATOM      8  H   UNL     1       1.819  -4.981  22.412  0.00  0.00    +0.210 HD
ENDBRANCH   5   7
BRANCH   4   9
ATOM      9  O   UNL     1       4.406  -7.515  24.069  0.00  0.00    -0.386 OA
ATOM     10  H   UNL     1       4.289  -7.294  25.013  0.00  0.00    +0.210 HD
ENDBRANCH   4   9
BRANCH   6  11
ATOM     11  O   UNL     1       2.160  -4.470  26.065  0.00  0.00    -0.337 OA
BRANCH  11  12
ATOM     12  C   UNL     1       1.428  -5.366  26.971  0.00  0.00    +0.282 C 
ATOM     13  O   UNL     1       0.657  -4.653  27.987  0.00  0.00    -0.341 OA
ATOM     14  C   UNL     1       1.389  -4.090  29.106  0.00  0.00    +0.178 C 
ATOM     15  C   UNL     1       2.427  -5.057  29.724  0.00  0.00    +0.177 C 
ATOM     16  C   UNL     1       3.258  -5.706  28.636  0.00  0.00    +0.179 C 
ATOM     17  C   UNL     1       2.297  -6.435  27.687  0.00  0.00    +0.201 C 
BRANCH  17  18
ATOM     18  O   UNL     1       2.983  -7.356  26.829  0.00  0.00    -0.384 OA
ATOM     19  H   UNL     1       3.649  -6.848  26.327  0.00  0.00    +0.210 HD
ENDBRANCH  17  18
BRANCH  16  20
ATOM     20  O   UNL     1       4.094  -4.751  27.983  0.00  0.00    -0.386 OA
ATOM     21  H   UNL     1       3.832  -3.835  28.220  0.00  0.00    +0.210 HD
ENDBRANCH  16  20
BRANCH  15  22
ATOM     22  O   UNL     1       1.777  -6.090  30.485  0.00  0.00    -0.386 OA
ATOM     23  H   UNL     1       2.359  -6.872  30.515  0.00  0.00    +0.210 HD
ENDBRANCH  15  22
BRANCH  14  24
ATOM     24  C   UNL     1       0.466  -3.632  30.273  0.00  0.00    +0.190 C 
BRANCH  24  25
ATOM     25  O   UNL     1       0.444  -2.226  30.484  0.00  0.00    -0.392 OA
ATOM     26  H   UNL     1      -0.462  -1.975  30.719  0.00  0.00    +0.210 HD
ENDBRANCH  24  25
ENDBRANCH  14  24
ENDBRANCH  11  12
ENDBRANCH   6  11
BRANCH   3  27
ATOM     27  C   UNL     1       6.368  -6.129  22.448  0.00  0.00    +0.266 C 
BRANCH  27  28
ATOM     28  O   UNL     1       7.196  -5.315  21.595  0.00  0.00    -0.459 OA
BRANCH  28  29
ATOM     29  C   UNL     1       6.665  -4.128  21.227  0.00  0.00    +0.332 C 
ATOM     30  O   UNL     1       5.683  -3.949  20.523  0.00  0.00    -0.246 OA
BRANCH  29  31
ATOM     31  C   UNL     1       7.568  -3.057  21.683  0.00  0.00    +0.092 C 
ATOM     32  C   UNL     1       7.046  -1.918  22.172  0.00  0.00    +0.015 C 
BRANCH  32  33
ATOM     33  C   UNL     1       7.843  -0.723  22.468  0.00  0.00    -0.025 A 
ATOM     34  C   UNL     1       9.173  -0.663  22.038  0.00  0.00    +0.011 A 
ATOM     35  C   UNL     1       9.961   0.444  22.351  0.00  0.00    +0.046 A 
ATOM     36  C   UNL     1       9.423   1.491  23.095  0.00  0.00    +0.117 A 
ATOM     37  C   UNL     1       8.115   1.442  23.550  0.00  0.00    +0.046 A 
ATOM     38  C   UNL     1       7.324   0.319  23.247  0.00  0.00    +0.011 A 
BRANCH  36  39
ATOM     39  O   UNL     1      10.232   2.551  23.376  0.00  0.00    -0.507 OA
ATOM     40  H   UNL     1      11.076   2.417  22.917  0.00  0.00    +0.292 HD
ENDBRANCH  36  39
ENDBRANCH  32  33
ENDBRANCH  29  31
ENDBRANCH  28  29
ENDBRANCH  27  28
ENDBRANCH   3  27
BRANCH   1  41
ATOM     41  O   UNL     1       4.526  -2.886  24.874  0.00  0.00    -0.453 OA
BRANCH  41  47
ATOM     42  C   UNL     1       6.240   2.907  26.852  0.00  0.00    +0.131 A 
ATOM     43  C   UNL     1       6.833   1.653  27.038  0.00  0.00    +0.093 A 
ATOM     44  C   UNL     1       6.109   0.482  26.782  0.00  0.00    +0.147 A 
ATOM     45  O   UNL     1       6.717  -0.728  26.990  0.00  0.00    -0.451 OA
ATOM     46  C   UNL     1       6.264  -1.833  26.242  0.00  0.00    +0.181 A 
ATOM     47  C   UNL     1       4.988  -1.900  25.759  0.00  0.00    +0.214 A 
ATOM     48  C   UNL     1       4.117  -0.728  26.141  0.00  0.00    +0.238 A 
ATOM     49  O   UNL     1       2.906  -0.794  26.305  0.00  0.00    -0.283 OA
ATOM     50  C   UNL     1       4.806   0.550  26.339  0.00  0.00    +0.109 A 
ATOM     51  C   UNL     1       4.212   1.792  26.117  0.00  0.00    +0.135 A 
ATOM     52  C   UNL     1       4.924   2.965  26.386  0.00  0.00    +0.092 A 
BRANCH  46  53
ATOM     53  C   UNL     1       7.381  -2.831  26.054  0.00  0.00    +0.025 A 
ATOM     54  C   UNL     1       8.431  -2.548  25.140  0.00  0.00    +0.015 A 
ATOM     55  C   UNL     1       9.464  -3.459  24.880  0.00  0.00    +0.050 A 
ATOM     56  C   UNL     1       9.462  -4.672  25.536  0.00  0.00    +0.158 A 
ATOM     57  C   UNL     1       8.474  -4.960  26.468  0.00  0.00    +0.159 A 
ATOM     58  C   UNL     1       7.458  -4.044  26.753  0.00  0.00    +0.060 A 
BRANCH  57  59
ATOM     59  O   UNL     1       8.545  -6.189  27.068  0.00  0.00    -0.503 OA
ATOM     60  H   UNL     1       8.529  -6.885  26.372  0.00  0.00    +0.292 HD
ENDBRANCH  57  59
BRANCH  56  61
ATOM     61  O   UNL     1      10.431  -5.593  25.265  0.00  0.00    -0.503 OA
ATOM     62  H   UNL     1      10.732  -5.886  26.149  0.00  0.00    +0.292 HD
ENDBRANCH  56  61
ENDBRANCH  46  53
BRANCH  51  63
ATOM     63  O   UNL     1       2.958   1.876  25.581  0.00  0.00    -0.506 OA
ATOM     64  H   UNL     1       2.678   2.803  25.557  0.00  0.00    +0.292 HD
ENDBRANCH  51  63
BRANCH  42  65
ATOM     65  O   UNL     1       6.822   4.131  27.076  0.00  0.00    -0.461 OA
BRANCH  65  69
ATOM     66  C   UNL     1       5.162   6.503  23.962  0.00  0.00    +0.041 C 
ATOM     67  C   UNL     1       6.162   5.381  23.691  0.00  0.00    +0.150 C 
ATOM     68  O   UNL     1       6.256   4.492  24.808  0.00  0.00    -0.334 OA
ATOM     69  C   UNL     1       6.883   5.045  25.972  0.00  0.00    +0.339 C 
ATOM     70  C   UNL     1       8.350   5.428  25.650  0.00  0.00    +0.214 C 
ATOM     71  C   UNL     1       8.349   6.425  24.478  0.00  0.00    +0.180 C 
ATOM     72  C   UNL     1       7.550   5.886  23.278  0.00  0.00    +0.174 C 
BRANCH  72  73
ATOM     73  O   UNL     1       8.306   4.809  22.695  0.00  0.00    -0.387 OA
ATOM     74  H   UNL     1       9.065   5.225  22.227  0.00  0.00    +0.210 HD
ENDBRANCH  72  73
BRANCH  71  75
ATOM     75  O   UNL     1       9.703   6.681  24.071  0.00  0.00    -0.386 OA
ATOM     76  H   UNL     1       9.639   7.214  23.250  0.00  0.00    +0.210 HD
ENDBRANCH  71  75
BRANCH  70  77
ATOM     77  O   UNL     1       9.134   4.277  25.267  0.00  0.00    -0.383 OA
ATOM     78  H   UNL     1      10.023   4.633  25.061  0.00  0.00    +0.210 HD
ENDBRANCH  70  77
ENDBRANCH  65  69
ENDBRANCH  42  65
ENDBRANCH  41  47
ENDBRANCH   1  41
TORSDOF 26
ENDMDL
MODEL 4
REMARK VINA RESULT:      -5.3      2.359      8.609
REMARK  Name = 
REMARK  27 active torsions:
REMARK  status: ('A' for Active; 'I' for Inactive)
REMARK    1  A    between atoms: C_1  and  C_2
REMARK    2  A    between atoms: C_3  and  O_74
REMARK    3  A    between atoms: C_5  and  O_73
REMARK    4  A    between atoms: C_6  and  O_72
REMARK    5  A    between atoms: C_8  and  O_11
REMARK    6  A    between atoms: O_11  and  C_12
REMARK    7  A    between atoms: C_14  and  O_71
REMARK    8  A    between atoms: C_19  and  C_63
REMARK    9  A    between atoms: C_20  and  O_23
REMARK   10  A    between atoms: O_23  and  C_24
REMARK   11  A    between atoms: C_26  and  O_48
REMARK   12  A    between atoms: C_27  and  O_47
REMARK   13  A    between atoms: C_29  and  O_46
REMARK   14  A    between atoms: C_31  and  C_33
REMARK   15  A    between atoms: C_33  and  O_34
REMARK   16  A    between atoms: O_34  and  C_35
REMARK   17  A    between atoms: C_35  and  C_37
REMARK   18  A    between atoms: C_38  and  C_39
REMARK   19  A    between atoms: C_42  and  O_45
REMARK   20  A    between atoms: O_48  and  C_49
REMARK   21  A    between atoms: C_51  and  O_62
REMARK   22  A    between atoms: C_52  and  O_61
REMARK   23  A    between atoms: C_54  and  O_60
REMARK   24  A    between atoms: C_56  and  C_58
REMARK   25  A    between atoms: C_58  and  O_59
REMARK   26  A    between atoms: C_65  and  O_70
REMARK   27  A    between atoms: C_66  and  O_69
REMARK                            x       y       z     vdW  Elec       q    Type
REMARK                         _______ _______ _______ _____ _____    ______ ____
ROOT
ATOM      1  C   UNL     1       6.344   3.735  26.472  0.00  0.00    +0.340 C 
ATOM      2  O   UNL     1       6.974   4.813  25.729  0.00  0.00    -0.330 OA
ATOM      3  C   UNL     1       7.749   5.731  26.509  0.00  0.00    +0.191 C 
ATOM      4  C   UNL     1       6.893   6.382  27.606  0.00  0.00    +0.178 C 
ATOM      5  C   UNL     1       6.402   5.283  28.547  0.00  0.00    +0.180 C 
ATOM      6  C   UNL     1       5.572   4.246  27.764  0.00  0.00    +0.221 C 
ENDROOT
BRANCH   5   7
ATOM      7  O   UNL     1       7.506   4.681  29.223  0.00  0.00    -0.386 OA
ATOM      8  H   UNL     1       7.257   3.758  29.418  0.00  0.00    +0.210 HD
ENDBRANCH   5   7
BRANCH   4   9
ATOM      9  O   UNL     1       5.799   7.106  27.027  0.00  0.00    -0.386 OA
ATOM     10  H   UNL     1       6.142   7.958  26.696  0.00  0.00    +0.210 HD
ENDBRANCH   4   9
BRANCH   6  11
ATOM     11  O   UNL     1       4.941   3.231  28.623  0.00  0.00    -0.337 OA
BRANCH  11  12
ATOM     12  C   UNL     1       4.359   2.075  27.926  0.00  0.00    +0.282 C 
ATOM     13  O   UNL     1       3.243   2.434  27.053  0.00  0.00    -0.341 OA
ATOM     14  C   UNL     1       1.968   2.718  27.686  0.00  0.00    +0.178 C 
ATOM     15  C   UNL     1       1.564   1.690  28.769  0.00  0.00    +0.177 C 
ATOM     16  C   UNL     1       2.728   1.418  29.700  0.00  0.00    +0.179 C 
ATOM     17  C   UNL     1       3.899   0.913  28.845  0.00  0.00    +0.201 C 
BRANCH  17  18
ATOM     18  O   UNL     1       4.925   0.307  29.643  0.00  0.00    -0.384 OA
ATOM     19  H   UNL     1       5.691   0.912  29.644  0.00  0.00    +0.210 HD
ENDBRANCH  17  18
BRANCH  16  20
ATOM     20  O   UNL     1       3.045   2.567  30.484  0.00  0.00    -0.386 OA
ATOM     21  H   UNL     1       2.293   3.199  30.501  0.00  0.00    +0.210 HD
ENDBRANCH  16  20
BRANCH  15  22
ATOM     22  O   UNL     1       1.152   0.448  28.171  0.00  0.00    -0.386 OA
ATOM     23  H   UNL     1       1.539  -0.288  28.680  0.00  0.00    +0.210 HD
ENDBRANCH  15  22
BRANCH  14  24
ATOM     24  C   UNL     1       0.785   2.780  26.675  0.00  0.00    +0.190 C 
BRANCH  24  25
ATOM     25  O   UNL     1       0.788   1.740  25.706  0.00  0.00    -0.392 OA
ATOM     26  H   UNL     1       0.062   1.133  25.918  0.00  0.00    +0.210 HD
ENDBRANCH  24  25
ENDBRANCH  14  24
ENDBRANCH  11  12
ENDBRANCH   6  11
BRANCH   3  27
ATOM     27  C   UNL     1       8.309   6.846  25.602  0.00  0.00    +0.266 C 
BRANCH  27  28
ATOM     28  O   UNL     1       8.542   6.481  24.227  0.00  0.00    -0.459 OA
BRANCH  28  29
ATOM     29  C   UNL     1       9.738   5.907  23.971  0.00  0.00    +0.332 C 
ATOM     30  O   UNL     1      10.838   6.430  24.062  0.00  0.00    -0.246 OA
BRANCH  29  31
ATOM     31  C   UNL     1       9.496   4.573  23.394  0.00  0.00    +0.092 C 
ATOM     32  C   UNL     1       9.987   3.487  24.017  0.00  0.00    +0.015 C 
BRANCH  32  33
ATOM     33  C   UNL     1       9.974   2.142  23.432  0.00  0.00    -0.025 A 
ATOM     34  C   UNL     1      10.377   1.053  24.211  0.00  0.00    +0.011 A 
ATOM     35  C   UNL     1      10.416  -0.227  23.658  0.00  0.00    +0.046 A 
ATOM     36  C   UNL     1      10.056  -0.419  22.327  0.00  0.00    +0.117 A 
ATOM     37  C   UNL     1       9.677   0.649  21.530  0.00  0.00    +0.046 A 
ATOM     38  C   UNL     1       9.650   1.943  22.084  0.00  0.00    +0.011 A 
BRANCH  36  39
ATOM     39  O   UNL     1      10.112  -1.687  21.831  0.00  0.00    -0.507 OA
ATOM     40  H   UNL     1       9.254  -1.891  21.425  0.00  0.00    +0.292 HD
ENDBRANCH  36  39
ENDBRANCH  32  33
ENDBRANCH  29  31
ENDBRANCH  28  29
ENDBRANCH  27  28
ENDBRANCH   3  27
BRANCH   1  41
ATOM     41  O   UNL     1       7.277   2.657  26.689  0.00  0.00    -0.453 OA
BRANCH  41  47
ATOM     42  C   UNL     1       8.196  -3.195  24.384  0.00  0.00    +0.131 A 
ATOM     43  C   UNL     1       7.236  -2.222  24.081  0.00  0.00    +0.093 A 
ATOM     44  C   UNL     1       7.037  -1.134  24.940  0.00  0.00    +0.147 A 
ATOM     45  O   UNL     1       6.077  -0.208  24.620  0.00  0.00    -0.451 OA
ATOM     46  C   UNL     1       6.237   1.104  25.105  0.00  0.00    +0.181 A 
ATOM     47  C   UNL     1       6.942   1.369  26.245  0.00  0.00    +0.214 A 
ATOM     48  C   UNL     1       7.473   0.143  26.946  0.00  0.00    +0.238 A 
ATOM     49  O   UNL     1       7.635   0.055  28.156  0.00  0.00    -0.283 OA
ATOM     50  C   UNL     1       7.785  -1.005  26.090  0.00  0.00    +0.109 A 
ATOM     51  C   UNL     1       8.767  -1.949  26.387  0.00  0.00    +0.135 A 
ATOM     52  C   UNL     1       8.962  -3.046  25.543  0.00  0.00    +0.092 A 
BRANCH  46  53
ATOM     53  C   UNL     1       5.572   2.091  24.176  0.00  0.00    +0.025 A 
ATOM     54  C   UNL     1       6.318   2.669  23.113  0.00  0.00    +0.015 A 
ATOM     55  C   UNL     1       5.772   3.632  22.253  0.00  0.00    +0.050 A 
ATOM     56  C   UNL     1       4.466   4.031  22.445  0.00  0.00    +0.158 A 
ATOM     57  C   UNL     1       3.697   3.452  23.446  0.00  0.00    +0.159 A 
ATOM     58  C   UNL     1       4.227   2.469  24.288  0.00  0.00    +0.060 A 
BRANCH  57  59
ATOM     59  O   UNL     1       2.413   3.911  23.569  0.00  0.00    -0.503 OA
ATOM     60  H   UNL     1       2.405   4.673  24.191  0.00  0.00    +0.292 HD
ENDBRANCH  57  59
BRANCH  56  61
ATOM     61  O   UNL     1       3.927   5.001  21.650  0.00  0.00    -0.503 OA
ATOM     62  H   UNL     1       3.118   4.586  21.286  0.00  0.00    +0.292 HD
ENDBRANCH  56  61
ENDBRANCH  46  53
BRANCH  51  63
ATOM     63  O   UNL     1       9.586  -1.780  27.469  0.00  0.00    -0.506 OA
ATOM     64  H   UNL     1       9.198  -1.125  28.068  0.00  0.00    +0.292 HD
ENDBRANCH  51  63
BRANCH  42  65
ATOM     65  O   UNL     1       8.487  -4.316  23.645  0.00  0.00    -0.461 OA
BRANCH  65  69
ATOM     66  C   UNL     1       5.997  -5.991  20.633  0.00  0.00    +0.041 C 
ATOM     67  C   UNL     1       5.462  -5.036  21.699  0.00  0.00    +0.150 C 
ATOM     68  O   UNL     1       6.526  -4.311  22.323  0.00  0.00    -0.334 OA
ATOM     69  C   UNL     1       7.382  -5.094  23.164  0.00  0.00    +0.339 C 
ATOM     70  C   UNL     1       6.568  -5.687  24.341  0.00  0.00    +0.214 C 
ATOM     71  C   UNL     1       5.416  -6.528  23.764  0.00  0.00    +0.180 C 
ATOM     72  C   UNL     1       4.582  -5.725  22.749  0.00  0.00    +0.174 C 
BRANCH  72  73
ATOM     73  O   UNL     1       3.834  -4.735  23.481  0.00  0.00    -0.387 OA
ATOM     74  H   UNL     1       2.972  -5.153  23.709  0.00  0.00    +0.210 HD
ENDBRANCH  72  73
BRANCH  71  75
ATOM     75  O   UNL     1       4.565  -6.967  24.836  0.00  0.00    -0.386 OA
ATOM     76  H   UNL     1       3.946  -6.225  25.007  0.00  0.00    +0.210 HD
ENDBRANCH  71  75
BRANCH  70  77
ATOM     77  O   UNL     1       6.002  -4.654  25.178  0.00  0.00    -0.383 OA
ATOM     78  H   UNL     1       5.232  -5.073  25.613  0.00  0.00    +0.210 HD
ENDBRANCH  70  77
ENDBRANCH  65  69
ENDBRANCH  42  65
ENDBRANCH  41  47
ENDBRANCH   1  41
TORSDOF 26
ENDMDL
MODEL 5
REMARK VINA RESULT:      -5.3      2.734      7.206
REMARK  Name = 
REMARK  27 active torsions:
REMARK  status: ('A' for Active; 'I' for Inactive)
REMARK    1  A    between atoms: C_1  and  C_2
REMARK    2  A    between atoms: C_3  and  O_74
REMARK    3  A    between atoms: C_5  and  O_73
REMARK    4  A    between atoms: C_6  and  O_72
REMARK    5  A    between atoms: C_8  and  O_11
REMARK    6  A    between atoms: O_11  and  C_12
REMARK    7  A    between atoms: C_14  and  O_71
REMARK    8  A    between atoms: C_19  and  C_63
REMARK    9  A    between atoms: C_20  and  O_23
REMARK   10  A    between atoms: O_23  and  C_24
REMARK   11  A    between atoms: C_26  and  O_48
REMARK   12  A    between atoms: C_27  and  O_47
REMARK   13  A    between atoms: C_29  and  O_46
REMARK   14  A    between atoms: C_31  and  C_33
REMARK   15  A    between atoms: C_33  and  O_34
REMARK   16  A    between atoms: O_34  and  C_35
REMARK   17  A    between atoms: C_35  and  C_37
REMARK   18  A    between atoms: C_38  and  C_39
REMARK   19  A    between atoms: C_42  and  O_45
REMARK   20  A    between atoms: O_48  and  C_49
REMARK   21  A    between atoms: C_51  and  O_62
REMARK   22  A    between atoms: C_52  and  O_61
REMARK   23  A    between atoms: C_54  and  O_60
REMARK   24  A    between atoms: C_56  and  C_58
REMARK   25  A    between atoms: C_58  and  O_59
REMARK   26  A    between atoms: C_65  and  O_70
REMARK   27  A    between atoms: C_66  and  O_69
REMARK                            x       y       z     vdW  Elec       q    Type
REMARK                         _______ _______ _______ _____ _____    ______ ____
ROOT
ATOM      1  C   UNL     1       3.290  -1.224  27.774  0.00  0.00    +0.340 C 
ATOM      2  O   UNL     1       3.524  -2.548  28.323  0.00  0.00    -0.330 OA
ATOM      3  C   UNL     1       2.469  -3.497  28.123  0.00  0.00    +0.191 C 
ATOM      4  C   UNL     1       1.149  -2.989  28.723  0.00  0.00    +0.178 C 
ATOM      5  C   UNL     1       0.755  -1.704  27.995  0.00  0.00    +0.180 C 
ATOM      6  C   UNL     1       1.861  -0.642  28.157  0.00  0.00    +0.221 C 
ENDROOT
BRANCH   5   7
ATOM      7  O   UNL     1       0.476  -1.979  26.623  0.00  0.00    -0.386 OA
ATOM      8  H   UNL     1       0.464  -1.123  26.154  0.00  0.00    +0.210 HD
ENDBRANCH   5   7
BRANCH   4   9
ATOM      9  O   UNL     1       1.288  -2.773  30.133  0.00  0.00    -0.386 OA
ATOM     10  H   UNL     1       0.869  -3.524  30.597  0.00  0.00    +0.210 HD
ENDBRANCH   4   9
BRANCH   6  11
ATOM     11  O   UNL     1       1.495   0.673  27.607  0.00  0.00    -0.337 OA
BRANCH  11  12
ATOM     12  C   UNL     1       2.412   1.777  27.926  0.00  0.00    +0.282 C 
ATOM     13  O   UNL     1       1.935   2.624  29.016  0.00  0.00    -0.341 OA
ATOM     14  C   UNL     1       0.876   3.568  28.711  0.00  0.00    +0.178 C 
ATOM     15  C   UNL     1       1.102   4.362  27.402  0.00  0.00    +0.177 C 
ATOM     16  C   UNL     1       1.512   3.427  26.282  0.00  0.00    +0.179 C 
ATOM     17  C   UNL     1       2.783   2.693  26.729  0.00  0.00    +0.201 C 
BRANCH  17  18
ATOM     18  O   UNL     1       3.445   2.047  25.633  0.00  0.00    -0.384 OA
ATOM     19  H   UNL     1       4.263   2.549  25.449  0.00  0.00    +0.210 HD
ENDBRANCH  17  18
BRANCH  16  20
ATOM     20  O   UNL     1       0.443   2.554  25.919  0.00  0.00    -0.386 OA
ATOM     21  H   UNL     1      -0.427   2.987  26.059  0.00  0.00    +0.210 HD
ENDBRANCH  16  20
BRANCH  15  22
ATOM     22  O   UNL     1       2.131   5.353  27.574  0.00  0.00    -0.386 OA
ATOM     23  H   UNL     1       2.933   4.917  27.916  0.00  0.00    +0.210 HD
ENDBRANCH  15  22
BRANCH  14  24
ATOM     24  C   UNL     1       0.657   4.625  29.833  0.00  0.00    +0.190 C 
BRANCH  24  25
ATOM     25  O   UNL     1       1.848   5.252  30.288  0.00  0.00    -0.392 OA
ATOM     26  H   UNL     1       1.895   6.132  29.885  0.00  0.00    +0.210 HD
ENDBRANCH  24  25
ENDBRANCH  14  24
ENDBRANCH  11  12
ENDBRANCH   6  11
BRANCH   3  27
ATOM     27  C   UNL     1       2.830  -4.834  28.802  0.00  0.00    +0.266 C 
BRANCH  27  28
ATOM     28  O   UNL     1       4.232  -5.052  29.055  0.00  0.00    -0.459 OA
BRANCH  28  29
ATOM     29  C   UNL     1       4.747  -6.191  28.541  0.00  0.00    +0.332 C 
ATOM     30  O   UNL     1       4.654  -7.316  29.008  0.00  0.00    -0.246 OA
BRANCH  29  31
ATOM     31  C   UNL     1       5.596  -5.836  27.391  0.00  0.00    +0.092 C 
ATOM     32  C   UNL     1       6.825  -5.335  27.608  0.00  0.00    +0.015 C 
BRANCH  32  33
ATOM     33  C   UNL     1       7.668  -4.771  26.548  0.00  0.00    -0.025 A 
ATOM     34  C   UNL     1       8.332  -3.560  26.773  0.00  0.00    +0.011 A 
ATOM     35  C   UNL     1       9.099  -2.984  25.762  0.00  0.00    +0.046 A 
ATOM     36  C   UNL     1       9.203  -3.614  24.525  0.00  0.00    +0.117 A 
ATOM     37  C   UNL     1       8.536  -4.802  24.272  0.00  0.00    +0.046 A 
ATOM     38  C   UNL     1       7.750  -5.377  25.288  0.00  0.00    +0.011 A 
BRANCH  36  39
ATOM     39  O   UNL     1       9.965  -3.013  23.567  0.00  0.00    -0.507 OA
ATOM     40  H   UNL     1      10.183  -3.677  22.894  0.00  0.00    +0.292 HD
ENDBRANCH  36  39
ENDBRANCH  32  33
ENDBRANCH  29  31
ENDBRANCH  28  29
ENDBRANCH  27  28
ENDBRANCH   3  27
BRANCH   1  41
ATOM     41  O   UNL     1       3.621  -1.192  26.371  0.00  0.00    -0.453 OA
BRANCH  41  47
ATOM     42  C   UNL     1       8.494   2.008  23.840  0.00  0.00    +0.131 A 
ATOM     43  C   UNL     1       8.136   0.657  23.764  0.00  0.00    +0.093 A 
ATOM     44  C   UNL     1       7.204   0.121  24.661  0.00  0.00    +0.147 A 
ATOM     45  O   UNL     1       6.888  -1.210  24.567  0.00  0.00    -0.451 OA
ATOM     46  C   UNL     1       5.621  -1.623  25.025  0.00  0.00    +0.181 A 
ATOM     47  C   UNL     1       4.946  -0.932  25.992  0.00  0.00    +0.214 A 
ATOM     48  C   UNL     1       5.695   0.255  26.545  0.00  0.00    +0.238 A 
ATOM     49  O   UNL     1       5.581   0.670  27.691  0.00  0.00    -0.283 OA
ATOM     50  C   UNL     1       6.625   0.917  25.626  0.00  0.00    +0.109 A 
ATOM     51  C   UNL     1       6.948   2.272  25.692  0.00  0.00    +0.135 A 
ATOM     52  C   UNL     1       7.889   2.810  24.811  0.00  0.00    +0.092 A 
BRANCH  46  53
ATOM     53  C   UNL     1       5.168  -2.851  24.275  0.00  0.00    +0.025 A 
ATOM     54  C   UNL     1       4.251  -3.750  24.884  0.00  0.00    +0.015 A 
ATOM     55  C   UNL     1       3.837  -4.935  24.260  0.00  0.00    +0.050 A 
ATOM     56  C   UNL     1       4.335  -5.238  23.011  0.00  0.00    +0.158 A 
ATOM     57  C   UNL     1       5.198  -4.359  22.370  0.00  0.00    +0.159 A 
ATOM     58  C   UNL     1       5.591  -3.161  22.975  0.00  0.00    +0.060 A 
BRANCH  57  59
ATOM     59  O   UNL     1       5.649  -4.741  21.135  0.00  0.00    -0.503 OA
ATOM     60  H   UNL     1       5.350  -5.662  20.958  0.00  0.00    +0.292 HD
ENDBRANCH  57  59
BRANCH  56  61
ATOM     61  O   UNL     1       3.983  -6.409  22.404  0.00  0.00    -0.503 OA
ATOM     62  H   UNL     1       4.784  -6.967  22.485  0.00  0.00    +0.292 HD
ENDBRANCH  56  61
ENDBRANCH  46  53
BRANCH  51  63
ATOM     63  O   UNL     1       6.306   3.094  26.575  0.00  0.00    -0.506 OA
ATOM     64  H   UNL     1       6.138   2.614  27.400  0.00  0.00    +0.292 HD
ENDBRANCH  51  63
BRANCH  42  65
ATOM     65  O   UNL     1       9.400   2.661  23.041  0.00  0.00    -0.461 OA
BRANCH  65  69
ATOM     66  C   UNL     1       9.852   6.228  25.312  0.00  0.00    +0.041 C 
ATOM     67  C   UNL     1      10.253   6.139  23.841  0.00  0.00    +0.150 C 
ATOM     68  O   UNL     1       9.646   5.008  23.208  0.00  0.00    -0.334 OA
ATOM     69  C   UNL     1      10.147   3.734  23.631  0.00  0.00    +0.339 C 
ATOM     70  C   UNL     1      11.653   3.617  23.285  0.00  0.00    +0.214 C 
ATOM     71  C   UNL     1      12.403   4.776  23.965  0.00  0.00    +0.180 C 
ATOM     72  C   UNL     1      11.771   6.137  23.621  0.00  0.00    +0.174 C 
BRANCH  72  73
ATOM     73  O   UNL     1      12.063   6.420  22.240  0.00  0.00    -0.387 OA
ATOM     74  H   UNL     1      12.839   5.864  22.001  0.00  0.00    +0.210 HD
ENDBRANCH  72  73
BRANCH  71  75
ATOM     75  O   UNL     1      13.776   4.769  23.539  0.00  0.00    -0.386 OA
ATOM     76  H   UNL     1      13.956   5.672  23.202  0.00  0.00    +0.210 HD
ENDBRANCH  71  75
BRANCH  70  77
ATOM     77  O   UNL     1      11.885   3.698  21.862  0.00  0.00    -0.383 OA
ATOM     78  H   UNL     1      12.825   3.957  21.772  0.00  0.00    +0.210 HD
ENDBRANCH  70  77
ENDBRANCH  65  69
ENDBRANCH  42  65
ENDBRANCH  41  47
ENDBRANCH   1  41
TORSDOF 26
ENDMDL
MODEL 6
REMARK VINA RESULT:      -5.3      3.163     10.020
REMARK  Name = 
REMARK  27 active torsions:
REMARK  status: ('A' for Active; 'I' for Inactive)
REMARK    1  A    between atoms: C_1  and  C_2
REMARK    2  A    between atoms: C_3  and  O_74
REMARK    3  A    between atoms: C_5  and  O_73
REMARK    4  A    between atoms: C_6  and  O_72
REMARK    5  A    between atoms: C_8  and  O_11
REMARK    6  A    between atoms: O_11  and  C_12
REMARK    7  A    between atoms: C_14  and  O_71
REMARK    8  A    between atoms: C_19  and  C_63
REMARK    9  A    between atoms: C_20  and  O_23
REMARK   10  A    between atoms: O_23  and  C_24
REMARK   11  A    between atoms: C_26  and  O_48
REMARK   12  A    between atoms: C_27  and  O_47
REMARK   13  A    between atoms: C_29  and  O_46
REMARK   14  A    between atoms: C_31  and  C_33
REMARK   15  A    between atoms: C_33  and  O_34
REMARK   16  A    between atoms: O_34  and  C_35
REMARK   17  A    between atoms: C_35  and  C_37
REMARK   18  A    between atoms: C_38  and  C_39
REMARK   19  A    between atoms: C_42  and  O_45
REMARK   20  A    between atoms: O_48  and  C_49
REMARK   21  A    between atoms: C_51  and  O_62
REMARK   22  A    between atoms: C_52  and  O_61
REMARK   23  A    between atoms: C_54  and  O_60
REMARK   24  A    between atoms: C_56  and  C_58
REMARK   25  A    between atoms: C_58  and  O_59
REMARK   26  A    between atoms: C_65  and  O_70
REMARK   27  A    between atoms: C_66  and  O_69
REMARK                            x       y       z     vdW  Elec       q    Type
REMARK                         _______ _______ _______ _____ _____    ______ ____
ROOT
ATOM      1  C   UNL     1       6.194   1.065  24.058  0.00  0.00    +0.340 C 
ATOM      2  O   UNL     1       6.859   0.649  22.835  0.00  0.00    -0.330 OA
ATOM      3  C   UNL     1       8.269   0.898  22.782  0.00  0.00    +0.191 C 
ATOM      4  C   UNL     1       8.573   2.391  22.972  0.00  0.00    +0.178 C 
ATOM      5  C   UNL     1       8.086   2.806  24.361  0.00  0.00    +0.180 C 
ATOM      6  C   UNL     1       6.572   2.547  24.491  0.00  0.00    +0.221 C 
ENDROOT
BRANCH   5   7
ATOM      7  O   UNL     1       8.832   2.127  25.370  0.00  0.00    -0.386 OA
ATOM      8  H   UNL     1       8.813   1.176  25.153  0.00  0.00    +0.210 HD
ENDBRANCH   5   7
BRANCH   4   9
ATOM      9  O   UNL     1       7.948   3.168  21.942  0.00  0.00    -0.386 OA
ATOM     10  H   UNL     1       8.276   2.848  21.080  0.00  0.00    +0.210 HD
ENDBRANCH   4   9
BRANCH   6  11
ATOM     11  O   UNL     1       5.997   3.053  25.748  0.00  0.00    -0.337 OA
BRANCH  11  12
ATOM     12  C   UNL     1       6.876   3.912  26.553  0.00  0.00    +0.282 C 
ATOM     13  O   UNL     1       7.316   3.282  27.796  0.00  0.00    -0.341 OA
ATOM     14  C   UNL     1       6.357   3.214  28.883  0.00  0.00    +0.178 C 
ATOM     15  C   UNL     1       5.596   4.537  29.130  0.00  0.00    +0.177 C 
ATOM     16  C   UNL     1       5.086   5.106  27.821  0.00  0.00    +0.179 C 
ATOM     17  C   UNL     1       6.297   5.310  26.899  0.00  0.00    +0.201 C 
BRANCH  17  18
ATOM     18  O   UNL     1       5.985   6.149  25.779  0.00  0.00    -0.384 OA
ATOM     19  H   UNL     1       5.219   5.754  25.321  0.00  0.00    +0.210 HD
ENDBRANCH  17  18
BRANCH  16  20
ATOM     20  O   UNL     1       4.069   4.279  27.257  0.00  0.00    -0.386 OA
ATOM     21  H   UNL     1       3.476   4.800  26.673  0.00  0.00    +0.210 HD
ENDBRANCH  16  20
BRANCH  15  22
ATOM     22  O   UNL     1       6.449   5.512  29.755  0.00  0.00    -0.386 OA
ATOM     23  H   UNL     1       6.663   6.205  29.103  0.00  0.00    +0.210 HD
ENDBRANCH  15  22
BRANCH  14  24
ATOM     24  C   UNL     1       7.003   2.817  30.243  0.00  0.00    +0.190 C 
BRANCH  24  25
ATOM     25  O   UNL     1       8.302   3.355  30.454  0.00  0.00    -0.392 OA
ATOM     26  H   UNL     1       8.651   2.976  31.274  0.00  0.00    +0.210 HD
ENDBRANCH  24  25
ENDBRANCH  14  24
ENDBRANCH  11  12
ENDBRANCH   6  11
BRANCH   3  27
ATOM     27  C   UNL     1       8.828   0.458  21.413  0.00  0.00    +0.266 C 
BRANCH  27  28
ATOM     28  O   UNL     1       9.837  -0.570  21.447  0.00  0.00    -0.459 OA
BRANCH  28  29
ATOM     29  C   UNL     1      10.360  -0.835  22.664  0.00  0.00    +0.332 C 
ATOM     30  O   UNL     1      11.347  -0.320  23.167  0.00  0.00    -0.246 OA
BRANCH  29  31
ATOM     31  C   UNL     1       9.635  -1.981  23.239  0.00  0.00    +0.092 C 
ATOM     32  C   UNL     1       9.186  -1.908  24.505  0.00  0.00    +0.015 C 
BRANCH  32  33
ATOM     33  C   UNL     1       8.630  -3.054  25.234  0.00  0.00    -0.025 A 
ATOM     34  C   UNL     1       8.706  -4.330  24.665  0.00  0.00    +0.011 A 
ATOM     35  C   UNL     1       8.141  -5.423  25.320  0.00  0.00    +0.046 A 
ATOM     36  C   UNL     1       7.498  -5.243  26.542  0.00  0.00    +0.117 A 
ATOM     37  C   UNL     1       7.390  -3.985  27.113  0.00  0.00    +0.046 A 
ATOM     38  C   UNL     1       7.949  -2.879  26.445  0.00  0.00    +0.011 A 
BRANCH  36  39
ATOM     39  O   UNL     1       6.960  -6.342  27.144  0.00  0.00    -0.507 OA
ATOM     40  H   UNL     1       6.014  -6.372  26.930  0.00  0.00    +0.292 HD
ENDBRANCH  36  39
ENDBRANCH  32  33
ENDBRANCH  29  31
ENDBRANCH  28  29
ENDBRANCH  27  28
ENDBRANCH   3  27
BRANCH   1  41
ATOM     41  O   UNL     1       6.341   0.059  25.080  0.00  0.00    -0.453 OA
BRANCH  41  47
ATOM     42  C   UNL     1       2.638  -2.701  29.447  0.00  0.00    +0.131 A 
ATOM     43  C   UNL     1       2.855  -2.999  28.097  0.00  0.00    +0.093 A 
ATOM     44  C   UNL     1       3.468  -2.062  27.256  0.00  0.00    +0.147 A 
ATOM     45  O   UNL     1       3.650  -2.382  25.935  0.00  0.00    -0.451 OA
ATOM     46  C   UNL     1       4.708  -1.759  25.244  0.00  0.00    +0.181 A 
ATOM     47  C   UNL     1       5.190  -0.537  25.617  0.00  0.00    +0.214 A 
ATOM     48  C   UNL     1       4.460   0.090  26.780  0.00  0.00    +0.238 A 
ATOM     49  O   UNL     1       4.328   1.296  26.942  0.00  0.00    -0.283 OA
ATOM     50  C   UNL     1       3.869  -0.839  27.747  0.00  0.00    +0.109 A 
ATOM     51  C   UNL     1       3.689  -0.541  29.097  0.00  0.00    +0.135 A 
ATOM     52  C   UNL     1       3.065  -1.465  29.940  0.00  0.00    +0.092 A 
BRANCH  46  53
ATOM     53  C   UNL     1       5.199  -2.648  24.127  0.00  0.00    +0.025 A 
ATOM     54  C   UNL     1       5.985  -2.095  23.081  0.00  0.00    +0.015 A 
ATOM     55  C   UNL     1       6.422  -2.857  21.989  0.00  0.00    +0.050 A 
ATOM     56  C   UNL     1       6.078  -4.191  21.929  0.00  0.00    +0.158 A 
ATOM     57  C   UNL     1       5.349  -4.772  22.957  0.00  0.00    +0.159 A 
ATOM     58  C   UNL     1       4.936  -4.024  24.064  0.00  0.00    +0.060 A 
BRANCH  57  59
ATOM     59  O   UNL     1       5.047  -6.100  22.814  0.00  0.00    -0.503 OA
ATOM     60  H   UNL     1       5.100  -6.536  23.694  0.00  0.00    +0.292 HD
ENDBRANCH  57  59
BRANCH  56  61
ATOM     61  O   UNL     1       6.452  -4.942  20.852  0.00  0.00    -0.503 OA
ATOM     62  H   UNL     1       5.630  -5.028  20.327  0.00  0.00    +0.292 HD
ENDBRANCH  56  61
ENDBRANCH  46  53
BRANCH  51  63
ATOM     63  O   UNL     1       4.174   0.625  29.620  0.00  0.00    -0.506 OA
ATOM     64  H   UNL     1       4.131   1.322  28.949  0.00  0.00    +0.292 HD
ENDBRANCH  51  63
BRANCH  42  65
ATOM     65  O   UNL     1       2.039  -3.513  30.380  0.00  0.00    -0.461 OA
BRANCH  65  69
ATOM     66  C   UNL     1       4.900  -6.656  30.485  0.00  0.00    +0.041 C 
ATOM     67  C   UNL     1       3.883  -6.514  29.354  0.00  0.00    +0.150 C 
ATOM     68  O   UNL     1       3.323  -5.198  29.327  0.00  0.00    -0.334 OA
ATOM     69  C   UNL     1       2.453  -4.885  30.423  0.00  0.00    +0.339 C 
ATOM     70  C   UNL     1       1.228  -5.834  30.412  0.00  0.00    +0.214 C 
ATOM     71  C   UNL     1       1.734  -7.286  30.485  0.00  0.00    +0.180 C 
ATOM     72  C   UNL     1       2.777  -7.577  29.392  0.00  0.00    +0.174 C 
BRANCH  72  73
ATOM     73  O   UNL     1       2.091  -7.609  28.126  0.00  0.00    -0.387 OA
ATOM     74  H   UNL     1       2.269  -8.495  27.737  0.00  0.00    +0.210 HD
ENDBRANCH  72  73
BRANCH  71  75
ATOM     75  O   UNL     1       0.622  -8.184  30.331  0.00  0.00    -0.386 OA
ATOM     76  H   UNL     1       0.588  -8.713  31.157  0.00  0.00    +0.210 HD
ENDBRANCH  71  75
BRANCH  70  77
ATOM     77  O   UNL     1       0.443  -5.685  29.209  0.00  0.00    -0.383 OA
ATOM     78  H   UNL     1      -0.110  -4.892  29.363  0.00  0.00    +0.210 HD
ENDBRANCH  70  77
ENDBRANCH  65  69
ENDBRANCH  42  65
ENDBRANCH  41  47
ENDBRANCH   1  41
TORSDOF 26
ENDMDL
MODEL 7
REMARK VINA RESULT:      -5.2      2.445      9.572
REMARK  Name = 
REMARK  27 active torsions:
REMARK  status: ('A' for Active; 'I' for Inactive)
REMARK    1  A    between atoms: C_1  and  C_2
REMARK    2  A    between atoms: C_3  and  O_74
REMARK    3  A    between atoms: C_5  and  O_73
REMARK    4  A    between atoms: C_6  and  O_72
REMARK    5  A    between atoms: C_8  and  O_11
REMARK    6  A    between atoms: O_11  and  C_12
REMARK    7  A    between atoms: C_14  and  O_71
REMARK    8  A    between atoms: C_19  and  C_63
REMARK    9  A    between atoms: C_20  and  O_23
REMARK   10  A    between atoms: O_23  and  C_24
REMARK   11  A    between atoms: C_26  and  O_48
REMARK   12  A    between atoms: C_27  and  O_47
REMARK   13  A    between atoms: C_29  and  O_46
REMARK   14  A    between atoms: C_31  and  C_33
REMARK   15  A    between atoms: C_33  and  O_34
REMARK   16  A    between atoms: O_34  and  C_35
REMARK   17  A    between atoms: C_35  and  C_37
REMARK   18  A    between atoms: C_38  and  C_39
REMARK   19  A    between atoms: C_42  and  O_45
REMARK   20  A    between atoms: O_48  and  C_49
REMARK   21  A    between atoms: C_51  and  O_62
REMARK   22  A    between atoms: C_52  and  O_61
REMARK   23  A    between atoms: C_54  and  O_60
REMARK   24  A    between atoms: C_56  and  C_58
REMARK   25  A    between atoms: C_58  and  O_59
REMARK   26  A    between atoms: C_65  and  O_70
REMARK   27  A    between atoms: C_66  and  O_69
REMARK                            x       y       z     vdW  Elec       q    Type
REMARK                         _______ _______ _______ _____ _____    ______ ____
ROOT
ATOM      1  C   UNL     1       6.854   3.677  25.709  0.00  0.00    +0.340 C 
ATOM      2  O   UNL     1       7.791   4.593  25.082  0.00  0.00    -0.330 OA
ATOM      3  C   UNL     1       8.585   5.377  25.981  0.00  0.00    +0.191 C 
ATOM      4  C   UNL     1       7.696   6.213  26.915  0.00  0.00    +0.178 C 
ATOM      5  C   UNL     1       6.856   5.257  27.760  0.00  0.00    +0.180 C 
ATOM      6  C   UNL     1       5.988   4.367  26.849  0.00  0.00    +0.221 C 
ENDROOT
BRANCH   5   7
ATOM      7  O   UNL     1       7.697   4.484  28.616  0.00  0.00    -0.386 OA
ATOM      8  H   UNL     1       7.642   4.876  29.507  0.00  0.00    +0.210 HD
ENDBRANCH   5   7
BRANCH   4   9
ATOM      9  O   UNL     1       6.871   7.108  26.157  0.00  0.00    -0.386 OA
ATOM     10  H   UNL     1       7.243   8.007  26.241  0.00  0.00    +0.210 HD
ENDBRANCH   4   9
BRANCH   6  11
ATOM     11  O   UNL     1       5.042   3.516  27.590  0.00  0.00    -0.337 OA
BRANCH  11  12
ATOM     12  C   UNL     1       3.650   3.987  27.625  0.00  0.00    +0.282 C 
ATOM     13  O   UNL     1       3.491   5.259  28.326  0.00  0.00    -0.341 OA
ATOM     14  C   UNL     1       3.536   5.230  29.776  0.00  0.00    +0.178 C 
ATOM     15  C   UNL     1       2.690   4.098  30.406  0.00  0.00    +0.177 C 
ATOM     16  C   UNL     1       2.955   2.784  29.700  0.00  0.00    +0.179 C 
ATOM     17  C   UNL     1       2.626   2.980  28.213  0.00  0.00    +0.201 C 
BRANCH  17  18
ATOM     18  O   UNL     1       2.512   1.730  27.518  0.00  0.00    -0.384 OA
ATOM     19  H   UNL     1       1.874   1.179  28.010  0.00  0.00    +0.210 HD
ENDBRANCH  17  18
BRANCH  16  20
ATOM     20  O   UNL     1       4.286   2.327  29.937  0.00  0.00    -0.386 OA
ATOM     21  H   UNL     1       4.308   1.679  30.675  0.00  0.00    +0.210 HD
ENDBRANCH  16  20
BRANCH  15  22
ATOM     22  O   UNL     1       1.286   4.396  30.314  0.00  0.00    -0.386 OA
ATOM     23  H   UNL     1       1.115   5.247  30.758  0.00  0.00    +0.210 HD
ENDBRANCH  15  22
BRANCH  14  24
ATOM     24  C   UNL     1       3.052   6.557  30.430  0.00  0.00    +0.190 C 
BRANCH  24  25
ATOM     25  O   UNL     1       1.882   7.108  29.840  0.00  0.00    -0.392 OA
ATOM     26  H   UNL     1       1.235   6.394  29.739  0.00  0.00    +0.210 HD
ENDBRANCH  24  25
ENDBRANCH  14  24
ENDBRANCH  11  12
ENDBRANCH   6  11
BRANCH   3  27
ATOM     27  C   UNL     1       9.489   6.338  25.181  0.00  0.00    +0.266 C 
BRANCH  27  28
ATOM     28  O   UNL     1       9.991   5.831  23.929  0.00  0.00    -0.459 OA
BRANCH  28  29
ATOM     29  C   UNL     1      11.277   5.417  23.941  0.00  0.00    +0.332 C 
ATOM     30  O   UNL     1      12.273   6.117  24.038  0.00  0.00    -0.246 OA
BRANCH  29  31
ATOM     31  C   UNL     1      11.300   3.974  23.648  0.00  0.00    +0.092 C 
ATOM     32  C   UNL     1      10.159   3.354  23.298  0.00  0.00    +0.015 C 
BRANCH  32  33
ATOM     33  C   UNL     1      10.033   1.897  23.178  0.00  0.00    -0.025 A 
ATOM     34  C   UNL     1      10.257   1.095  24.302  0.00  0.00    +0.011 A 
ATOM     35  C   UNL     1      10.188  -0.293  24.197  0.00  0.00    +0.046 A 
ATOM     36  C   UNL     1       9.899  -0.883  22.968  0.00  0.00    +0.117 A 
ATOM     37  C   UNL     1       9.697  -0.109  21.837  0.00  0.00    +0.046 A 
ATOM     38  C   UNL     1       9.780   1.292  21.940  0.00  0.00    +0.011 A 
BRANCH  36  39
ATOM     39  O   UNL     1       9.844  -2.243  22.914  0.00  0.00    -0.507 OA
ATOM     40  H   UNL     1      10.613  -2.596  23.388  0.00  0.00    +0.292 HD
ENDBRANCH  36  39
ENDBRANCH  32  33
ENDBRANCH  29  31
ENDBRANCH  28  29
ENDBRANCH  27  28
ENDBRANCH   3  27
BRANCH   1  41
ATOM     41  O   UNL     1       7.517   2.453  26.083  0.00  0.00    -0.453 OA
BRANCH  41  47
ATOM     42  C   UNL     1       6.647  -3.663  24.586  0.00  0.00    +0.131 A 
ATOM     43  C   UNL     1       5.853  -2.533  24.357  0.00  0.00    +0.093 A 
ATOM     44  C   UNL     1       6.097  -1.344  25.055  0.00  0.00    +0.147 A 
ATOM     45  O   UNL     1       5.290  -0.262  24.816  0.00  0.00    -0.451 OA
ATOM     46  C   UNL     1       5.824   1.023  25.039  0.00  0.00    +0.181 A 
ATOM     47  C   UNL     1       6.833   1.237  25.936  0.00  0.00    +0.214 A 
ATOM     48  C   UNL     1       7.271   0.002  26.684  0.00  0.00    +0.238 A 
ATOM     49  O   UNL     1       7.714   0.008  27.825  0.00  0.00    -0.283 OA
ATOM     50  C   UNL     1       7.123  -1.270  25.973  0.00  0.00    +0.109 A 
ATOM     51  C   UNL     1       7.942  -2.378  26.187  0.00  0.00    +0.135 A 
ATOM     52  C   UNL     1       7.695  -3.573  25.505  0.00  0.00    +0.092 A 
BRANCH  46  53
ATOM     53  C   UNL     1       5.154   2.032  24.139  0.00  0.00    +0.025 A 
ATOM     54  C   UNL     1       5.821   2.484  22.969  0.00  0.00    +0.015 A 
ATOM     55  C   UNL     1       5.274   3.461  22.125  0.00  0.00    +0.050 A 
ATOM     56  C   UNL     1       4.046   4.001  22.441  0.00  0.00    +0.158 A 
ATOM     57  C   UNL     1       3.348   3.548  23.554  0.00  0.00    +0.159 A 
ATOM     58  C   UNL     1       3.875   2.553  24.382  0.00  0.00    +0.060 A 
BRANCH  57  59
ATOM     59  O   UNL     1       2.139   4.143  23.796  0.00  0.00    -0.503 OA
ATOM     60  H   UNL     1       2.294   5.027  24.199  0.00  0.00    +0.292 HD
ENDBRANCH  57  59
BRANCH  56  61
ATOM     61  O   UNL     1       3.515   4.986  21.661  0.00  0.00    -0.503 OA
ATOM     62  H   UNL     1       4.210   5.160  20.994  0.00  0.00    +0.292 HD
ENDBRANCH  56  61
ENDBRANCH  46  53
BRANCH  51  63
ATOM     63  O   UNL     1       9.025  -2.289  27.016  0.00  0.00    -0.506 OA
ATOM     64  H   UNL     1       9.290  -1.361  27.102  0.00  0.00    +0.292 HD
ENDBRANCH  51  63
BRANCH  42  65
ATOM     65  O   UNL     1       6.514  -4.893  23.988  0.00  0.00    -0.461 OA
BRANCH  65  69
ATOM     66  C   UNL     1       2.648  -6.265  22.867  0.00  0.00    +0.041 C 
ATOM     67  C   UNL     1       2.877  -5.367  24.082  0.00  0.00    +0.150 C 
ATOM     68  O   UNL     1       4.154  -4.726  24.016  0.00  0.00    -0.334 OA
ATOM     69  C   UNL     1       5.280  -5.595  24.192  0.00  0.00    +0.339 C 
ATOM     70  C   UNL     1       5.235  -6.239  25.601  0.00  0.00    +0.214 C 
ATOM     71  C   UNL     1       3.904  -6.996  25.750  0.00  0.00    +0.180 C 
ATOM     72  C   UNL     1       2.701  -6.095  25.420  0.00  0.00    +0.174 C 
BRANCH  72  73
ATOM     73  O   UNL     1       2.567  -5.132  26.483  0.00  0.00    -0.387 OA
ATOM     74  H   UNL     1       3.215  -5.393  27.176  0.00  0.00    +0.210 HD
ENDBRANCH  72  73
BRANCH  71  75
ATOM     75  O   UNL     1       3.780  -7.477  27.099  0.00  0.00    -0.386 OA
ATOM     76  H   UNL     1       2.825  -7.658  27.232  0.00  0.00    +0.210 HD
ENDBRANCH  71  75
BRANCH  70  77
ATOM     77  O   UNL     1       5.314  -5.246  26.648  0.00  0.00    -0.383 OA
ATOM     78  H   UNL     1       5.160  -4.390  26.198  0.00  0.00    +0.210 HD
ENDBRANCH  70  77
ENDBRANCH  65  69
ENDBRANCH  42  65
ENDBRANCH  41  47
ENDBRANCH   1  41
TORSDOF 26
ENDMDL
MODEL 8
REMARK VINA RESULT:      -5.2      2.431      9.830
REMARK  Name = 
REMARK  27 active torsions:
REMARK  status: ('A' for Active; 'I' for Inactive)
REMARK    1  A    between atoms: C_1  and  C_2
REMARK    2  A    between atoms: C_3  and  O_74
REMARK    3  A    between atoms: C_5  and  O_73
REMARK    4  A    between atoms: C_6  and  O_72
REMARK    5  A    between atoms: C_8  and  O_11
REMARK    6  A    between atoms: O_11  and  C_12
REMARK    7  A    between atoms: C_14  and  O_71
REMARK    8  A    between atoms: C_19  and  C_63
REMARK    9  A    between atoms: C_20  and  O_23
REMARK   10  A    between atoms: O_23  and  C_24
REMARK   11  A    between atoms: C_26  and  O_48
REMARK   12  A    between atoms: C_27  and  O_47
REMARK   13  A    between atoms: C_29  and  O_46
REMARK   14  A    between atoms: C_31  and  C_33
REMARK   15  A    between atoms: C_33  and  O_34
REMARK   16  A    between atoms: O_34  and  C_35
REMARK   17  A    between atoms: C_35  and  C_37
REMARK   18  A    between atoms: C_38  and  C_39
REMARK   19  A    between atoms: C_42  and  O_45
REMARK   20  A    between atoms: O_48  and  C_49
REMARK   21  A    between atoms: C_51  and  O_62
REMARK   22  A    between atoms: C_52  and  O_61
REMARK   23  A    between atoms: C_54  and  O_60
REMARK   24  A    between atoms: C_56  and  C_58
REMARK   25  A    between atoms: C_58  and  O_59
REMARK   26  A    between atoms: C_65  and  O_70
REMARK   27  A    between atoms: C_66  and  O_69
REMARK                            x       y       z     vdW  Elec       q    Type
REMARK                         _______ _______ _______ _____ _____    ______ ____
ROOT
ATOM      1  C   UNL     1       6.158   0.867  23.460  0.00  0.00    +0.340 C 
ATOM      2  O   UNL     1       7.310   0.693  22.590  0.00  0.00    -0.330 OA
ATOM      3  C   UNL     1       8.377   1.629  22.783  0.00  0.00    +0.191 C 
ATOM      4  C   UNL     1       7.887   3.072  22.595  0.00  0.00    +0.178 C 
ATOM      5  C   UNL     1       6.827   3.361  23.658  0.00  0.00    +0.180 C 
ATOM      6  C   UNL     1       5.652   2.372  23.518  0.00  0.00    +0.221 C 
ENDROOT
BRANCH   5   7
ATOM      7  O   UNL     1       7.408   3.316  24.961  0.00  0.00    -0.386 OA
ATOM      8  H   UNL     1       6.888   3.913  25.531  0.00  0.00    +0.210 HD
ENDBRANCH   5   7
BRANCH   4   9
ATOM      9  O   UNL     1       7.368   3.259  21.272  0.00  0.00    -0.386 OA
ATOM     10  H   UNL     1       8.033   3.749  20.752  0.00  0.00    +0.210 HD
ENDBRANCH   4   9
BRANCH   6  11
ATOM     11  O   UNL     1       4.523   2.674  24.413  0.00  0.00    -0.337 OA
BRANCH  11  12
ATOM     12  C   UNL     1       3.288   3.125  23.755  0.00  0.00    +0.282 C 
ATOM     13  O   UNL     1       3.476   4.324  22.941  0.00  0.00    -0.341 OA
ATOM     14  C   UNL     1       3.588   5.591  23.639  0.00  0.00    +0.178 C 
ATOM     15  C   UNL     1       2.530   5.791  24.749  0.00  0.00    +0.177 C 
ATOM     16  C   UNL     1       2.435   4.553  25.617  0.00  0.00    +0.179 C 
ATOM     17  C   UNL     1       2.085   3.369  24.705  0.00  0.00    +0.201 C 
BRANCH  17  18
ATOM     18  O   UNL     1       1.639   2.228  25.450  0.00  0.00    -0.384 OA
ATOM     19  H   UNL     1       1.854   2.389  26.389  0.00  0.00    +0.210 HD
ENDBRANCH  17  18
BRANCH  16  20
ATOM     20  O   UNL     1       3.627   4.359  26.376  0.00  0.00    -0.386 OA
ATOM     21  H   UNL     1       3.791   5.121  26.973  0.00  0.00    +0.210 HD
ENDBRANCH  16  20
BRANCH  15  22
ATOM     22  O   UNL     1       1.235   6.056  24.182  0.00  0.00    -0.386 OA
ATOM     23  H   UNL     1       0.558   5.929  24.872  0.00  0.00    +0.210 HD
ENDBRANCH  15  22
BRANCH  14  24
ATOM     24  C   UNL     1       3.471   6.822  22.693  0.00  0.00    +0.190 C 
BRANCH  24  25
ATOM     25  O   UNL     1       4.204   6.701  21.481  0.00  0.00    -0.392 OA
ATOM     26  H   UNL     1       4.023   7.487  20.944  0.00  0.00    +0.210 HD
ENDBRANCH  24  25
ENDBRANCH  14  24
ENDBRANCH  11  12
ENDBRANCH   6  11
BRANCH   3  27
ATOM     27  C   UNL     1       9.501   1.359  21.761  0.00  0.00    +0.266 C 
BRANCH  27  28
ATOM     28  O   UNL     1      10.285   0.172  21.987  0.00  0.00    -0.459 OA
BRANCH  28  29
ATOM     29  C   UNL     1      10.582  -0.095  23.278  0.00  0.00    +0.332 C 
ATOM     30  O   UNL     1      11.354   0.521  23.996  0.00  0.00    -0.246 OA
BRANCH  29  31
ATOM     31  C   UNL     1       9.938  -1.367  23.647  0.00  0.00    +0.092 C 
ATOM     32  C   UNL     1       9.232  -1.442  24.789  0.00  0.00    +0.015 C 
BRANCH  32  33
ATOM     33  C   UNL     1       8.720  -2.699  25.344  0.00  0.00    -0.025 A 
ATOM     34  C   UNL     1       7.944  -2.669  26.508  0.00  0.00    +0.011 A 
ATOM     35  C   UNL     1       7.489  -3.857  27.078  0.00  0.00    +0.046 A 
ATOM     36  C   UNL     1       7.810  -5.077  26.487  0.00  0.00    +0.117 A 
ATOM     37  C   UNL     1       8.596  -5.132  25.348  0.00  0.00    +0.046 A 
ATOM     38  C   UNL     1       9.067  -3.934  24.781  0.00  0.00    +0.011 A 
BRANCH  36  39
ATOM     39  O   UNL     1       7.343  -6.212  27.081  0.00  0.00    -0.507 OA
ATOM     40  H   UNL     1       6.704  -6.627  26.479  0.00  0.00    +0.292 HD
ENDBRANCH  36  39
ENDBRANCH  32  33
ENDBRANCH  29  31
ENDBRANCH  28  29
ENDBRANCH  27  28
ENDBRANCH   3  27
BRANCH   1  41
ATOM     41  O   UNL     1       6.389   0.236  24.736  0.00  0.00    -0.453 OA
BRANCH  41  47
ATOM     42  C   UNL     1       3.188  -2.536  29.476  0.00  0.00    +0.131 A 
ATOM     43  C   UNL     1       3.332  -2.886  28.128  0.00  0.00    +0.093 A 
ATOM     44  C   UNL     1       3.822  -1.955  27.204  0.00  0.00    +0.147 A 
ATOM     45  O   UNL     1       3.936  -2.329  25.890  0.00  0.00    -0.451 OA
ATOM     46  C   UNL     1       4.900  -1.674  25.098  0.00  0.00    +0.181 A 
ATOM     47  C   UNL     1       5.321  -0.405  25.380  0.00  0.00    +0.214 A 
ATOM     48  C   UNL     1       4.630   0.230  26.561  0.00  0.00    +0.238 A 
ATOM     49  O   UNL     1       4.426   1.432  26.677  0.00  0.00    -0.283 OA
ATOM     50  C   UNL     1       4.170  -0.685  27.609  0.00  0.00    +0.109 A 
ATOM     51  C   UNL     1       4.062  -0.332  28.954  0.00  0.00    +0.135 A 
ATOM     52  C   UNL     1       3.561  -1.251  29.880  0.00  0.00    +0.092 A 
BRANCH  46  53
ATOM     53  C   UNL     1       5.374  -2.584  23.991  0.00  0.00    +0.025 A 
ATOM     54  C   UNL     1       6.217  -2.069  22.969  0.00  0.00    +0.015 A 
ATOM     55  C   UNL     1       6.643  -2.850  21.886  0.00  0.00    +0.050 A 
ATOM     56  C   UNL     1       6.232  -4.164  21.811  0.00  0.00    +0.158 A 
ATOM     57  C   UNL     1       5.445  -4.709  22.817  0.00  0.00    +0.159 A 
ATOM     58  C   UNL     1       5.041  -3.944  23.914  0.00  0.00    +0.060 A 
BRANCH  57  59
ATOM     59  O   UNL     1       5.078  -6.019  22.659  0.00  0.00    -0.503 OA
ATOM     60  H   UNL     1       5.153  -6.258  21.707  0.00  0.00    +0.292 HD
ENDBRANCH  57  59
BRANCH  56  61
ATOM     61  O   UNL     1       6.596  -4.930  20.741  0.00  0.00    -0.503 OA
ATOM     62  H   UNL     1       6.882  -4.277  20.070  0.00  0.00    +0.292 HD
ENDBRANCH  56  61
ENDBRANCH  46  53
BRANCH  51  63
ATOM     63  O   UNL     1       4.500   0.888  29.388  0.00  0.00    -0.506 OA
ATOM     64  H   UNL     1       4.804   1.410  28.629  0.00  0.00    +0.292 HD
ENDBRANCH  51  63
BRANCH  42  65
ATOM     65  O   UNL     1       2.710  -3.337  30.484  0.00  0.00    -0.461 OA
BRANCH  65  69
ATOM     66  C   UNL     1       5.561  -6.491  30.485  0.00  0.00    +0.041 C 
ATOM     67  C   UNL     1       4.540  -6.312  29.363  0.00  0.00    +0.150 C 
ATOM     68  O   UNL     1       3.984  -4.994  29.377  0.00  0.00    -0.334 OA
ATOM     69  C   UNL     1       3.120  -4.711  30.485  0.00  0.00    +0.339 C 
ATOM     70  C   UNL     1       1.891  -5.656  30.451  0.00  0.00    +0.214 C 
ATOM     71  C   UNL     1       2.392  -7.110  30.479  0.00  0.00    +0.180 C 
ATOM     72  C   UNL     1       3.431  -7.372  29.374  0.00  0.00    +0.174 C 
BRANCH  72  73
ATOM     73  O   UNL     1       2.739  -7.364  28.110  0.00  0.00    -0.387 OA
ATOM     74  H   UNL     1       2.071  -6.644  28.165  0.00  0.00    +0.210 HD
ENDBRANCH  72  73
BRANCH  71  75
ATOM     75  O   UNL     1       1.277  -8.000  30.303  0.00  0.00    -0.386 OA
ATOM     76  H   UNL     1       1.648  -8.819  29.911  0.00  0.00    +0.210 HD
ENDBRANCH  71  75
BRANCH  70  77
ATOM     77  O   UNL     1       1.102  -5.469  29.256  0.00  0.00    -0.383 OA
ATOM     78  H   UNL     1       1.176  -6.315  28.769  0.00  0.00    +0.210 HD
ENDBRANCH  70  77
ENDBRANCH  65  69
ENDBRANCH  42  65
ENDBRANCH  41  47
ENDBRANCH   1  41
TORSDOF 26
ENDMDL
MODEL 9
REMARK VINA RESULT:      -5.0      2.323      9.185
REMARK  Name = 
REMARK  27 active torsions:
REMARK  status: ('A' for Active; 'I' for Inactive)
REMARK    1  A    between atoms: C_1  and  C_2
REMARK    2  A    between atoms: C_3  and  O_74
REMARK    3  A    between atoms: C_5  and  O_73
REMARK    4  A    between atoms: C_6  and  O_72
REMARK    5  A    between atoms: C_8  and  O_11
REMARK    6  A    between atoms: O_11  and  C_12
REMARK    7  A    between atoms: C_14  and  O_71
REMARK    8  A    between atoms: C_19  and  C_63
REMARK    9  A    between atoms: C_20  and  O_23
REMARK   10  A    between atoms: O_23  and  C_24
REMARK   11  A    between atoms: C_26  and  O_48
REMARK   12  A    between atoms: C_27  and  O_47
REMARK   13  A    between atoms: C_29  and  O_46
REMARK   14  A    between atoms: C_31  and  C_33
REMARK   15  A    between atoms: C_33  and  O_34
REMARK   16  A    between atoms: O_34  and  C_35
REMARK   17  A    between atoms: C_35  and  C_37
REMARK   18  A    between atoms: C_38  and  C_39
REMARK   19  A    between atoms: C_42  and  O_45
REMARK   20  A    between atoms: O_48  and  C_49
REMARK   21  A    between atoms: C_51  and  O_62
REMARK   22  A    between atoms: C_52  and  O_61
REMARK   23  A    between atoms: C_54  and  O_60
REMARK   24  A    between atoms: C_56  and  C_58
REMARK   25  A    between atoms: C_58  and  O_59
REMARK   26  A    between atoms: C_65  and  O_70
REMARK   27  A    between atoms: C_66  and  O_69
REMARK                            x       y       z     vdW  Elec       q    Type
REMARK                         _______ _______ _______ _____ _____    ______ ____
ROOT
ATOM      1  C   UNL     1       6.724   4.023  25.717  0.00  0.00    +0.340 C 
ATOM      2  O   UNL     1       7.653   5.104  25.437  0.00  0.00    -0.330 OA
ATOM      3  C   UNL     1       8.437   5.551  26.550  0.00  0.00    +0.191 C 
ATOM      4  C   UNL     1       7.538   6.019  27.705  0.00  0.00    +0.178 C 
ATOM      5  C   UNL     1       6.706   4.827  28.179  0.00  0.00    +0.180 C 
ATOM      6  C   UNL     1       5.849   4.284  27.018  0.00  0.00    +0.221 C 
ENDROOT
BRANCH   5   7
ATOM      7  O   UNL     1       7.554   3.821  28.731  0.00  0.00    -0.386 OA
ATOM      8  H   UNL     1       8.212   4.273  29.293  0.00  0.00    +0.210 HD
ENDBRANCH   5   7
BRANCH   4   9
ATOM      9  O   UNL     1       6.704   7.107  27.285  0.00  0.00    -0.386 OA
ATOM     10  H   UNL     1       5.881   7.078  27.809  0.00  0.00    +0.210 HD
ENDBRANCH   4   9
BRANCH   6  11
ATOM     11  O   UNL     1       4.911   3.226  27.428  0.00  0.00    -0.337 OA
BRANCH  11  12
ATOM     12  C   UNL     1       4.489   3.255  28.836  0.00  0.00    +0.282 C 
ATOM     13  O   UNL     1       4.322   1.924  29.414  0.00  0.00    -0.341 OA
ATOM     14  C   UNL     1       3.125   1.187  29.052  0.00  0.00    +0.178 C 
ATOM     15  C   UNL     1       1.828   2.027  29.120  0.00  0.00    +0.177 C 
ATOM     16  C   UNL     1       2.028   3.363  28.433  0.00  0.00    +0.179 C 
ATOM     17  C   UNL     1       3.201   4.072  29.123  0.00  0.00    +0.201 C 
BRANCH  17  18
ATOM     18  O   UNL     1       3.260   5.465  28.789  0.00  0.00    -0.384 OA
ATOM     19  H   UNL     1       3.513   5.530  27.848  0.00  0.00    +0.210 HD
ENDBRANCH  17  18
BRANCH  16  20
ATOM     20  O   UNL     1       2.203   3.201  27.026  0.00  0.00    -0.386 OA
ATOM     21  H   UNL     1       2.818   3.878  26.668  0.00  0.00    +0.210 HD
ENDBRANCH  16  20
BRANCH  15  22
ATOM     22  O   UNL     1       1.441   2.265  30.485  0.00  0.00    -0.386 OA
ATOM     23  H   UNL     1       1.972   1.690  31.067  0.00  0.00    +0.210 HD
ENDBRANCH  15  22
BRANCH  14  24
ATOM     24  C   UNL     1       2.885  -0.065  29.946  0.00  0.00    +0.190 C 
BRANCH  24  25
ATOM     25  O   UNL     1       1.901  -0.961  29.446  0.00  0.00    -0.392 OA
ATOM     26  H   UNL     1       2.359  -1.689  29.001  0.00  0.00    +0.210 HD
ENDBRANCH  24  25
ENDBRANCH  14  24
ENDBRANCH  11  12
ENDBRANCH   6  11
BRANCH   3  27
ATOM     27  C   UNL     1       9.332   6.732  26.121  0.00  0.00    +0.266 C 
BRANCH  27  28
ATOM     28  O   UNL     1       9.875   6.657  24.788  0.00  0.00    -0.459 OA
BRANCH  28  29
ATOM     29  C   UNL     1      11.139   6.189  24.699  0.00  0.00    +0.332 C 
ATOM     30  O   UNL     1      12.155   6.740  25.094  0.00  0.00    -0.246 OA
BRANCH  29  31
ATOM     31  C   UNL     1      11.122   4.960  23.888  0.00  0.00    +0.092 C 
ATOM     32  C   UNL     1       9.998   4.222  23.834  0.00  0.00    +0.015 C 
BRANCH  32  33
ATOM     33  C   UNL     1       9.932   2.891  23.221  0.00  0.00    -0.025 A 
ATOM     34  C   UNL     1       9.064   2.674  22.146  0.00  0.00    +0.011 A 
ATOM     35  C   UNL     1       8.952   1.404  21.582  0.00  0.00    +0.046 A 
ATOM     36  C   UNL     1       9.704   0.349  22.092  0.00  0.00    +0.117 A 
ATOM     37  C   UNL     1      10.553   0.536  23.171  0.00  0.00    +0.046 A 
ATOM     38  C   UNL     1      10.656   1.814  23.749  0.00  0.00    +0.011 A 
BRANCH  36  39
ATOM     39  O   UNL     1       9.560  -0.874  21.508  0.00  0.00    -0.507 OA
ATOM     40  H   UNL     1       9.279  -1.504  22.190  0.00  0.00    +0.292 HD
ENDBRANCH  36  39
ENDBRANCH  32  33
ENDBRANCH  29  31
ENDBRANCH  28  29
ENDBRANCH  27  28
ENDBRANCH   3  27
BRANCH   1  41
ATOM     41  O   UNL     1       7.400   2.750  25.665  0.00  0.00    -0.453 OA
BRANCH  41  47
ATOM     42  C   UNL     1       6.042  -3.425  25.015  0.00  0.00    +0.131 A 
ATOM     43  C   UNL     1       5.291  -2.279  24.733  0.00  0.00    +0.093 A 
ATOM     44  C   UNL     1       5.673  -1.036  25.254  0.00  0.00    +0.147 A 
ATOM     45  O   UNL     1       4.905   0.063  24.969  0.00  0.00    -0.451 OA
ATOM     46  C   UNL     1       5.529   1.326  24.980  0.00  0.00    +0.181 A 
ATOM     47  C   UNL     1       6.639   1.573  25.736  0.00  0.00    +0.214 A 
ATOM     48  C   UNL     1       7.088   0.406  26.580  0.00  0.00    +0.238 A 
ATOM     49  O   UNL     1       7.653   0.513  27.661  0.00  0.00    -0.283 OA
ATOM     50  C   UNL     1       6.795  -0.927  26.047  0.00  0.00    +0.109 A 
ATOM     51  C   UNL     1       7.572  -2.055  26.309  0.00  0.00    +0.135 A 
ATOM     52  C   UNL     1       7.188  -3.301  25.806  0.00  0.00    +0.092 A 
BRANCH  46  53
ATOM     53  C   UNL     1       4.820   2.268  24.037  0.00  0.00    +0.025 A 
ATOM     54  C   UNL     1       5.508   2.779  22.903  0.00  0.00    +0.015 A 
ATOM     55  C   UNL     1       4.921   3.699  22.024  0.00  0.00    +0.050 A 
ATOM     56  C   UNL     1       3.632   4.123  22.267  0.00  0.00    +0.158 A 
ATOM     57  C   UNL     1       2.918   3.609  23.341  0.00  0.00    +0.159 A 
ATOM     58  C   UNL     1       3.486   2.668  24.204  0.00  0.00    +0.060 A 
BRANCH  57  59
ATOM     59  O   UNL     1       1.647   4.089  23.511  0.00  0.00    -0.503 OA
ATOM     60  H   UNL     1       1.121   3.427  24.015  0.00  0.00    +0.292 HD
ENDBRANCH  57  59
BRANCH  56  61
ATOM     61  O   UNL     1       3.057   5.055  21.452  0.00  0.00    -0.503 OA
ATOM     62  H   UNL     1       2.097   4.951  21.614  0.00  0.00    +0.292 HD
ENDBRANCH  56  61
ENDBRANCH  46  53
BRANCH  51  63
ATOM     63  O   UNL     1       8.742  -1.944  27.007  0.00  0.00    -0.506 OA
ATOM     64  H   UNL     1       9.485  -2.169  26.428  0.00  0.00    +0.292 HD
ENDBRANCH  51  63
BRANCH  42  65
ATOM     65  O   UNL     1       5.779  -4.704  24.587  0.00  0.00    -0.461 OA
BRANCH  65  69
ATOM     66  C   UNL     1       2.035  -5.027  26.577  0.00  0.00    +0.041 C 
ATOM     67  C   UNL     1       2.944  -6.232  26.345  0.00  0.00    +0.150 C 
ATOM     68  O   UNL     1       4.279  -5.820  26.037  0.00  0.00    -0.334 OA
ATOM     69  C   UNL     1       4.442  -5.194  24.758  0.00  0.00    +0.339 C 
ATOM     70  C   UNL     1       4.069  -6.191  23.631  0.00  0.00    +0.214 C 
ATOM     71  C   UNL     1       2.620  -6.660  23.853  0.00  0.00    +0.180 C 
ATOM     72  C   UNL     1       2.414  -7.201  25.280  0.00  0.00    +0.174 C 
BRANCH  72  73
ATOM     73  O   UNL     1       3.108  -8.459  25.378  0.00  0.00    -0.387 OA
ATOM     74  H   UNL     1       3.990  -8.321  24.963  0.00  0.00    +0.210 HD
ENDBRANCH  72  73
BRANCH  71  75
ATOM     75  O   UNL     1       2.305  -7.693  22.904  0.00  0.00    -0.386 OA
ATOM     76  H   UNL     1       3.165  -7.999  22.547  0.00  0.00    +0.210 HD
ENDBRANCH  71  75
BRANCH  70  77
ATOM     77  O   UNL     1       4.929  -7.351  23.634  0.00  0.00    -0.383 OA
ATOM     78  H   UNL     1       5.320  -7.379  22.736  0.00  0.00    +0.210 HD
ENDBRANCH  70  77
ENDBRANCH  65  69
ENDBRANCH  42  65
ENDBRANCH  41  47
ENDBRANCH   1  41
TORSDOF 26
ENDMDL
