MODEL 1
REMARK VINA RESULT:      -8.2      0.000      0.000
REMARK  Name = 
REMARK  22 active torsions:
REMARK  status: ('A' for Active; 'I' for Inactive)
REMARK    1  A    between atoms: C_1  and  C_2
REMARK    2  A    between atoms: C_2  and  O_4
REMARK    3  A    between atoms: O_4  and  C_5
REMARK    4  A    between atoms: C_9  and  O_22
REMARK    5  A    between atoms: C_11  and  O_18
REMARK    6  A    between atoms: C_12  and  O_14
REMARK    7  A    between atoms: O_14  and  C_15
REMARK    8  A    between atoms: C_15  and  C_17
REMARK    9  A    between atoms: O_18  and  C_19
REMARK   10  A    between atoms: C_19  and  C_21
REMARK   11  A    between atoms: O_22  and  C_23
REMARK   12  A    between atoms: C_23  and  C_24
REMARK   13  A    between atoms: C_25  and  O_56
REMARK   14  A    between atoms: C_27  and  O_55
REMARK   15  A    between atoms: C_28  and  O_54
REMARK   16  A    between atoms: C_29  and  O_32
REMARK   17  A    between atoms: O_32  and  C_33
REMARK   18  A    between atoms: C_34  and  C_46
REMARK   19  A    between atoms: C_38  and  O_45
REMARK   20  A    between atoms: C_40  and  O_44
REMARK   21  A    between atoms: C_48  and  O_53
REMARK   22  A    between atoms: C_49  and  O_52
REMARK                            x       y       z     vdW  Elec       q    Type
REMARK                         _______ _______ _______ _____ _____    ______ ____
ROOT
ATOM      1  C   UNL     1       9.175  -1.533  25.453  0.00  0.00    +0.179 C 
ATOM      2  O   UNL     1       9.360  -0.112  25.645  0.00  0.00    -0.331 OA
ATOM      3  C   UNL     1       8.813   0.682  24.567  0.00  0.00    +0.340 C 
ATOM      4  C   UNL     1       9.567   0.325  23.266  0.00  0.00    +0.214 C 
ATOM      5  C   UNL     1       9.450  -1.173  22.965  0.00  0.00    +0.180 C 
ATOM      6  C   UNL     1       9.918  -1.995  24.179  0.00  0.00    +0.177 C 
ENDROOT
BRANCH   6   7
ATOM      7  O   UNL     1       9.769  -3.385  23.913  0.00  0.00    -0.386 OA
ATOM      8  H   UNL     1      10.639  -3.758  23.674  0.00  0.00    +0.210 HD
ENDBRANCH   6   7
BRANCH   5   9
ATOM      9  O   UNL     1      10.256  -1.479  21.814  0.00  0.00    -0.386 OA
ATOM     10  H   UNL     1       9.977  -2.371  21.529  0.00  0.00    +0.210 HD
ENDBRANCH   5   9
BRANCH   4  11
ATOM     11  O   UNL     1      10.981   0.629  23.397  0.00  0.00    -0.383 OA
ATOM     12  H   UNL     1      11.319   0.079  24.132  0.00  0.00    +0.210 HD
ENDBRANCH   4  11
BRANCH   3  13
ATOM     13  O   UNL     1       9.014   2.069  24.885  0.00  0.00    -0.453 OA
BRANCH  13  14
ATOM     14  C   UNL     1       8.091   3.022  24.460  0.00  0.00    +0.214 A 
ATOM     15  C   UNL     1       6.612   2.801  24.539  0.00  0.00    +0.238 A 
ATOM     16  O   UNL     1       6.135   1.860  25.162  0.00  0.00    -0.283 OA
ATOM     17  C   UNL     1       5.737   3.759  23.845  0.00  0.00    +0.109 A 
ATOM     18  C   UNL     1       6.310   4.936  23.376  0.00  0.00    +0.147 A 
ATOM     19  C   UNL     1       5.515   5.912  22.766  0.00  0.00    +0.092 A 
ATOM     20  C   UNL     1       4.153   5.678  22.613  0.00  0.00    +0.124 A 
ATOM     21  C   UNL     1       3.571   4.495  23.049  0.00  0.00    +0.091 A 
ATOM     22  O   UNL     1       7.650   5.201  23.479  0.00  0.00    -0.451 OA
ATOM     23  C   UNL     1       4.364   3.532  23.664  0.00  0.00    +0.135 A 
ATOM     24  C   UNL     1       8.505   4.203  23.936  0.00  0.00    +0.181 A 
BRANCH  24  25
ATOM     25  C   UNL     1       9.941   4.554  23.729  0.00  0.00    +0.025 A 
ATOM     26  C   UNL     1      10.752   3.723  22.925  0.00  0.00    +0.015 A 
ATOM     27  C   UNL     1      12.127   3.956  22.791  0.00  0.00    +0.050 A 
ATOM     28  C   UNL     1      12.694   5.028  23.457  0.00  0.00    +0.158 A 
ATOM     29  C   UNL     1      11.905   5.904  24.190  0.00  0.00    +0.159 A 
ATOM     30  C   UNL     1      10.537   5.681  24.322  0.00  0.00    +0.060 A 
BRANCH  29  31
ATOM     31  O   UNL     1      12.527   6.967  24.784  0.00  0.00    -0.503 OA
ATOM     32  H   UNL     1      11.932   7.734  24.728  0.00  0.00    +0.292 HD
ENDBRANCH  29  31
BRANCH  28  33
ATOM     33  O   UNL     1      14.047   5.214  23.387  0.00  0.00    -0.503 OA
ATOM     34  H   UNL     1      14.422   4.313  23.450  0.00  0.00    +0.292 HD
ENDBRANCH  28  33
ENDBRANCH  24  25
BRANCH  20  35
ATOM     35  O   UNL     1       3.328   6.592  22.029  0.00  0.00    -0.507 OA
ATOM     36  H   UNL     1       2.669   6.129  21.484  0.00  0.00    +0.292 HD
ENDBRANCH  20  35
BRANCH  23  37
ATOM     37  O   UNL     1       3.786   2.362  24.064  0.00  0.00    -0.506 OA
ATOM     38  H   UNL     1       3.371   2.471  24.935  0.00  0.00    +0.292 HD
ENDBRANCH  23  37
ENDBRANCH  13  14
ENDBRANCH   3  13
BRANCH   1  39
ATOM     39  C   UNL     1       7.688  -1.949  25.520  0.00  0.00    +0.197 C 
BRANCH  39  40
ATOM     40  O   UNL     1       7.558  -3.367  25.600  0.00  0.00    -0.345 OA
BRANCH  40  44
ATOM     41  C   UNL     1       4.359  -5.771  26.663  0.00  0.00    +0.246 C 
ATOM     42  C   UNL     1       4.608  -5.665  25.145  0.00  0.00    +0.264 C 
ATOM     43  C   UNL     1       6.028  -5.118  24.903  0.00  0.00    +0.276 C 
ATOM     44  C   UNL     1       6.188  -3.778  25.666  0.00  0.00    +0.295 C 
ATOM     45  O   UNL     1       5.808  -3.865  27.036  0.00  0.00    -0.344 OA
ATOM     46  C   UNL     1       4.479  -4.350  27.230  0.00  0.00    +0.211 C 
BRANCH  43  47
ATOM     47  O   UNL     1       6.222  -4.844  23.497  0.00  0.00    -0.452 OA
BRANCH  47  48
ATOM     48  C   UNL     1       7.239  -5.524  22.896  0.00  0.00    +0.304 C 
ATOM     49  C   UNL     1       6.797  -6.026  21.556  0.00  0.00    +0.136 C 
ATOM     50  O   UNL     1       8.350  -5.709  23.374  0.00  0.00    -0.251 OA
ENDBRANCH  47  48
ENDBRANCH  43  47
BRANCH  42  51
ATOM     51  O   UNL     1       4.437  -6.967  24.529  0.00  0.00    -0.454 OA
BRANCH  51  52
ATOM     52  C   UNL     1       3.185  -7.238  24.059  0.00  0.00    +0.304 C 
ATOM     53  C   UNL     1       2.630  -6.071  23.297  0.00  0.00    +0.136 C 
ATOM     54  O   UNL     1       2.571  -8.281  24.236  0.00  0.00    -0.251 OA
ENDBRANCH  51  52
ENDBRANCH  42  51
BRANCH  41  55
ATOM     55  O   UNL     1       5.402  -6.594  27.245  0.00  0.00    -0.455 OA
BRANCH  55  57
ATOM     56  C   UNL     1       6.435  -6.638  29.348  0.00  0.00    +0.136 C 
ATOM     57  C   UNL     1       5.216  -6.965  28.541  0.00  0.00    +0.304 C 
ATOM     58  O   UNL     1       4.162  -7.375  29.008  0.00  0.00    -0.251 OA
ENDBRANCH  55  57
ENDBRANCH  41  55
ENDBRANCH  40  44
ENDBRANCH  39  40
ENDBRANCH   1  39
TORSDOF 19
ENDMDL
MODEL 2
REMARK VINA RESULT:      -7.9      2.643      4.170
REMARK  Name = 
REMARK  22 active torsions:
REMARK  status: ('A' for Active; 'I' for Inactive)
REMARK    1  A    between atoms: C_1  and  C_2
REMARK    2  A    between atoms: C_2  and  O_4
REMARK    3  A    between atoms: O_4  and  C_5
REMARK    4  A    between atoms: C_9  and  O_22
REMARK    5  A    between atoms: C_11  and  O_18
REMARK    6  A    between atoms: C_12  and  O_14
REMARK    7  A    between atoms: O_14  and  C_15
REMARK    8  A    between atoms: C_15  and  C_17
REMARK    9  A    between atoms: O_18  and  C_19
REMARK   10  A    between atoms: C_19  and  C_21
REMARK   11  A    between atoms: O_22  and  C_23
REMARK   12  A    between atoms: C_23  and  C_24
REMARK   13  A    between atoms: C_25  and  O_56
REMARK   14  A    between atoms: C_27  and  O_55
REMARK   15  A    between atoms: C_28  and  O_54
REMARK   16  A    between atoms: C_29  and  O_32
REMARK   17  A    between atoms: O_32  and  C_33
REMARK   18  A    between atoms: C_34  and  C_46
REMARK   19  A    between atoms: C_38  and  O_45
REMARK   20  A    between atoms: C_40  and  O_44
REMARK   21  A    between atoms: C_48  and  O_53
REMARK   22  A    between atoms: C_49  and  O_52
REMARK                            x       y       z     vdW  Elec       q    Type
REMARK                         _______ _______ _______ _____ _____    ______ ____
ROOT
ATOM      1  C   UNL     1       9.642  -0.686  23.845  0.00  0.00    +0.179 C 
ATOM      2  O   UNL     1       9.501   0.393  24.797  0.00  0.00    -0.331 OA
ATOM      3  C   UNL     1       8.310   1.186  24.583  0.00  0.00    +0.340 C 
ATOM      4  C   UNL     1       8.412   1.854  23.192  0.00  0.00    +0.214 C 
ATOM      5  C   UNL     1       8.578   0.798  22.095  0.00  0.00    +0.180 C 
ATOM      6  C   UNL     1       9.776  -0.115  22.416  0.00  0.00    +0.177 C 
ENDROOT
BRANCH   6   7
ATOM      7  O   UNL     1       9.902  -1.122  21.418  0.00  0.00    -0.386 OA
ATOM      8  H   UNL     1      10.678  -0.919  20.860  0.00  0.00    +0.210 HD
ENDBRANCH   6   7
BRANCH   5   9
ATOM      9  O   UNL     1       8.781   1.463  20.837  0.00  0.00    -0.386 OA
ATOM     10  H   UNL     1       8.345   2.333  20.927  0.00  0.00    +0.210 HD
ENDBRANCH   5   9
BRANCH   4  11
ATOM     11  O   UNL     1       9.571   2.726  23.129  0.00  0.00    -0.383 OA
ATOM     12  H   UNL     1       9.292   3.589  23.497  0.00  0.00    +0.210 HD
ENDBRANCH   4  11
BRANCH   3  13
ATOM     13  O   UNL     1       8.252   2.193  25.606  0.00  0.00    -0.453 OA
BRANCH  13  14
ATOM     14  C   UNL     1       7.048   2.459  26.255  0.00  0.00    +0.214 A 
ATOM     15  C   UNL     1       6.560   1.642  27.412  0.00  0.00    +0.238 A 
ATOM     16  O   UNL     1       7.283   0.828  27.974  0.00  0.00    -0.283 OA
ATOM     17  C   UNL     1       5.176   1.850  27.864  0.00  0.00    +0.109 A 
ATOM     18  C   UNL     1       4.491   2.953  27.364  0.00  0.00    +0.147 A 
ATOM     19  C   UNL     1       3.196   3.237  27.807  0.00  0.00    +0.092 A 
ATOM     20  C   UNL     1       2.594   2.390  28.731  0.00  0.00    +0.124 A 
ATOM     21  C   UNL     1       3.253   1.269  29.217  0.00  0.00    +0.091 A 
ATOM     22  O   UNL     1       5.031   3.801  26.432  0.00  0.00    -0.451 OA
ATOM     23  C   UNL     1       4.546   0.996  28.781  0.00  0.00    +0.135 A 
ATOM     24  C   UNL     1       6.250   3.478  25.847  0.00  0.00    +0.181 A 
BRANCH  24  25
ATOM     25  C   UNL     1       6.559   4.346  24.673  0.00  0.00    +0.025 A 
ATOM     26  C   UNL     1       5.739   4.282  23.525  0.00  0.00    +0.015 A 
ATOM     27  C   UNL     1       6.054   4.999  22.364  0.00  0.00    +0.050 A 
ATOM     28  C   UNL     1       7.188   5.790  22.350  0.00  0.00    +0.158 A 
ATOM     29  C   UNL     1       7.968   5.931  23.491  0.00  0.00    +0.159 A 
ATOM     30  C   UNL     1       7.657   5.225  24.651  0.00  0.00    +0.060 A 
BRANCH  29  31
ATOM     31  O   UNL     1       9.049   6.764  23.418  0.00  0.00    -0.503 OA
ATOM     32  H   UNL     1       9.741   6.315  22.902  0.00  0.00    +0.292 HD
ENDBRANCH  29  31
BRANCH  28  33
ATOM     33  O   UNL     1       7.538   6.433  21.196  0.00  0.00    -0.503 OA
ATOM     34  H   UNL     1       7.044   5.963  20.495  0.00  0.00    +0.292 HD
ENDBRANCH  28  33
ENDBRANCH  24  25
BRANCH  20  35
ATOM     35  O   UNL     1       1.335   2.617  29.202  0.00  0.00    -0.507 OA
ATOM     36  H   UNL     1       0.688   2.384  28.514  0.00  0.00    +0.292 HD
ENDBRANCH  20  35
BRANCH  23  37
ATOM     37  O   UNL     1       5.173  -0.125  29.245  0.00  0.00    -0.506 OA
ATOM     38  H   UNL     1       5.801   0.107  29.948  0.00  0.00    +0.292 HD
ENDBRANCH  23  37
ENDBRANCH  13  14
ENDBRANCH   3  13
BRANCH   1  39
ATOM     39  C   UNL     1       8.548  -1.765  24.010  0.00  0.00    +0.197 C 
BRANCH  39  40
ATOM     40  O   UNL     1       8.786  -2.870  23.141  0.00  0.00    -0.345 OA
BRANCH  40  44
ATOM     41  C   UNL     1       4.882  -4.096  23.778  0.00  0.00    +0.246 C 
ATOM     42  C   UNL     1       5.954  -5.146  24.138  0.00  0.00    +0.264 C 
ATOM     43  C   UNL     1       7.321  -4.448  24.264  0.00  0.00    +0.276 C 
ATOM     44  C   UNL     1       7.612  -3.670  22.955  0.00  0.00    +0.295 C 
ATOM     45  O   UNL     1       6.542  -2.816  22.561  0.00  0.00    -0.344 OA
ATOM     46  C   UNL     1       5.292  -3.494  22.427  0.00  0.00    +0.211 C 
BRANCH  43  47
ATOM     47  O   UNL     1       8.368  -5.431  24.426  0.00  0.00    -0.452 OA
BRANCH  47  48
ATOM     48  C   UNL     1       9.320  -5.134  25.356  0.00  0.00    +0.304 C 
ATOM     49  C   UNL     1       8.669  -4.688  26.630  0.00  0.00    +0.136 C 
ATOM     50  O   UNL     1      10.529  -5.213  25.185  0.00  0.00    -0.251 OA
ENDBRANCH  47  48
ENDBRANCH  43  47
BRANCH  42  51
ATOM     51  O   UNL     1       5.590  -5.812  25.373  0.00  0.00    -0.454 OA
BRANCH  51  52
ATOM     52  C   UNL     1       4.563  -6.705  25.283  0.00  0.00    +0.304 C 
ATOM     53  C   UNL     1       3.639  -6.587  26.459  0.00  0.00    +0.136 C 
ATOM     54  O   UNL     1       4.403  -7.514  24.379  0.00  0.00    -0.251 OA
ENDBRANCH  51  52
ENDBRANCH  42  51
BRANCH  41  55
ATOM     55  O   UNL     1       4.906  -3.050  24.781  0.00  0.00    -0.455 OA
BRANCH  55  57
ATOM     56  C   UNL     1       4.231  -2.674  26.992  0.00  0.00    +0.136 C 
ATOM     57  C   UNL     1       3.812  -2.969  25.585  0.00  0.00    +0.304 C 
ATOM     58  O   UNL     1       2.653  -2.996  25.195  0.00  0.00    -0.251 OA
ENDBRANCH  55  57
ENDBRANCH  41  55
ENDBRANCH  40  44
ENDBRANCH  39  40
ENDBRANCH   1  39
TORSDOF 19
ENDMDL
MODEL 3
REMARK VINA RESULT:      -7.8      2.207      5.804
REMARK  Name = 
REMARK  22 active torsions:
REMARK  status: ('A' for Active; 'I' for Inactive)
REMARK    1  A    between atoms: C_1  and  C_2
REMARK    2  A    between atoms: C_2  and  O_4
REMARK    3  A    between atoms: O_4  and  C_5
REMARK    4  A    between atoms: C_9  and  O_22
REMARK    5  A    between atoms: C_11  and  O_18
REMARK    6  A    between atoms: C_12  and  O_14
REMARK    7  A    between atoms: O_14  and  C_15
REMARK    8  A    between atoms: C_15  and  C_17
REMARK    9  A    between atoms: O_18  and  C_19
REMARK   10  A    between atoms: C_19  and  C_21
REMARK   11  A    between atoms: O_22  and  C_23
REMARK   12  A    between atoms: C_23  and  C_24
REMARK   13  A    between atoms: C_25  and  O_56
REMARK   14  A    between atoms: C_27  and  O_55
REMARK   15  A    between atoms: C_28  and  O_54
REMARK   16  A    between atoms: C_29  and  O_32
REMARK   17  A    between atoms: O_32  and  C_33
REMARK   18  A    between atoms: C_34  and  C_46
REMARK   19  A    between atoms: C_38  and  O_45
REMARK   20  A    between atoms: C_40  and  O_44
REMARK   21  A    between atoms: C_48  and  O_53
REMARK   22  A    between atoms: C_49  and  O_52
REMARK                            x       y       z     vdW  Elec       q    Type
REMARK                         _______ _______ _______ _____ _____    ______ ____
ROOT
ATOM      1  C   UNL     1       4.679  -0.497  26.368  0.00  0.00    +0.179 C 
ATOM      2  O   UNL     1       5.119   0.319  25.258  0.00  0.00    -0.331 OA
ATOM      3  C   UNL     1       6.433   0.892  25.462  0.00  0.00    +0.340 C 
ATOM      4  C   UNL     1       6.371   1.832  26.687  0.00  0.00    +0.214 C 
ATOM      5  C   UNL     1       5.899   1.072  27.930  0.00  0.00    +0.180 C 
ATOM      6  C   UNL     1       4.562   0.365  27.644  0.00  0.00    +0.177 C 
ENDROOT
BRANCH   6   7
ATOM      7  O   UNL     1       4.148  -0.375  28.787  0.00  0.00    -0.386 OA
ATOM      8  H   UNL     1       3.873  -1.268  28.504  0.00  0.00    +0.210 HD
ENDBRANCH   6   7
BRANCH   5   9
ATOM      9  O   UNL     1       5.749   2.004  29.015  0.00  0.00    -0.386 OA
ATOM     10  H   UNL     1       6.548   1.895  29.567  0.00  0.00    +0.210 HD
ENDBRANCH   5   9
BRANCH   4  11
ATOM     11  O   UNL     1       5.423   2.909  26.456  0.00  0.00    -0.383 OA
ATOM     12  H   UNL     1       5.935   3.658  26.090  0.00  0.00    +0.210 HD
ENDBRANCH   4  11
BRANCH   3  13
ATOM     13  O   UNL     1       6.782   1.641  24.286  0.00  0.00    -0.453 OA
BRANCH  13  14
ATOM     14  C   UNL     1       8.033   2.245  24.192  0.00  0.00    +0.214 A 
ATOM     15  C   UNL     1       8.213   3.732  24.218  0.00  0.00    +0.238 A 
ATOM     16  O   UNL     1       7.296   4.485  24.524  0.00  0.00    -0.283 OA
ATOM     17  C   UNL     1       9.537   4.269  23.869  0.00  0.00    +0.109 A 
ATOM     18  C   UNL     1      10.596   3.373  23.781  0.00  0.00    +0.147 A 
ATOM     19  C   UNL     1      11.890   3.834  23.516  0.00  0.00    +0.092 A 
ATOM     20  C   UNL     1      12.096   5.195  23.316  0.00  0.00    +0.124 A 
ATOM     21  C   UNL     1      11.044   6.100  23.371  0.00  0.00    +0.091 A 
ATOM     22  O   UNL     1      10.439   2.021  23.943  0.00  0.00    -0.451 OA
ATOM     23  C   UNL     1       9.761   5.636  23.645  0.00  0.00    +0.135 A 
ATOM     24  C   UNL     1       9.156   1.496  24.055  0.00  0.00    +0.181 A 
BRANCH  24  25
ATOM     25  C   UNL     1       9.145   0.008  23.948  0.00  0.00    +0.025 A 
ATOM     26  C   UNL     1       9.109  -0.598  22.672  0.00  0.00    +0.015 A 
ATOM     27  C   UNL     1       8.990  -1.987  22.529  0.00  0.00    +0.050 A 
ATOM     28  C   UNL     1       8.916  -2.775  23.663  0.00  0.00    +0.158 A 
ATOM     29  C   UNL     1       9.029  -2.211  24.927  0.00  0.00    +0.159 A 
ATOM     30  C   UNL     1       9.153  -0.832  25.076  0.00  0.00    +0.060 A 
BRANCH  29  31
ATOM     31  O   UNL     1       8.992  -3.056  26.001  0.00  0.00    -0.503 OA
ATOM     32  H   UNL     1       9.905  -3.316  26.210  0.00  0.00    +0.292 HD
ENDBRANCH  29  31
BRANCH  28  33
ATOM     33  O   UNL     1       8.727  -4.122  23.526  0.00  0.00    -0.503 OA
ATOM     34  H   UNL     1       8.753  -4.276  22.561  0.00  0.00    +0.292 HD
ENDBRANCH  28  33
ENDBRANCH  24  25
BRANCH  20  35
ATOM     35  O   UNL     1      13.333   5.704  23.057  0.00  0.00    -0.507 OA
ATOM     36  H   UNL     1      13.713   5.249  22.287  0.00  0.00    +0.292 HD
ENDBRANCH  20  35
BRANCH  23  37
ATOM     37  O   UNL     1       8.730   6.531  23.669  0.00  0.00    -0.506 OA
ATOM     38  H   UNL     1       8.818   7.167  22.941  0.00  0.00    +0.292 HD
ENDBRANCH  23  37
ENDBRANCH  13  14
ENDBRANCH   3  13
BRANCH   1  39
ATOM     39  C   UNL     1       5.526  -1.779  26.529  0.00  0.00    +0.197 C 
BRANCH  39  40
ATOM     40  O   UNL     1       4.835  -2.753  27.308  0.00  0.00    -0.345 OA
BRANCH  40  44
ATOM     41  C   UNL     1       5.555  -5.571  24.360  0.00  0.00    +0.246 C 
ATOM     42  C   UNL     1       4.097  -5.523  24.863  0.00  0.00    +0.264 C 
ATOM     43  C   UNL     1       3.866  -4.198  25.614  0.00  0.00    +0.276 C 
ATOM     44  C   UNL     1       4.927  -4.063  26.736  0.00  0.00    +0.295 C 
ATOM     45  O   UNL     1       6.260  -4.261  26.273  0.00  0.00    -0.344 OA
ATOM     46  C   UNL     1       6.453  -5.508  25.604  0.00  0.00    +0.211 C 
BRANCH  43  47
ATOM     47  O   UNL     1       2.566  -4.204  26.245  0.00  0.00    -0.452 OA
BRANCH  47  48
ATOM     48  C   UNL     1       1.685  -3.267  25.794  0.00  0.00    +0.304 C 
ATOM     49  C   UNL     1       0.555  -3.933  25.069  0.00  0.00    +0.136 C 
ATOM     50  O   UNL     1       1.793  -2.058  25.949  0.00  0.00    -0.251 OA
ENDBRANCH  47  48
ENDBRANCH  43  47
BRANCH  42  51
ATOM     51  O   UNL     1       3.189  -5.654  23.741  0.00  0.00    -0.454 OA
BRANCH  51  52
ATOM     52  C   UNL     1       2.613  -6.882  23.587  0.00  0.00    +0.304 C 
ATOM     53  C   UNL     1       1.455  -6.821  22.636  0.00  0.00    +0.136 C 
ATOM     54  O   UNL     1       2.969  -7.907  24.151  0.00  0.00    -0.251 OA
ENDBRANCH  51  52
ENDBRANCH  42  51
BRANCH  41  55
ATOM     55  O   UNL     1       5.802  -4.396  23.547  0.00  0.00    -0.455 OA
BRANCH  55  57
ATOM     56  C   UNL     1       6.212  -5.981  21.872  0.00  0.00    +0.136 C 
ATOM     57  C   UNL     1       5.776  -4.586  22.201  0.00  0.00    +0.304 C 
ATOM     58  O   UNL     1       5.331  -3.787  21.388  0.00  0.00    -0.251 OA
ENDBRANCH  55  57
ENDBRANCH  41  55
ENDBRANCH  40  44
ENDBRANCH  39  40
ENDBRANCH   1  39
TORSDOF 19
ENDMDL
MODEL 4
REMARK VINA RESULT:      -7.8      1.561      3.181
REMARK  Name = 
REMARK  22 active torsions:
REMARK  status: ('A' for Active; 'I' for Inactive)
REMARK    1  A    between atoms: C_1  and  C_2
REMARK    2  A    between atoms: C_2  and  O_4
REMARK    3  A    between atoms: O_4  and  C_5
REMARK    4  A    between atoms: C_9  and  O_22
REMARK    5  A    between atoms: C_11  and  O_18
REMARK    6  A    between atoms: C_12  and  O_14
REMARK    7  A    between atoms: O_14  and  C_15
REMARK    8  A    between atoms: C_15  and  C_17
REMARK    9  A    between atoms: O_18  and  C_19
REMARK   10  A    between atoms: C_19  and  C_21
REMARK   11  A    between atoms: O_22  and  C_23
REMARK   12  A    between atoms: C_23  and  C_24
REMARK   13  A    between atoms: C_25  and  O_56
REMARK   14  A    between atoms: C_27  and  O_55
REMARK   15  A    between atoms: C_28  and  O_54
REMARK   16  A    between atoms: C_29  and  O_32
REMARK   17  A    between atoms: O_32  and  C_33
REMARK   18  A    between atoms: C_34  and  C_46
REMARK   19  A    between atoms: C_38  and  O_45
REMARK   20  A    between atoms: C_40  and  O_44
REMARK   21  A    between atoms: C_48  and  O_53
REMARK   22  A    between atoms: C_49  and  O_52
REMARK                            x       y       z     vdW  Elec       q    Type
REMARK                         _______ _______ _______ _____ _____    ______ ____
ROOT
ATOM      1  C   UNL     1       9.376  -0.815  25.155  0.00  0.00    +0.179 C 
ATOM      2  O   UNL     1       9.279   0.573  25.547  0.00  0.00    -0.331 OA
ATOM      3  C   UNL     1       8.401   1.343  24.693  0.00  0.00    +0.340 C 
ATOM      4  C   UNL     1       8.986   1.342  23.262  0.00  0.00    +0.214 C 
ATOM      5  C   UNL     1       9.147  -0.091  22.744  0.00  0.00    +0.180 C 
ATOM      6  C   UNL     1       9.978  -0.923  23.737  0.00  0.00    +0.177 C 
ENDROOT
BRANCH   6   7
ATOM      7  O   UNL     1      10.090  -2.265  23.274  0.00  0.00    -0.386 OA
ATOM      8  H   UNL     1       9.298  -2.485  22.747  0.00  0.00    +0.210 HD
ENDBRANCH   6   7
BRANCH   5   9
ATOM      9  O   UNL     1       9.796  -0.050  21.461  0.00  0.00    -0.386 OA
ATOM     10  H   UNL     1       9.077   0.037  20.806  0.00  0.00    +0.210 HD
ENDBRANCH   5   9
BRANCH   4  11
ATOM     11  O   UNL     1      10.303   1.954  23.250  0.00  0.00    -0.383 OA
ATOM     12  H   UNL     1      10.804   1.529  22.526  0.00  0.00    +0.210 HD
ENDBRANCH   4  11
BRANCH   3  13
ATOM     13  O   UNL     1       8.348   2.687  25.199  0.00  0.00    -0.453 OA
BRANCH  13  14
ATOM     14  C   UNL     1       7.445   3.600  24.659  0.00  0.00    +0.214 A 
ATOM     15  C   UNL     1       6.021   3.244  24.360  0.00  0.00    +0.238 A 
ATOM     16  O   UNL     1       5.524   2.197  24.760  0.00  0.00    -0.283 OA
ATOM     17  C   UNL     1       5.225   4.197  23.573  0.00  0.00    +0.109 A 
ATOM     18  C   UNL     1       5.754   5.467  23.368  0.00  0.00    +0.147 A 
ATOM     19  C   UNL     1       5.015   6.436  22.682  0.00  0.00    +0.092 A 
ATOM     20  C   UNL     1       3.759   6.104  22.186  0.00  0.00    +0.124 A 
ATOM     21  C   UNL     1       3.229   4.832  22.356  0.00  0.00    +0.091 A 
ATOM     22  O   UNL     1       6.998   5.833  23.813  0.00  0.00    -0.451 OA
ATOM     23  C   UNL     1       3.965   3.875  23.048  0.00  0.00    +0.135 A 
ATOM     24  C   UNL     1       7.832   4.866  24.364  0.00  0.00    +0.181 A 
BRANCH  24  25
ATOM     25  C   UNL     1       9.229   5.363  24.540  0.00  0.00    +0.025 A 
ATOM     26  C   UNL     1       9.511   6.300  25.558  0.00  0.00    +0.015 A 
ATOM     27  C   UNL     1      10.784   6.872  25.690  0.00  0.00    +0.050 A 
ATOM     28  C   UNL     1      11.781   6.499  24.807  0.00  0.00    +0.158 A 
ATOM     29  C   UNL     1      11.550   5.521  23.848  0.00  0.00    +0.159 A 
ATOM     30  C   UNL     1      10.289   4.946  23.716  0.00  0.00    +0.060 A 
BRANCH  29  31
ATOM     31  O   UNL     1      12.595   5.172  23.039  0.00  0.00    -0.503 OA
ATOM     32  H   UNL     1      12.241   4.988  22.152  0.00  0.00    +0.292 HD
ENDBRANCH  29  31
BRANCH  28  33
ATOM     33  O   UNL     1      13.002   7.108  24.888  0.00  0.00    -0.503 OA
ATOM     34  H   UNL     1      13.192   7.399  23.974  0.00  0.00    +0.292 HD
ENDBRANCH  28  33
ENDBRANCH  24  25
BRANCH  20  35
ATOM     35  O   UNL     1       2.991   7.006  21.512  0.00  0.00    -0.507 OA
ATOM     36  H   UNL     1       2.224   6.550  21.126  0.00  0.00    +0.292 HD
ENDBRANCH  20  35
BRANCH  23  37
ATOM     37  O   UNL     1       3.446   2.619  23.185  0.00  0.00    -0.506 OA
ATOM     38  H   UNL     1       3.159   2.277  22.323  0.00  0.00    +0.292 HD
ENDBRANCH  23  37
ENDBRANCH  13  14
ENDBRANCH   3  13
BRANCH   1  39
ATOM     39  C   UNL     1       8.047  -1.578  25.354  0.00  0.00    +0.197 C 
BRANCH  39  40
ATOM     40  O   UNL     1       8.161  -2.539  26.400  0.00  0.00    -0.345 OA
BRANCH  40  44
ATOM     41  C   UNL     1       7.108  -5.480  23.682  0.00  0.00    +0.246 C 
ATOM     42  C   UNL     1       6.094  -5.267  24.825  0.00  0.00    +0.264 C 
ATOM     43  C   UNL     1       6.371  -3.910  25.499  0.00  0.00    +0.276 C 
ATOM     44  C   UNL     1       7.854  -3.864  25.950  0.00  0.00    +0.295 C 
ATOM     45  O   UNL     1       8.766  -4.211  24.912  0.00  0.00    -0.344 OA
ATOM     46  C   UNL     1       8.502  -5.485  24.323  0.00  0.00    +0.211 C 
BRANCH  43  47
ATOM     47  O   UNL     1       5.553  -3.765  26.681  0.00  0.00    -0.452 OA
BRANCH  47  48
ATOM     48  C   UNL     1       4.573  -2.820  26.611  0.00  0.00    +0.304 C 
ATOM     49  C   UNL     1       3.610  -2.996  27.746  0.00  0.00    +0.136 C 
ATOM     50  O   UNL     1       4.480  -1.955  25.751  0.00  0.00    -0.251 OA
ENDBRANCH  47  48
ENDBRANCH  43  47
BRANCH  42  51
ATOM     51  O   UNL     1       4.744  -5.325  24.300  0.00  0.00    -0.454 OA
BRANCH  51  52
ATOM     52  C   UNL     1       4.003  -6.401  24.693  0.00  0.00    +0.304 C 
ATOM     53  C   UNL     1       2.827  -5.974  25.520  0.00  0.00    +0.136 C 
ATOM     54  O   UNL     1       4.254  -7.570  24.432  0.00  0.00    -0.251 OA
ENDBRANCH  51  52
ENDBRANCH  42  51
BRANCH  41  55
ATOM     55  O   UNL     1       7.018  -4.355  22.771  0.00  0.00    -0.455 OA
BRANCH  55  57
ATOM     56  C   UNL     1       6.451  -6.039  21.245  0.00  0.00    +0.136 C 
ATOM     57  C   UNL     1       6.366  -4.586  21.600  0.00  0.00    +0.304 C 
ATOM     58  O   UNL     1       5.693  -3.761  20.998  0.00  0.00    -0.251 OA
ENDBRANCH  55  57
ENDBRANCH  41  55
ENDBRANCH  40  44
ENDBRANCH  39  40
ENDBRANCH   1  39
TORSDOF 19
ENDMDL
MODEL 5
REMARK VINA RESULT:      -7.4      2.122      9.784
REMARK  Name = 
REMARK  22 active torsions:
REMARK  status: ('A' for Active; 'I' for Inactive)
REMARK    1  A    between atoms: C_1  and  C_2
REMARK    2  A    between atoms: C_2  and  O_4
REMARK    3  A    between atoms: O_4  and  C_5
REMARK    4  A    between atoms: C_9  and  O_22
REMARK    5  A    between atoms: C_11  and  O_18
REMARK    6  A    between atoms: C_12  and  O_14
REMARK    7  A    between atoms: O_14  and  C_15
REMARK    8  A    between atoms: C_15  and  C_17
REMARK    9  A    between atoms: O_18  and  C_19
REMARK   10  A    between atoms: C_19  and  C_21
REMARK   11  A    between atoms: O_22  and  C_23
REMARK   12  A    between atoms: C_23  and  C_24
REMARK   13  A    between atoms: C_25  and  O_56
REMARK   14  A    between atoms: C_27  and  O_55
REMARK   15  A    between atoms: C_28  and  O_54
REMARK   16  A    between atoms: C_29  and  O_32
REMARK   17  A    between atoms: O_32  and  C_33
REMARK   18  A    between atoms: C_34  and  C_46
REMARK   19  A    between atoms: C_38  and  O_45
REMARK   20  A    between atoms: C_40  and  O_44
REMARK   21  A    between atoms: C_48  and  O_53
REMARK   22  A    between atoms: C_49  and  O_52
REMARK                            x       y       z     vdW  Elec       q    Type
REMARK                         _______ _______ _______ _____ _____    ______ ____
ROOT
ATOM      1  C   UNL     1       9.408  -2.598  23.801  0.00  0.00    +0.179 C 
ATOM      2  O   UNL     1       9.049  -3.881  24.363  0.00  0.00    -0.331 OA
ATOM      3  C   UNL     1       7.904  -3.813  25.245  0.00  0.00    +0.340 C 
ATOM      4  C   UNL     1       8.265  -2.906  26.444  0.00  0.00    +0.214 C 
ATOM      5  C   UNL     1       8.677  -1.512  25.964  0.00  0.00    +0.180 C 
ATOM      6  C   UNL     1       9.810  -1.622  24.928  0.00  0.00    +0.177 C 
ENDROOT
BRANCH   6   7
ATOM      7  O   UNL     1      10.162  -0.327  24.452  0.00  0.00    -0.386 OA
ATOM      8  H   UNL     1       9.355   0.126  24.139  0.00  0.00    +0.210 HD
ENDBRANCH   6   7
BRANCH   5   9
ATOM      9  O   UNL     1       9.110  -0.740  27.097  0.00  0.00    -0.386 OA
ATOM     10  H   UNL     1      10.086  -0.747  27.062  0.00  0.00    +0.210 HD
ENDBRANCH   5   9
BRANCH   4  11
ATOM     11  O   UNL     1       9.389  -3.458  27.181  0.00  0.00    -0.383 OA
ATOM     12  H   UNL     1       9.188  -3.337  28.130  0.00  0.00    +0.210 HD
ENDBRANCH   4  11
BRANCH   3  13
ATOM     13  O   UNL     1       7.615  -5.143  25.707  0.00  0.00    -0.453 OA
BRANCH  13  14
ATOM     14  C   UNL     1       6.349  -5.449  26.202  0.00  0.00    +0.214 A 
ATOM     15  C   UNL     1       6.099  -5.742  27.649  0.00  0.00    +0.238 A 
ATOM     16  O   UNL     1       6.953  -5.532  28.503  0.00  0.00    -0.283 OA
ATOM     17  C   UNL     1       4.786  -6.287  28.022  0.00  0.00    +0.109 A 
ATOM     18  C   UNL     1       3.779  -6.264  27.063  0.00  0.00    +0.147 A 
ATOM     19  C   UNL     1       2.492  -6.709  27.381  0.00  0.00    +0.092 A 
ATOM     20  C   UNL     1       2.241  -7.199  28.658  0.00  0.00    +0.124 A 
ATOM     21  C   UNL     1       3.242  -7.257  29.618  0.00  0.00    +0.091 A 
ATOM     22  O   UNL     1       3.984  -5.817  25.784  0.00  0.00    -0.451 OA
ATOM     23  C   UNL     1       4.518  -6.802  29.300  0.00  0.00    +0.135 A 
ATOM     24  C   UNL     1       5.276  -5.508  25.372  0.00  0.00    +0.181 A 
BRANCH  24  25
ATOM     25  C   UNL     1       5.364  -5.306  23.897  0.00  0.00    +0.025 A 
ATOM     26  C   UNL     1       5.652  -6.406  23.059  0.00  0.00    +0.015 A 
ATOM     27  C   UNL     1       5.848  -6.241  21.681  0.00  0.00    +0.050 A 
ATOM     28  C   UNL     1       5.749  -4.974  21.136  0.00  0.00    +0.158 A 
ATOM     29  C   UNL     1       5.390  -3.889  21.925  0.00  0.00    +0.159 A 
ATOM     30  C   UNL     1       5.188  -4.047  23.294  0.00  0.00    +0.060 A 
BRANCH  29  31
ATOM     31  O   UNL     1       5.267  -2.674  21.310  0.00  0.00    -0.503 OA
ATOM     32  H   UNL     1       4.576  -2.750  20.630  0.00  0.00    +0.292 HD
ENDBRANCH  29  31
BRANCH  28  33
ATOM     33  O   UNL     1       6.012  -4.799  19.806  0.00  0.00    -0.503 OA
ATOM     34  H   UNL     1       5.149  -4.933  19.366  0.00  0.00    +0.292 HD
ENDBRANCH  28  33
ENDBRANCH  24  25
BRANCH  20  35
ATOM     35  O   UNL     1       1.007  -7.644  29.028  0.00  0.00    -0.507 OA
ATOM     36  H   UNL     1       0.350  -7.351  28.373  0.00  0.00    +0.292 HD
ENDBRANCH  20  35
BRANCH  23  37
ATOM     37  O   UNL     1       5.502  -6.889  30.243  0.00  0.00    -0.506 OA
ATOM     38  H   UNL     1       5.191  -7.399  31.008  0.00  0.00    +0.292 HD
ENDBRANCH  23  37
ENDBRANCH  13  14
ENDBRANCH   3  13
BRANCH   1  39
ATOM     39  C   UNL     1       8.333  -2.058  22.831  0.00  0.00    +0.197 C 
BRANCH  39  40
ATOM     40  O   UNL     1       7.259  -1.452  23.546  0.00  0.00    -0.345 OA
BRANCH  40  44
ATOM     41  C   UNL     1       7.762   2.635  23.103  0.00  0.00    +0.246 C 
ATOM     42  C   UNL     1       6.437   2.218  23.775  0.00  0.00    +0.264 C 
ATOM     43  C   UNL     1       6.553   0.760  24.258  0.00  0.00    +0.276 C 
ATOM     44  C   UNL     1       6.966  -0.136  23.061  0.00  0.00    +0.295 C 
ATOM     45  O   UNL     1       8.108   0.353  22.364  0.00  0.00    -0.344 OA
ATOM     46  C   UNL     1       7.962   1.697  21.904  0.00  0.00    +0.211 C 
BRANCH  43  47
ATOM     47  O   UNL     1       5.271   0.289  24.731  0.00  0.00    -0.452 OA
BRANCH  47  48
ATOM     48  C   UNL     1       5.245  -0.170  26.014  0.00  0.00    +0.304 C 
ATOM     49  C   UNL     1       4.740  -1.580  26.043  0.00  0.00    +0.136 C 
ATOM     50  O   UNL     1       5.579   0.468  27.003  0.00  0.00    -0.251 OA
ENDBRANCH  47  48
ENDBRANCH  43  47
BRANCH  42  51
ATOM     51  O   UNL     1       6.144   3.113  24.877  0.00  0.00    -0.454 OA
BRANCH  51  52
ATOM     52  C   UNL     1       5.778   4.380  24.528  0.00  0.00    +0.304 C 
ATOM     53  C   UNL     1       6.515   5.400  25.343  0.00  0.00    +0.136 C 
ATOM     54  O   UNL     1       4.948   4.669  23.676  0.00  0.00    -0.251 OA
ENDBRANCH  51  52
ENDBRANCH  42  51
BRANCH  41  55
ATOM     55  O   UNL     1       8.843   2.423  24.046  0.00  0.00    -0.455 OA
BRANCH  55  57
ATOM     56  C   UNL     1       9.780   4.556  23.799  0.00  0.00    +0.136 C 
ATOM     57  C   UNL     1      10.006   3.075  23.775  0.00  0.00    +0.304 C 
ATOM     58  O   UNL     1      11.101   2.540  23.667  0.00  0.00    -0.251 OA
ENDBRANCH  55  57
ENDBRANCH  41  55
ENDBRANCH  40  44
ENDBRANCH  39  40
ENDBRANCH   1  39
TORSDOF 19
ENDMDL
MODEL 6
REMARK VINA RESULT:      -7.4      2.490      9.822
REMARK  Name = 
REMARK  22 active torsions:
REMARK  status: ('A' for Active; 'I' for Inactive)
REMARK    1  A    between atoms: C_1  and  C_2
REMARK    2  A    between atoms: C_2  and  O_4
REMARK    3  A    between atoms: O_4  and  C_5
REMARK    4  A    between atoms: C_9  and  O_22
REMARK    5  A    between atoms: C_11  and  O_18
REMARK    6  A    between atoms: C_12  and  O_14
REMARK    7  A    between atoms: O_14  and  C_15
REMARK    8  A    between atoms: C_15  and  C_17
REMARK    9  A    between atoms: O_18  and  C_19
REMARK   10  A    between atoms: C_19  and  C_21
REMARK   11  A    between atoms: O_22  and  C_23
REMARK   12  A    between atoms: C_23  and  C_24
REMARK   13  A    between atoms: C_25  and  O_56
REMARK   14  A    between atoms: C_27  and  O_55
REMARK   15  A    between atoms: C_28  and  O_54
REMARK   16  A    between atoms: C_29  and  O_32
REMARK   17  A    between atoms: O_32  and  C_33
REMARK   18  A    between atoms: C_34  and  C_46
REMARK   19  A    between atoms: C_38  and  O_45
REMARK   20  A    between atoms: C_40  and  O_44
REMARK   21  A    between atoms: C_48  and  O_53
REMARK   22  A    between atoms: C_49  and  O_52
REMARK                            x       y       z     vdW  Elec       q    Type
REMARK                         _______ _______ _______ _____ _____    ______ ____
ROOT
ATOM      1  C   UNL     1       3.772  -0.014  28.207  0.00  0.00    +0.179 C 
ATOM      2  O   UNL     1       4.954  -0.842  28.293  0.00  0.00    -0.331 OA
ATOM      3  C   UNL     1       4.880  -2.022  27.459  0.00  0.00    +0.340 C 
ATOM      4  C   UNL     1       3.707  -2.898  27.956  0.00  0.00    +0.214 C 
ATOM      5  C   UNL     1       2.392  -2.113  27.922  0.00  0.00    +0.180 C 
ATOM      6  C   UNL     1       2.540  -0.798  28.709  0.00  0.00    +0.177 C 
ENDROOT
BRANCH   6   7
ATOM      7  O   UNL     1       1.330  -0.051  28.639  0.00  0.00    -0.386 OA
ATOM      8  H   UNL     1       0.730  -0.352  29.348  0.00  0.00    +0.210 HD
ENDBRANCH   6   7
BRANCH   5   9
ATOM      9  O   UNL     1       1.352  -2.924  28.495  0.00  0.00    -0.386 OA
ATOM     10  H   UNL     1       1.765  -3.381  29.253  0.00  0.00    +0.210 HD
ENDBRANCH   5   9
BRANCH   4  11
ATOM     11  O   UNL     1       3.926  -3.311  29.331  0.00  0.00    -0.383 OA
ATOM     12  H   UNL     1       3.597  -4.229  29.404  0.00  0.00    +0.210 HD
ENDBRANCH   4  11
BRANCH   3  13
ATOM     13  O   UNL     1       6.117  -2.741  27.590  0.00  0.00    -0.453 OA
BRANCH  13  14
ATOM     14  C   UNL     1       7.064  -2.688  26.570  0.00  0.00    +0.214 A 
ATOM     15  C   UNL     1       8.000  -1.532  26.398  0.00  0.00    +0.238 A 
ATOM     16  O   UNL     1       8.119  -0.669  27.261  0.00  0.00    -0.283 OA
ATOM     17  C   UNL     1       8.787  -1.463  25.158  0.00  0.00    +0.109 A 
ATOM     18  C   UNL     1       8.805  -2.587  24.339  0.00  0.00    +0.147 A 
ATOM     19  C   UNL     1       9.587  -2.602  23.180  0.00  0.00    +0.092 A 
ATOM     20  C   UNL     1      10.323  -1.471  22.844  0.00  0.00    +0.124 A 
ATOM     21  C   UNL     1      10.293  -0.330  23.635  0.00  0.00    +0.091 A 
ATOM     22  O   UNL     1       8.076  -3.715  24.613  0.00  0.00    -0.451 OA
ATOM     23  C   UNL     1       9.521  -0.324  24.793  0.00  0.00    +0.135 A 
ATOM     24  C   UNL     1       7.167  -3.696  25.666  0.00  0.00    +0.181 A 
BRANCH  24  25
ATOM     25  C   UNL     1       6.269  -4.888  25.656  0.00  0.00    +0.025 A 
ATOM     26  C   UNL     1       5.561  -5.217  24.479  0.00  0.00    +0.015 A 
ATOM     27  C   UNL     1       4.629  -6.263  24.458  0.00  0.00    +0.050 A 
ATOM     28  C   UNL     1       4.408  -6.988  25.615  0.00  0.00    +0.158 A 
ATOM     29  C   UNL     1       5.148  -6.735  26.763  0.00  0.00    +0.159 A 
ATOM     30  C   UNL     1       6.080  -5.701  26.788  0.00  0.00    +0.060 A 
BRANCH  29  31
ATOM     31  O   UNL     1       4.907  -7.521  27.855  0.00  0.00    -0.503 OA
ATOM     32  H   UNL     1       5.752  -7.912  28.136  0.00  0.00    +0.292 HD
ENDBRANCH  29  31
BRANCH  28  33
ATOM     33  O   UNL     1       3.447  -7.960  25.618  0.00  0.00    -0.503 OA
ATOM     34  H   UNL     1       3.894  -8.746  25.989  0.00  0.00    +0.292 HD
ENDBRANCH  28  33
ENDBRANCH  24  25
BRANCH  20  35
ATOM     35  O   UNL     1      11.105  -1.427  21.729  0.00  0.00    -0.507 OA
ATOM     36  H   UNL     1      11.978  -1.069  21.963  0.00  0.00    +0.292 HD
ENDBRANCH  20  35
BRANCH  23  37
ATOM     37  O   UNL     1       9.478   0.813  25.548  0.00  0.00    -0.506 OA
ATOM     38  H   UNL     1      10.321   1.290  25.489  0.00  0.00    +0.292 HD
ENDBRANCH  23  37
ENDBRANCH  13  14
ENDBRANCH   3  13
BRANCH   1  39
ATOM     39  C   UNL     1       3.604   0.632  26.814  0.00  0.00    +0.197 C 
BRANCH  39  40
ATOM     40  O   UNL     1       3.302   2.021  26.928  0.00  0.00    -0.345 OA
BRANCH  40  44
ATOM     41  C   UNL     1       6.122   2.776  23.991  0.00  0.00    +0.246 C 
ATOM     42  C   UNL     1       6.419   3.435  25.354  0.00  0.00    +0.264 C 
ATOM     43  C   UNL     1       5.565   2.755  26.440  0.00  0.00    +0.276 C 
ATOM     44  C   UNL     1       4.073   2.816  26.019  0.00  0.00    +0.295 C 
ATOM     45  O   UNL     1       3.845   2.339  24.697  0.00  0.00    -0.344 OA
ATOM     46  C   UNL     1       4.631   3.004  23.707  0.00  0.00    +0.211 C 
BRANCH  43  47
ATOM     47  O   UNL     1       5.692   3.467  27.691  0.00  0.00    -0.452 OA
BRANCH  47  48
ATOM     48  C   UNL     1       6.175   2.742  28.739  0.00  0.00    +0.304 C 
ATOM     49  C   UNL     1       5.283   2.907  29.931  0.00  0.00    +0.136 C 
ATOM     50  O   UNL     1       7.189   2.057  28.721  0.00  0.00    -0.251 OA
ENDBRANCH  47  48
ENDBRANCH  43  47
BRANCH  42  51
ATOM     51  O   UNL     1       7.833   3.322  25.653  0.00  0.00    -0.454 OA
BRANCH  51  52
ATOM     52  C   UNL     1       8.665   4.063  24.865  0.00  0.00    +0.304 C 
ATOM     53  C   UNL     1       8.353   5.526  24.974  0.00  0.00    +0.136 C 
ATOM     54  O   UNL     1       9.545   3.613  24.144  0.00  0.00    -0.251 OA
ENDBRANCH  51  52
ENDBRANCH  42  51
BRANCH  41  55
ATOM     55  O   UNL     1       6.361   1.350  24.106  0.00  0.00    -0.455 OA
BRANCH  55  57
ATOM     56  C   UNL     1       7.546   1.660  22.109  0.00  0.00    +0.136 C 
ATOM     57  C   UNL     1       6.759   0.719  22.968  0.00  0.00    +0.304 C 
ATOM     58  O   UNL     1       6.616  -0.475  22.743  0.00  0.00    -0.251 OA
ENDBRANCH  55  57
ENDBRANCH  41  55
ENDBRANCH  40  44
ENDBRANCH  39  40
ENDBRANCH   1  39
TORSDOF 19
ENDMDL
MODEL 7
REMARK VINA RESULT:      -7.4      2.471      9.925
REMARK  Name = 
REMARK  22 active torsions:
REMARK  status: ('A' for Active; 'I' for Inactive)
REMARK    1  A    between atoms: C_1  and  C_2
REMARK    2  A    between atoms: C_2  and  O_4
REMARK    3  A    between atoms: O_4  and  C_5
REMARK    4  A    between atoms: C_9  and  O_22
REMARK    5  A    between atoms: C_11  and  O_18
REMARK    6  A    between atoms: C_12  and  O_14
REMARK    7  A    between atoms: O_14  and  C_15
REMARK    8  A    between atoms: C_15  and  C_17
REMARK    9  A    between atoms: O_18  and  C_19
REMARK   10  A    between atoms: C_19  and  C_21
REMARK   11  A    between atoms: O_22  and  C_23
REMARK   12  A    between atoms: C_23  and  C_24
REMARK   13  A    between atoms: C_25  and  O_56
REMARK   14  A    between atoms: C_27  and  O_55
REMARK   15  A    between atoms: C_28  and  O_54
REMARK   16  A    between atoms: C_29  and  O_32
REMARK   17  A    between atoms: O_32  and  C_33
REMARK   18  A    between atoms: C_34  and  C_46
REMARK   19  A    between atoms: C_38  and  O_45
REMARK   20  A    between atoms: C_40  and  O_44
REMARK   21  A    between atoms: C_48  and  O_53
REMARK   22  A    between atoms: C_49  and  O_52
REMARK                            x       y       z     vdW  Elec       q    Type
REMARK                         _______ _______ _______ _____ _____    ______ ____
ROOT
ATOM      1  C   UNL     1       5.753   0.913  26.364  0.00  0.00    +0.179 C 
ATOM      2  O   UNL     1       5.889  -0.521  26.488  0.00  0.00    -0.331 OA
ATOM      3  C   UNL     1       4.619  -1.214  26.477  0.00  0.00    +0.340 C 
ATOM      4  C   UNL     1       3.802  -0.754  27.706  0.00  0.00    +0.214 C 
ATOM      5  C   UNL     1       3.605   0.765  27.687  0.00  0.00    +0.180 C 
ATOM      6  C   UNL     1       4.965   1.475  27.567  0.00  0.00    +0.177 C 
ENDROOT
BRANCH   6   7
ATOM      7  O   UNL     1       4.775   2.884  27.507  0.00  0.00    -0.386 OA
ATOM      8  H   UNL     1       5.435   3.317  28.082  0.00  0.00    +0.210 HD
ENDBRANCH   6   7
BRANCH   5   9
ATOM      9  O   UNL     1       2.940   1.161  28.900  0.00  0.00    -0.386 OA
ATOM     10  H   UNL     1       3.160   0.472  29.556  0.00  0.00    +0.210 HD
ENDBRANCH   5   9
BRANCH   4  11
ATOM     11  O   UNL     1       4.502  -1.082  28.936  0.00  0.00    -0.383 OA
ATOM     12  H   UNL     1       4.238  -1.993  29.173  0.00  0.00    +0.210 HD
ENDBRANCH   4  11
BRANCH   3  13
ATOM     13  O   UNL     1       4.878  -2.625  26.561  0.00  0.00    -0.453 OA
BRANCH  13  14
ATOM     14  C   UNL     1       4.313  -3.494  25.630  0.00  0.00    +0.214 A 
ATOM     15  C   UNL     1       2.925  -4.037  25.773  0.00  0.00    +0.238 A 
ATOM     16  O   UNL     1       2.144  -3.592  26.606  0.00  0.00    -0.283 OA
ATOM     17  C   UNL     1       2.518  -5.126  24.873  0.00  0.00    +0.109 A 
ATOM     18  C   UNL     1       3.343  -5.414  23.791  0.00  0.00    +0.147 A 
ATOM     19  C   UNL     1       2.975  -6.396  22.865  0.00  0.00    +0.092 A 
ATOM     20  C   UNL     1       1.788  -7.096  23.056  0.00  0.00    +0.124 A 
ATOM     21  C   UNL     1       0.968  -6.841  24.147  0.00  0.00    +0.091 A 
ATOM     22  O   UNL     1       4.534  -4.772  23.575  0.00  0.00    -0.451 OA
ATOM     23  C   UNL     1       1.334  -5.856  25.059  0.00  0.00    +0.135 A 
ATOM     24  C   UNL     1       5.019  -3.899  24.544  0.00  0.00    +0.181 A 
BRANCH  24  25
ATOM     25  C   UNL     1       6.434  -3.502  24.286  0.00  0.00    +0.025 A 
ATOM     26  C   UNL     1       6.705  -2.342  23.528  0.00  0.00    +0.015 A 
ATOM     27  C   UNL     1       8.015  -1.992  23.173  0.00  0.00    +0.050 A 
ATOM     28  C   UNL     1       9.060  -2.800  23.583  0.00  0.00    +0.158 A 
ATOM     29  C   UNL     1       8.826  -3.903  24.395  0.00  0.00    +0.159 A 
ATOM     30  C   UNL     1       7.528  -4.252  24.756  0.00  0.00    +0.060 A 
BRANCH  29  31
ATOM     31  O   UNL     1       9.911  -4.630  24.799  0.00  0.00    -0.503 OA
ATOM     32  H   UNL     1       9.700  -5.573  24.688  0.00  0.00    +0.292 HD
ENDBRANCH  29  31
BRANCH  28  33
ATOM     33  O   UNL     1      10.331  -2.502  23.177  0.00  0.00    -0.503 OA
ATOM     34  H   UNL     1      10.260  -2.398  22.208  0.00  0.00    +0.292 HD
ENDBRANCH  28  33
ENDBRANCH  24  25
BRANCH  20  35
ATOM     35  O   UNL     1       1.376  -8.061  22.187  0.00  0.00    -0.507 OA
ATOM     36  H   UNL     1       1.327  -8.913  22.653  0.00  0.00    +0.292 HD
ENDBRANCH  20  35
BRANCH  23  37
ATOM     37  O   UNL     1       0.534  -5.634  26.143  0.00  0.00    -0.506 OA
ATOM     38  H   UNL     1       0.994  -5.887  26.960  0.00  0.00    +0.292 HD
ENDBRANCH  23  37
ENDBRANCH  13  14
ENDBRANCH   3  13
BRANCH   1  39
ATOM     39  C   UNL     1       5.210   1.336  24.980  0.00  0.00    +0.197 C 
BRANCH  39  40
ATOM     40  O   UNL     1       5.198   2.756  24.850  0.00  0.00    -0.345 OA
BRANCH  40  44
ATOM     41  C   UNL     1       8.680   2.764  22.608  0.00  0.00    +0.246 C 
ATOM     42  C   UNL     1       8.467   4.024  23.473  0.00  0.00    +0.264 C 
ATOM     43  C   UNL     1       7.403   3.726  24.546  0.00  0.00    +0.276 C 
ATOM     44  C   UNL     1       6.116   3.212  23.850  0.00  0.00    +0.295 C 
ATOM     45  O   UNL     1       6.361   2.143  22.940  0.00  0.00    -0.344 OA
ATOM     46  C   UNL     1       7.332   2.455  21.941  0.00  0.00    +0.211 C 
BRANCH  43  47
ATOM     47  O   UNL     1       7.059   4.938  25.254  0.00  0.00    -0.452 OA
BRANCH  47  48
ATOM     48  C   UNL     1       7.472   5.003  26.551  0.00  0.00    +0.304 C 
ATOM     49  C   UNL     1       8.039   6.359  26.841  0.00  0.00    +0.136 C 
ATOM     50  O   UNL     1       7.401   4.093  27.366  0.00  0.00    -0.251 OA
ENDBRANCH  47  48
ENDBRANCH  43  47
BRANCH  42  51
ATOM     51  O   UNL     1       9.725   4.419  24.078  0.00  0.00    -0.454 OA
BRANCH  51  52
ATOM     52  C   UNL     1      10.174   5.664  23.747  0.00  0.00    +0.304 C 
ATOM     53  C   UNL     1      11.673   5.710  23.729  0.00  0.00    +0.136 C 
ATOM     54  O   UNL     1       9.467   6.633  23.508  0.00  0.00    -0.251 OA
ENDBRANCH  51  52
ENDBRANCH  42  51
BRANCH  41  55
ATOM     55  O   UNL     1       9.031   1.660  23.480  0.00  0.00    -0.455 OA
BRANCH  55  57
ATOM     56  C   UNL     1      11.062   0.812  24.284  0.00  0.00    +0.136 C 
ATOM     57  C   UNL     1      10.129   0.941  23.119  0.00  0.00    +0.304 C 
ATOM     58  O   UNL     1      10.270   0.368  22.048  0.00  0.00    -0.251 OA
ENDBRANCH  55  57
ENDBRANCH  41  55
ENDBRANCH  40  44
ENDBRANCH  39  40
ENDBRANCH   1  39
TORSDOF 19
ENDMDL
MODEL 8
REMARK VINA RESULT:      -7.2      2.941      4.973
REMARK  Name = 
REMARK  22 active torsions:
REMARK  status: ('A' for Active; 'I' for Inactive)
REMARK    1  A    between atoms: C_1  and  C_2
REMARK    2  A    between atoms: C_2  and  O_4
REMARK    3  A    between atoms: O_4  and  C_5
REMARK    4  A    between atoms: C_9  and  O_22
REMARK    5  A    between atoms: C_11  and  O_18
REMARK    6  A    between atoms: C_12  and  O_14
REMARK    7  A    between atoms: O_14  and  C_15
REMARK    8  A    between atoms: C_15  and  C_17
REMARK    9  A    between atoms: O_18  and  C_19
REMARK   10  A    between atoms: C_19  and  C_21
REMARK   11  A    between atoms: O_22  and  C_23
REMARK   12  A    between atoms: C_23  and  C_24
REMARK   13  A    between atoms: C_25  and  O_56
REMARK   14  A    between atoms: C_27  and  O_55
REMARK   15  A    between atoms: C_28  and  O_54
REMARK   16  A    between atoms: C_29  and  O_32
REMARK   17  A    between atoms: O_32  and  C_33
REMARK   18  A    between atoms: C_34  and  C_46
REMARK   19  A    between atoms: C_38  and  O_45
REMARK   20  A    between atoms: C_40  and  O_44
REMARK   21  A    between atoms: C_48  and  O_53
REMARK   22  A    between atoms: C_49  and  O_52
REMARK                            x       y       z     vdW  Elec       q    Type
REMARK                         _______ _______ _______ _____ _____    ______ ____
ROOT
ATOM      1  C   UNL     1       5.115   0.261  27.357  0.00  0.00    +0.179 C 
ATOM      2  O   UNL     1       5.553   1.276  26.424  0.00  0.00    -0.331 OA
ATOM      3  C   UNL     1       6.948   1.626  26.580  0.00  0.00    +0.340 C 
ATOM      4  C   UNL     1       7.145   2.228  27.991  0.00  0.00    +0.214 C 
ATOM      5  C   UNL     1       6.698   1.237  29.070  0.00  0.00    +0.180 C 
ATOM      6  C   UNL     1       5.252   0.781  28.805  0.00  0.00    +0.177 C 
ENDROOT
BRANCH   6   7
ATOM      7  O   UNL     1       4.855  -0.172  29.785  0.00  0.00    -0.386 OA
ATOM      8  H   UNL     1       4.335  -0.875  29.350  0.00  0.00    +0.210 HD
ENDBRANCH   6   7
BRANCH   5   9
ATOM      9  O   UNL     1       6.793   1.877  30.354  0.00  0.00    -0.386 OA
ATOM     10  H   UNL     1       7.656   1.603  30.720  0.00  0.00    +0.210 HD
ENDBRANCH   5   9
BRANCH   4  11
ATOM     11  O   UNL     1       6.343   3.428  28.149  0.00  0.00    -0.383 OA
ATOM     12  H   UNL     1       5.934   3.608  27.279  0.00  0.00    +0.210 HD
ENDBRANCH   4  11
BRANCH   3  13
ATOM     13  O   UNL     1       7.280   2.603  25.580  0.00  0.00    -0.453 OA
BRANCH  13  14
ATOM     14  C   UNL     1       6.336   2.968  24.623  0.00  0.00    +0.214 A 
ATOM     15  C   UNL     1       5.237   3.945  24.908  0.00  0.00    +0.238 A 
ATOM     16  O   UNL     1       5.230   4.623  25.929  0.00  0.00    -0.283 OA
ATOM     17  C   UNL     1       4.159   4.075  23.916  0.00  0.00    +0.109 A 
ATOM     18  C   UNL     1       4.348   3.478  22.674  0.00  0.00    +0.147 A 
ATOM     19  C   UNL     1       3.385   3.623  21.670  0.00  0.00    +0.092 A 
ATOM     20  C   UNL     1       2.229   4.347  21.939  0.00  0.00    +0.124 A 
ATOM     21  C   UNL     1       2.012   4.924  23.183  0.00  0.00    +0.091 A 
ATOM     22  O   UNL     1       5.456   2.733  22.370  0.00  0.00    -0.451 OA
ATOM     23  C   UNL     1       2.977   4.786  24.175  0.00  0.00    +0.135 A 
ATOM     24  C   UNL     1       6.367   2.431  23.377  0.00  0.00    +0.181 A 
BRANCH  24  25
ATOM     25  C   UNL     1       7.355   1.397  22.951  0.00  0.00    +0.025 A 
ATOM     26  C   UNL     1       8.612   1.800  22.449  0.00  0.00    +0.015 A 
ATOM     27  C   UNL     1       9.527   0.869  21.940  0.00  0.00    +0.050 A 
ATOM     28  C   UNL     1       9.188  -0.473  21.939  0.00  0.00    +0.158 A 
ATOM     29  C   UNL     1       7.992  -0.902  22.498  0.00  0.00    +0.159 A 
ATOM     30  C   UNL     1       7.082   0.019  23.012  0.00  0.00    +0.060 A 
BRANCH  29  31
ATOM     31  O   UNL     1       7.744  -2.246  22.503  0.00  0.00    -0.503 OA
ATOM     32  H   UNL     1       8.345  -2.665  21.862  0.00  0.00    +0.292 HD
ENDBRANCH  29  31
BRANCH  28  33
ATOM     33  O   UNL     1      10.047  -1.375  21.376  0.00  0.00    -0.503 OA
ATOM     34  H   UNL     1      10.919  -0.933  21.402  0.00  0.00    +0.292 HD
ENDBRANCH  28  33
ENDBRANCH  24  25
BRANCH  20  35
ATOM     35  O   UNL     1       1.257   4.525  20.999  0.00  0.00    -0.507 OA
ATOM     36  H   UNL     1       1.248   3.760  20.398  0.00  0.00    +0.292 HD
ENDBRANCH  20  35
BRANCH  23  37
ATOM     37  O   UNL     1       2.741   5.333  25.403  0.00  0.00    -0.506 OA
ATOM     38  H   UNL     1       3.551   5.327  25.938  0.00  0.00    +0.292 HD
ENDBRANCH  23  37
ENDBRANCH  13  14
ENDBRANCH   3  13
BRANCH   1  39
ATOM     39  C   UNL     1       5.783  -1.108  27.096  0.00  0.00    +0.197 C 
BRANCH  39  40
ATOM     40  O   UNL     1       4.928  -2.177  27.494  0.00  0.00    -0.345 OA
BRANCH  40  44
ATOM     41  C   UNL     1       7.277  -4.791  25.304  0.00  0.00    +0.246 C 
ATOM     42  C   UNL     1       5.919  -4.449  24.657  0.00  0.00    +0.264 C 
ATOM     43  C   UNL     1       5.345  -3.185  25.325  0.00  0.00    +0.276 C 
ATOM     44  C   UNL     1       5.278  -3.411  26.857  0.00  0.00    +0.295 C 
ATOM     45  O   UNL     1       6.508  -3.871  27.410  0.00  0.00    -0.344 OA
ATOM     46  C   UNL     1       7.002  -5.059  26.790  0.00  0.00    +0.211 C 
BRANCH  43  47
ATOM     47  O   UNL     1       3.998  -2.945  24.861  0.00  0.00    -0.452 OA
BRANCH  47  48
ATOM     48  C   UNL     1       3.060  -3.842  25.278  0.00  0.00    +0.304 C 
ATOM     49  C   UNL     1       1.939  -3.128  25.970  0.00  0.00    +0.136 C 
ATOM     50  O   UNL     1       3.118  -5.054  25.120  0.00  0.00    -0.251 OA
ENDBRANCH  47  48
ENDBRANCH  43  47
BRANCH  42  51
ATOM     51  O   UNL     1       6.091  -4.255  23.230  0.00  0.00    -0.454 OA
BRANCH  51  52
ATOM     52  C   UNL     1       5.715  -5.303  22.442  0.00  0.00    +0.304 C 
ATOM     53  C   UNL     1       6.906  -5.957  21.807  0.00  0.00    +0.136 C 
ATOM     54  O   UNL     1       4.563  -5.669  22.251  0.00  0.00    -0.251 OA
ENDBRANCH  51  52
ENDBRANCH  42  51
BRANCH  41  55
ATOM     55  O   UNL     1       8.145  -3.634  25.192  0.00  0.00    -0.455 OA
BRANCH  55  57
ATOM     56  C   UNL     1       9.913  -5.149  25.451  0.00  0.00    +0.136 C 
ATOM     57  C   UNL     1       9.426  -3.886  24.810  0.00  0.00    +0.304 C 
ATOM     58  O   UNL     1      10.043  -3.253  23.964  0.00  0.00    -0.251 OA
ENDBRANCH  55  57
ENDBRANCH  41  55
ENDBRANCH  40  44
ENDBRANCH  39  40
ENDBRANCH   1  39
TORSDOF 19
ENDMDL
MODEL 9
REMARK VINA RESULT:      -7.1      2.883      8.989
REMARK  Name = 
REMARK  22 active torsions:
REMARK  status: ('A' for Active; 'I' for Inactive)
REMARK    1  A    between atoms: C_1  and  C_2
REMARK    2  A    between atoms: C_2  and  O_4
REMARK    3  A    between atoms: O_4  and  C_5
REMARK    4  A    between atoms: C_9  and  O_22
REMARK    5  A    between atoms: C_11  and  O_18
REMARK    6  A    between atoms: C_12  and  O_14
REMARK    7  A    between atoms: O_14  and  C_15
REMARK    8  A    between atoms: C_15  and  C_17
REMARK    9  A    between atoms: O_18  and  C_19
REMARK   10  A    between atoms: C_19  and  C_21
REMARK   11  A    between atoms: O_22  and  C_23
REMARK   12  A    between atoms: C_23  and  C_24
REMARK   13  A    between atoms: C_25  and  O_56
REMARK   14  A    between atoms: C_27  and  O_55
REMARK   15  A    between atoms: C_28  and  O_54
REMARK   16  A    between atoms: C_29  and  O_32
REMARK   17  A    between atoms: O_32  and  C_33
REMARK   18  A    between atoms: C_34  and  C_46
REMARK   19  A    between atoms: C_38  and  O_45
REMARK   20  A    between atoms: C_40  and  O_44
REMARK   21  A    between atoms: C_48  and  O_53
REMARK   22  A    between atoms: C_49  and  O_52
REMARK                            x       y       z     vdW  Elec       q    Type
REMARK                         _______ _______ _______ _____ _____    ______ ____
ROOT
ATOM      1  C   UNL     1       7.865   0.651  23.082  0.00  0.00    +0.179 C 
ATOM      2  O   UNL     1       7.265  -0.364  23.919  0.00  0.00    -0.331 OA
ATOM      3  C   UNL     1       8.228  -1.056  24.749  0.00  0.00    +0.340 C 
ATOM      4  C   UNL     1       9.225  -1.795  23.828  0.00  0.00    +0.214 C 
ATOM      5  C   UNL     1       9.917  -0.812  22.879  0.00  0.00    +0.180 C 
ATOM      6  C   UNL     1       8.867   0.003  22.102  0.00  0.00    +0.177 C 
ENDROOT
BRANCH   6   7
ATOM      7  O   UNL     1       9.513   0.945  21.253  0.00  0.00    -0.386 OA
ATOM      8  H   UNL     1       9.104   1.822  21.384  0.00  0.00    +0.210 HD
ENDBRANCH   6   7
BRANCH   5   9
ATOM      9  O   UNL     1      10.748  -1.552  21.968  0.00  0.00    -0.386 OA
ATOM     10  H   UNL     1      10.759  -1.032  21.142  0.00  0.00    +0.210 HD
ENDBRANCH   5   9
BRANCH   4  11
ATOM     11  O   UNL     1       8.531  -2.771  23.006  0.00  0.00    -0.383 OA
ATOM     12  H   UNL     1       9.137  -3.002  22.274  0.00  0.00    +0.210 HD
ENDBRANCH   4  11
BRANCH   3  13
ATOM     13  O   UNL     1       7.518  -2.003  25.564  0.00  0.00    -0.453 OA
BRANCH  13  14
ATOM     14  C   UNL     1       6.240  -1.703  26.028  0.00  0.00    +0.214 A 
ATOM     15  C   UNL     1       5.991  -0.685  27.098  0.00  0.00    +0.238 A 
ATOM     16  O   UNL     1       6.872   0.078  27.477  0.00  0.00    -0.283 OA
ATOM     17  C   UNL     1       4.643  -0.619  27.683  0.00  0.00    +0.109 A 
ATOM     18  C   UNL     1       3.626  -1.322  27.046  0.00  0.00    +0.147 A 
ATOM     19  C   UNL     1       2.313  -1.245  27.519  0.00  0.00    +0.092 A 
ATOM     20  C   UNL     1       2.043  -0.479  28.648  0.00  0.00    +0.124 A 
ATOM     21  C   UNL     1       3.052   0.204  29.314  0.00  0.00    +0.091 A 
ATOM     22  O   UNL     1       3.846  -2.112  25.947  0.00  0.00    -0.451 OA
ATOM     23  C   UNL     1       4.355   0.133  28.832  0.00  0.00    +0.135 A 
ATOM     24  C   UNL     1       5.153  -2.344  25.530  0.00  0.00    +0.181 A 
BRANCH  24  25
ATOM     25  C   UNL     1       5.233  -3.428  24.508  0.00  0.00    +0.025 A 
ATOM     26  C   UNL     1       5.249  -4.778  24.924  0.00  0.00    +0.015 A 
ATOM     27  C   UNL     1       5.430  -5.821  24.006  0.00  0.00    +0.050 A 
ATOM     28  C   UNL     1       5.588  -5.517  22.666  0.00  0.00    +0.158 A 
ATOM     29  C   UNL     1       5.498  -4.204  22.223  0.00  0.00    +0.159 A 
ATOM     30  C   UNL     1       5.312  -3.163  23.129  0.00  0.00    +0.060 A 
BRANCH  29  31
ATOM     31  O   UNL     1       5.619  -3.982  20.879  0.00  0.00    -0.503 OA
ATOM     32  H   UNL     1       4.869  -3.431  20.596  0.00  0.00    +0.292 HD
ENDBRANCH  29  31
BRANCH  28  33
ATOM     33  O   UNL     1       5.837  -6.527  21.780  0.00  0.00    -0.503 OA
ATOM     34  H   UNL     1       4.961  -6.746  21.405  0.00  0.00    +0.292 HD
ENDBRANCH  28  33
ENDBRANCH  24  25
BRANCH  20  35
ATOM     35  O   UNL     1       0.783  -0.364  29.154  0.00  0.00    -0.507 OA
ATOM     36  H   UNL     1       0.773   0.327  29.838  0.00  0.00    +0.292 HD
ENDBRANCH  20  35
BRANCH  23  37
ATOM     37  O   UNL     1       5.343   0.787  29.511  0.00  0.00    -0.506 OA
ATOM     38  H   UNL     1       5.097   1.715  29.653  0.00  0.00    +0.292 HD
ENDBRANCH  23  37
ENDBRANCH  13  14
ENDBRANCH   3  13
BRANCH   1  39
ATOM     39  C   UNL     1       8.433   1.831  23.902  0.00  0.00    +0.197 C 
BRANCH  39  40
ATOM     40  O   UNL     1       8.494   3.018  23.114  0.00  0.00    -0.345 OA
BRANCH  40  44
ATOM     41  C   UNL     1       7.294   5.188  26.430  0.00  0.00    +0.246 C 
ATOM     42  C   UNL     1       6.227   5.060  25.324  0.00  0.00    +0.264 C 
ATOM     43  C   UNL     1       6.621   3.914  24.372  0.00  0.00    +0.276 C 
ATOM     44  C   UNL     1       8.055   4.171  23.842  0.00  0.00    +0.295 C 
ATOM     45  O   UNL     1       8.997   4.434  24.879  0.00  0.00    -0.344 OA
ATOM     46  C   UNL     1       8.619   5.518  25.729  0.00  0.00    +0.211 C 
BRANCH  43  47
ATOM     47  O   UNL     1       5.735   3.888  23.231  0.00  0.00    -0.452 OA
BRANCH  47  48
ATOM     48  C   UNL     1       4.687   3.020  23.315  0.00  0.00    +0.304 C 
ATOM     49  C   UNL     1       3.561   3.492  22.447  0.00  0.00    +0.136 C 
ATOM     50  O   UNL     1       4.658   2.005  23.998  0.00  0.00    -0.251 OA
ENDBRANCH  47  48
ENDBRANCH  43  47
BRANCH  42  51
ATOM     51  O   UNL     1       4.928   4.820  25.922  0.00  0.00    -0.454 OA
BRANCH  51  52
ATOM     52  C   UNL     1       4.139   5.922  26.080  0.00  0.00    +0.304 C 
ATOM     53  C   UNL     1       4.020   6.690  24.798  0.00  0.00    +0.136 C 
ATOM     54  O   UNL     1       3.601   6.265  27.124  0.00  0.00    -0.251 OA
ENDBRANCH  51  52
ENDBRANCH  42  51
BRANCH  41  55
ATOM     55  O   UNL     1       7.426   3.905  27.094  0.00  0.00    -0.455 OA
BRANCH  55  57
ATOM     56  C   UNL     1       6.648   5.229  28.863  0.00  0.00    +0.136 C 
ATOM     57  C   UNL     1       7.192   3.901  28.434  0.00  0.00    +0.304 C 
ATOM     58  O   UNL     1       7.279   2.919  29.158  0.00  0.00    -0.251 OA
ENDBRANCH  55  57
ENDBRANCH  41  55
ENDBRANCH  40  44
ENDBRANCH  39  40
ENDBRANCH   1  39
TORSDOF 19
ENDMDL
