MODEL 1
REMARK VINA RESULT:      -6.3      0.000      0.000
REMARK  Name = 
REMARK  27 active torsions:
REMARK  status: ('A' for Active; 'I' for Inactive)
REMARK    1  A    between atoms: C_1  and  C_2
REMARK    2  A    between atoms: C_3  and  O_65
REMARK    3  A    between atoms: C_4  and  O_64
REMARK    4  A    between atoms: C_5  and  O_41
REMARK    5  A    between atoms: C_6  and  O_8
REMARK    6  A    between atoms: O_8  and  C_9
REMARK    7  A    between atoms: C_10  and  C_33
REMARK    8  A    between atoms: C_14  and  O_21
REMARK    9  A    between atoms: C_16  and  O_20
REMARK   10  A    between atoms: O_21  and  C_22
REMARK   11  A    between atoms: C_23  and  O_32
REMARK   12  A    between atoms: C_24  and  O_31
REMARK   13  A    between atoms: C_25  and  O_30
REMARK   14  A    between atoms: C_26  and  C_28
REMARK   15  A    between atoms: C_28  and  O_29
REMARK   16  A    between atoms: C_35  and  O_40
REMARK   17  A    between atoms: C_36  and  O_39
REMARK   18  A    between atoms: O_41  and  C_42
REMARK   19  A    between atoms: C_43  and  O_63
REMARK   20  A    between atoms: C_44  and  O_62
REMARK   21  A    between atoms: C_45  and  O_61
REMARK   22  A    between atoms: C_46  and  C_48
REMARK   23  A    between atoms: C_48  and  O_49
REMARK   24  A    between atoms: O_49  and  C_50
REMARK   25  A    between atoms: C_50  and  C_52
REMARK   26  A    between atoms: C_53  and  C_54
REMARK   27  A    between atoms: C_57  and  O_60
REMARK                            x       y       z     vdW  Elec       q    Type
REMARK                         _______ _______ _______ _____ _____    ______ ____
ROOT
ATOM      1  O   UNL     1       7.412   1.943  26.838  0.00  0.00    -0.453 OA
ENDROOT
BRANCH   1   2
ATOM      2  C   UNL     1       6.932   0.780  26.195  0.00  0.00    +0.214 A 
ATOM      3  C   UNL     1       7.537  -0.536  26.614  0.00  0.00    +0.238 A 
ATOM      4  O   UNL     1       8.472  -0.564  27.407  0.00  0.00    -0.283 OA
ATOM      5  C   UNL     1       6.942  -1.789  26.100  0.00  0.00    +0.109 A 
ATOM      6  C   UNL     1       5.910  -1.698  25.193  0.00  0.00    +0.147 A 
ATOM      7  C   UNL     1       5.223  -2.861  24.789  0.00  0.00    +0.093 A 
ATOM      8  C   UNL     1       5.493  -4.091  25.404  0.00  0.00    +0.131 A 
ATOM      9  C   UNL     1       6.571  -4.190  26.259  0.00  0.00    +0.092 A 
ATOM     10  O   UNL     1       5.588  -0.510  24.605  0.00  0.00    -0.451 OA
ATOM     11  C   UNL     1       7.351  -3.065  26.498  0.00  0.00    +0.135 A 
ATOM     12  C   UNL     1       6.097   0.716  25.092  0.00  0.00    +0.181 A 
BRANCH  12  13
ATOM     13  C   UNL     1       5.573   1.835  24.188  0.00  0.00    +0.025 A 
ATOM     14  C   UNL     1       4.237   2.259  24.179  0.00  0.00    +0.015 A 
ATOM     15  C   UNL     1       3.792   3.325  23.376  0.00  0.00    +0.050 A 
ATOM     16  C   UNL     1       4.698   4.028  22.574  0.00  0.00    +0.158 A 
ATOM     17  C   UNL     1       6.015   3.651  22.528  0.00  0.00    +0.159 A 
ATOM     18  C   UNL     1       6.458   2.569  23.318  0.00  0.00    +0.060 A 
BRANCH  17  19
ATOM     19  O   UNL     1       6.836   4.394  21.722  0.00  0.00    -0.503 OA
ATOM     20  H   UNL     1       6.439   4.488  20.843  0.00  0.00    +0.292 HD
ENDBRANCH  17  19
BRANCH  16  21
ATOM     21  O   UNL     1       4.227   5.075  21.829  0.00  0.00    -0.503 OA
ATOM     22  H   UNL     1       4.288   5.850  22.420  0.00  0.00    +0.292 HD
ENDBRANCH  16  21
ENDBRANCH  12  13
BRANCH  11  23
ATOM     23  O   UNL     1       8.597  -3.277  27.005  0.00  0.00    -0.506 OA
ATOM     24  H   UNL     1       8.561  -3.941  27.717  0.00  0.00    +0.292 HD
ENDBRANCH  11  23
BRANCH   8  25
ATOM     25  O   UNL     1       4.875  -5.294  25.201  0.00  0.00    -0.461 OA
BRANCH  25  26
ATOM     26  C   UNL     1       3.468  -5.271  24.989  0.00  0.00    +0.339 C 
ATOM     27  O   UNL     1       2.781  -5.112  26.236  0.00  0.00    -0.331 OA
ATOM     28  C   UNL     1       2.824  -6.260  27.105  0.00  0.00    +0.179 C 
ATOM     29  C   UNL     1       2.118  -7.401  26.370  0.00  0.00    +0.177 C 
ATOM     30  C   UNL     1       2.932  -7.757  25.121  0.00  0.00    +0.180 C 
ATOM     31  C   UNL     1       3.063  -6.536  24.205  0.00  0.00    +0.214 C 
BRANCH  31  32
ATOM     32  O   UNL     1       3.981  -6.791  23.120  0.00  0.00    -0.383 OA
ATOM     33  H   UNL     1       3.763  -6.163  22.404  0.00  0.00    +0.210 HD
ENDBRANCH  31  32
BRANCH  30  34
ATOM     34  O   UNL     1       2.287  -8.824  24.416  0.00  0.00    -0.386 OA
ATOM     35  H   UNL     1       1.783  -9.331  25.082  0.00  0.00    +0.210 HD
ENDBRANCH  30  34
BRANCH  29  36
ATOM     36  O   UNL     1       0.807  -6.976  25.949  0.00  0.00    -0.386 OA
ATOM     37  H   UNL     1       0.259  -6.878  26.756  0.00  0.00    +0.210 HD
ENDBRANCH  29  36
BRANCH  28  38
ATOM     38  C   UNL     1       2.104  -5.882  28.410  0.00  0.00    +0.190 C 
BRANCH  38  39
ATOM     39  O   UNL     1       0.757  -5.477  28.151  0.00  0.00    -0.392 OA
ATOM     40  H   UNL     1       0.346  -5.231  28.995  0.00  0.00    +0.210 HD
ENDBRANCH  38  39
ENDBRANCH  28  38
ENDBRANCH  25  26
ENDBRANCH   8  25
ENDBRANCH   1   2
BRANCH   1  44
ATOM     41  C   UNL     1       4.640   2.079  30.371  0.00  0.00    +0.041 C 
ATOM     42  C   UNL     1       4.633   2.964  29.115  0.00  0.00    +0.150 C 
ATOM     43  O   UNL     1       5.391   2.418  28.018  0.00  0.00    -0.334 OA
ATOM     44  C   UNL     1       6.832   2.401  28.142  0.00  0.00    +0.340 C 
ATOM     45  C   UNL     1       7.359   3.817  28.641  0.00  0.00    +0.221 C 
ATOM     46  C   UNL     1       6.524   4.406  29.819  0.00  0.00    +0.180 C 
ATOM     47  C   UNL     1       5.035   4.404  29.439  0.00  0.00    +0.174 C 
BRANCH  47  48
ATOM     48  O   UNL     1       4.189   4.951  30.460  0.00  0.00    -0.387 OA
ATOM     49  H   UNL     1       4.101   4.301  31.180  0.00  0.00    +0.210 HD
ENDBRANCH  47  48
BRANCH  46  50
ATOM     50  O   UNL     1       6.910   5.768  30.117  0.00  0.00    -0.386 OA
ATOM     51  H   UNL     1       7.217   6.138  29.266  0.00  0.00    +0.210 HD
ENDBRANCH  46  50
BRANCH  45  52
ATOM     52  O   UNL     1       7.266   4.895  27.687  0.00  0.00    -0.337 OA
BRANCH  52  53
ATOM     53  C   UNL     1       7.310   4.524  26.316  0.00  0.00    +0.282 C 
ATOM     54  O   UNL     1       8.512   4.940  25.670  0.00  0.00    -0.339 OA
ATOM     55  C   UNL     1       8.718   6.371  25.697  0.00  0.00    +0.190 C 
ATOM     56  C   UNL     1       7.604   7.060  24.892  0.00  0.00    +0.178 C 
ATOM     57  C   UNL     1       6.223   6.656  25.447  0.00  0.00    +0.179 C 
ATOM     58  C   UNL     1       6.072   5.133  25.619  0.00  0.00    +0.201 C 
BRANCH  58  59
ATOM     59  O   UNL     1       4.865   4.856  26.356  0.00  0.00    -0.384 OA
ATOM     60  H   UNL     1       4.122   5.165  25.805  0.00  0.00    +0.210 HD
ENDBRANCH  58  59
BRANCH  57  61
ATOM     61  O   UNL     1       5.178   7.091  24.550  0.00  0.00    -0.386 OA
ATOM     62  H   UNL     1       5.044   8.048  24.676  0.00  0.00    +0.210 HD
ENDBRANCH  57  61
BRANCH  56  63
ATOM     63  O   UNL     1       7.672   6.729  23.499  0.00  0.00    -0.386 OA
ATOM     64  H   UNL     1       7.944   7.533  23.012  0.00  0.00    +0.210 HD
ENDBRANCH  56  63
BRANCH  55  65
ATOM     65  C   UNL     1      10.159   6.676  25.255  0.00  0.00    +0.266 C 
BRANCH  65  66
ATOM     66  O   UNL     1      10.877   5.444  24.911  0.00  0.00    -0.459 OA
BRANCH  66  67
ATOM     67  C   UNL     1      11.317   5.236  23.653  0.00  0.00    +0.332 C 
ATOM     68  O   UNL     1      11.764   6.100  22.928  0.00  0.00    -0.246 OA
BRANCH  67  69
ATOM     69  C   UNL     1      11.184   3.787  23.297  0.00  0.00    +0.092 C 
ATOM     70  C   UNL     1      10.239   2.928  23.757  0.00  0.00    +0.015 C 
BRANCH  70  71
ATOM     71  C   UNL     1      10.068   1.512  23.283  0.00  0.00    -0.025 A 
ATOM     72  C   UNL     1       9.831   1.132  21.952  0.00  0.00    +0.011 A 
ATOM     73  C   UNL     1       9.680  -0.231  21.598  0.00  0.00    +0.046 A 
ATOM     74  C   UNL     1       9.750  -1.226  22.566  0.00  0.00    +0.117 A 
ATOM     75  C   UNL     1      10.006  -0.879  23.881  0.00  0.00    +0.046 A 
ATOM     76  C   UNL     1      10.223   0.467  24.193  0.00  0.00    +0.011 A 
BRANCH  74  77
ATOM     77  O   UNL     1       9.587  -2.557  22.208  0.00  0.00    -0.507 OA
ATOM     78  H   UNL     1       8.667  -2.666  21.907  0.00  0.00    +0.292 HD
ENDBRANCH  74  77
ENDBRANCH  70  71
ENDBRANCH  67  69
ENDBRANCH  66  67
ENDBRANCH  65  66
ENDBRANCH  55  65
ENDBRANCH  52  53
ENDBRANCH  45  52
ENDBRANCH   1  44
TORSDOF 26
ENDMDL
MODEL 2
REMARK VINA RESULT:      -5.9      2.139      4.574
REMARK  Name = 
REMARK  27 active torsions:
REMARK  status: ('A' for Active; 'I' for Inactive)
REMARK    1  A    between atoms: C_1  and  C_2
REMARK    2  A    between atoms: C_3  and  O_65
REMARK    3  A    between atoms: C_4  and  O_64
REMARK    4  A    between atoms: C_5  and  O_41
REMARK    5  A    between atoms: C_6  and  O_8
REMARK    6  A    between atoms: O_8  and  C_9
REMARK    7  A    between atoms: C_10  and  C_33
REMARK    8  A    between atoms: C_14  and  O_21
REMARK    9  A    between atoms: C_16  and  O_20
REMARK   10  A    between atoms: O_21  and  C_22
REMARK   11  A    between atoms: C_23  and  O_32
REMARK   12  A    between atoms: C_24  and  O_31
REMARK   13  A    between atoms: C_25  and  O_30
REMARK   14  A    between atoms: C_26  and  C_28
REMARK   15  A    between atoms: C_28  and  O_29
REMARK   16  A    between atoms: C_35  and  O_40
REMARK   17  A    between atoms: C_36  and  O_39
REMARK   18  A    between atoms: O_41  and  C_42
REMARK   19  A    between atoms: C_43  and  O_63
REMARK   20  A    between atoms: C_44  and  O_62
REMARK   21  A    between atoms: C_45  and  O_61
REMARK   22  A    between atoms: C_46  and  C_48
REMARK   23  A    between atoms: C_48  and  O_49
REMARK   24  A    between atoms: O_49  and  C_50
REMARK   25  A    between atoms: C_50  and  C_52
REMARK   26  A    between atoms: C_53  and  C_54
REMARK   27  A    between atoms: C_57  and  O_60
REMARK                            x       y       z     vdW  Elec       q    Type
REMARK                         _______ _______ _______ _____ _____    ______ ____
ROOT
ATOM      1  O   UNL     1       3.857   2.481  26.573  0.00  0.00    -0.453 OA
ENDROOT
BRANCH   1   2
ATOM      2  C   UNL     1       3.780   1.075  26.706  0.00  0.00    +0.214 A 
ATOM      3  C   UNL     1       2.562   0.516  27.395  0.00  0.00    +0.238 A 
ATOM      4  O   UNL     1       1.735   1.268  27.899  0.00  0.00    -0.283 OA
ATOM      5  C   UNL     1       2.354  -0.949  27.396  0.00  0.00    +0.109 A 
ATOM      6  C   UNL     1       3.328  -1.746  26.838  0.00  0.00    +0.147 A 
ATOM      7  C   UNL     1       3.105  -3.131  26.691  0.00  0.00    +0.093 A 
ATOM      8  C   UNL     1       1.849  -3.680  26.984  0.00  0.00    +0.131 A 
ATOM      9  C   UNL     1       0.903  -2.892  27.606  0.00  0.00    +0.092 A 
ATOM     10  O   UNL     1       4.549  -1.241  26.498  0.00  0.00    -0.451 OA
ATOM     11  C   UNL     1       1.215  -1.573  27.912  0.00  0.00    +0.135 A 
ATOM     12  C   UNL     1       4.778   0.153  26.439  0.00  0.00    +0.181 A 
BRANCH  12  13
ATOM     13  C   UNL     1       6.248   0.372  26.068  0.00  0.00    +0.025 A 
ATOM     14  C   UNL     1       6.863   1.631  26.059  0.00  0.00    +0.015 A 
ATOM     15  C   UNL     1       8.228   1.799  25.766  0.00  0.00    +0.050 A 
ATOM     16  C   UNL     1       9.033   0.684  25.503  0.00  0.00    +0.158 A 
ATOM     17  C   UNL     1       8.487  -0.572  25.482  0.00  0.00    +0.159 A 
ATOM     18  C   UNL     1       7.113  -0.739  25.757  0.00  0.00    +0.060 A 
BRANCH  17  19
ATOM     19  O   UNL     1       9.344  -1.608  25.222  0.00  0.00    -0.503 OA
ATOM     20  H   UNL     1       9.025  -2.417  25.650  0.00  0.00    +0.292 HD
ENDBRANCH  17  19
BRANCH  16  21
ATOM     21  O   UNL     1      10.362   0.891  25.248  0.00  0.00    -0.503 OA
ATOM     22  H   UNL     1      10.827   0.506  26.016  0.00  0.00    +0.292 HD
ENDBRANCH  16  21
ENDBRANCH  12  13
BRANCH  11  23
ATOM     23  O   UNL     1       0.443  -0.960  28.851  0.00  0.00    -0.506 OA
ATOM     24  H   UNL     1      -0.453  -0.807  28.502  0.00  0.00    +0.292 HD
ENDBRANCH  11  23
BRANCH   8  25
ATOM     25  O   UNL     1       1.430  -4.972  26.826  0.00  0.00    -0.461 OA
BRANCH  25  26
ATOM     26  C   UNL     1       2.434  -5.954  26.600  0.00  0.00    +0.339 C 
ATOM     27  O   UNL     1       2.618  -6.162  25.194  0.00  0.00    -0.331 OA
ATOM     28  C   UNL     1       1.535  -6.842  24.533  0.00  0.00    +0.179 C 
ATOM     29  C   UNL     1       1.433  -8.234  25.161  0.00  0.00    +0.177 C 
ATOM     30  C   UNL     1       1.031  -8.079  26.633  0.00  0.00    +0.180 C 
ATOM     31  C   UNL     1       2.065  -7.231  27.381  0.00  0.00    +0.214 C 
BRANCH  31  32
ATOM     32  O   UNL     1       1.616  -6.913  28.715  0.00  0.00    -0.383 OA
ATOM     33  H   UNL     1       1.863  -7.662  29.290  0.00  0.00    +0.210 HD
ENDBRANCH  31  32
BRANCH  30  34
ATOM     34  O   UNL     1       0.933  -9.371  27.242  0.00  0.00    -0.386 OA
ATOM     35  H   UNL     1       1.612  -9.931  26.816  0.00  0.00    +0.210 HD
ENDBRANCH  30  34
BRANCH  29  36
ATOM     36  O   UNL     1       2.716  -8.888  25.110  0.00  0.00    -0.386 OA
ATOM     37  H   UNL     1       3.398  -8.188  25.051  0.00  0.00    +0.210 HD
ENDBRANCH  29  36
BRANCH  28  38
ATOM     38  C   UNL     1       1.873  -6.910  23.035  0.00  0.00    +0.190 C 
BRANCH  38  39
ATOM     39  O   UNL     1       1.672  -8.230  22.525  0.00  0.00    -0.392 OA
ATOM     40  H   UNL     1       1.301  -8.159  21.631  0.00  0.00    +0.210 HD
ENDBRANCH  38  39
ENDBRANCH  28  38
ENDBRANCH  25  26
ENDBRANCH   8  25
ENDBRANCH   1   2
BRANCH   1  44
ATOM     41  C   UNL     1       1.657   3.015  22.694  0.00  0.00    +0.041 C 
ATOM     42  C   UNL     1       3.168   3.098  22.955  0.00  0.00    +0.150 C 
ATOM     43  O   UNL     1       3.573   2.502  24.203  0.00  0.00    -0.334 OA
ATOM     44  C   UNL     1       3.205   3.185  25.423  0.00  0.00    +0.340 C 
ATOM     45  C   UNL     1       3.551   4.735  25.312  0.00  0.00    +0.221 C 
ATOM     46  C   UNL     1       3.121   5.368  23.953  0.00  0.00    +0.180 C 
ATOM     47  C   UNL     1       3.689   4.528  22.799  0.00  0.00    +0.174 C 
BRANCH  47  48
ATOM     48  O   UNL     1       3.360   5.050  21.504  0.00  0.00    -0.387 OA
ATOM     49  H   UNL     1       3.609   5.991  21.468  0.00  0.00    +0.210 HD
ENDBRANCH  47  48
BRANCH  46  50
ATOM     50  O   UNL     1       3.619   6.719  23.814  0.00  0.00    -0.386 OA
ATOM     51  H   UNL     1       3.731   6.851  22.852  0.00  0.00    +0.210 HD
ENDBRANCH  46  50
BRANCH  45  52
ATOM     52  O   UNL     1       4.954   5.069  25.327  0.00  0.00    -0.337 OA
BRANCH  52  53
ATOM     53  C   UNL     1       5.313   6.234  26.057  0.00  0.00    +0.282 C 
ATOM     54  O   UNL     1       6.312   7.012  25.398  0.00  0.00    -0.339 OA
ATOM     55  C   UNL     1       7.547   6.295  25.170  0.00  0.00    +0.190 C 
ATOM     56  C   UNL     1       8.184   5.937  26.522  0.00  0.00    +0.178 C 
ATOM     57  C   UNL     1       7.188   5.130  27.379  0.00  0.00    +0.179 C 
ATOM     58  C   UNL     1       5.798   5.788  27.455  0.00  0.00    +0.201 C 
BRANCH  58  59
ATOM     59  O   UNL     1       4.869   4.869  28.063  0.00  0.00    -0.384 OA
ATOM     60  H   UNL     1       4.028   4.955  27.577  0.00  0.00    +0.210 HD
ENDBRANCH  58  59
BRANCH  57  61
ATOM     61  O   UNL     1       7.678   5.009  28.732  0.00  0.00    -0.386 OA
ATOM     62  H   UNL     1       8.633   4.816  28.697  0.00  0.00    +0.210 HD
ENDBRANCH  57  61
BRANCH  56  63
ATOM     63  O   UNL     1       8.594   7.106  27.242  0.00  0.00    -0.386 OA
ATOM     64  H   UNL     1       9.508   7.323  26.968  0.00  0.00    +0.210 HD
ENDBRANCH  56  63
BRANCH  55  65
ATOM     65  C   UNL     1       8.424   7.107  24.202  0.00  0.00    +0.266 C 
BRANCH  65  66
ATOM     66  O   UNL     1       8.314   6.593  22.833  0.00  0.00    -0.459 OA
BRANCH  66  67
ATOM     67  C   UNL     1       7.152   6.071  22.389  0.00  0.00    +0.332 C 
ATOM     68  O   UNL     1       6.125   6.701  22.239  0.00  0.00    -0.246 OA
BRANCH  67  69
ATOM     69  C   UNL     1       7.325   4.612  22.097  0.00  0.00    +0.092 C 
ATOM     70  C   UNL     1       8.345   3.821  22.516  0.00  0.00    +0.015 C 
BRANCH  70  71
ATOM     71  C   UNL     1       8.420   2.336  22.303  0.00  0.00    -0.025 A 
ATOM     72  C   UNL     1       7.319   1.464  22.319  0.00  0.00    +0.011 A 
ATOM     73  C   UNL     1       7.486   0.074  22.109  0.00  0.00    +0.046 A 
ATOM     74  C   UNL     1       8.750  -0.464  21.896  0.00  0.00    +0.117 A 
ATOM     75  C   UNL     1       9.848   0.378  21.851  0.00  0.00    +0.046 A 
ATOM     76  C   UNL     1       9.648   1.755  21.990  0.00  0.00    +0.011 A 
BRANCH  74  77
ATOM     77  O   UNL     1       8.902  -1.830  21.704  0.00  0.00    -0.507 OA
ATOM     78  H   UNL     1       8.019  -2.195  21.511  0.00  0.00    +0.292 HD
ENDBRANCH  74  77
ENDBRANCH  70  71
ENDBRANCH  67  69
ENDBRANCH  66  67
ENDBRANCH  65  66
ENDBRANCH  55  65
ENDBRANCH  52  53
ENDBRANCH  45  52
ENDBRANCH   1  44
TORSDOF 26
ENDMDL
MODEL 3
REMARK VINA RESULT:      -5.9      1.304      2.385
REMARK  Name = 
REMARK  27 active torsions:
REMARK  status: ('A' for Active; 'I' for Inactive)
REMARK    1  A    between atoms: C_1  and  C_2
REMARK    2  A    between atoms: C_3  and  O_65
REMARK    3  A    between atoms: C_4  and  O_64
REMARK    4  A    between atoms: C_5  and  O_41
REMARK    5  A    between atoms: C_6  and  O_8
REMARK    6  A    between atoms: O_8  and  C_9
REMARK    7  A    between atoms: C_10  and  C_33
REMARK    8  A    between atoms: C_14  and  O_21
REMARK    9  A    between atoms: C_16  and  O_20
REMARK   10  A    between atoms: O_21  and  C_22
REMARK   11  A    between atoms: C_23  and  O_32
REMARK   12  A    between atoms: C_24  and  O_31
REMARK   13  A    between atoms: C_25  and  O_30
REMARK   14  A    between atoms: C_26  and  C_28
REMARK   15  A    between atoms: C_28  and  O_29
REMARK   16  A    between atoms: C_35  and  O_40
REMARK   17  A    between atoms: C_36  and  O_39
REMARK   18  A    between atoms: O_41  and  C_42
REMARK   19  A    between atoms: C_43  and  O_63
REMARK   20  A    between atoms: C_44  and  O_62
REMARK   21  A    between atoms: C_45  and  O_61
REMARK   22  A    between atoms: C_46  and  C_48
REMARK   23  A    between atoms: C_48  and  O_49
REMARK   24  A    between atoms: O_49  and  C_50
REMARK   25  A    between atoms: C_50  and  C_52
REMARK   26  A    between atoms: C_53  and  C_54
REMARK   27  A    between atoms: C_57  and  O_60
REMARK                            x       y       z     vdW  Elec       q    Type
REMARK                         _______ _______ _______ _____ _____    ______ ____
ROOT
ATOM      1  O   UNL     1       7.443   2.244  26.597  0.00  0.00    -0.453 OA
ENDROOT
BRANCH   1   2
ATOM      2  C   UNL     1       6.909   1.024  26.122  0.00  0.00    +0.214 A 
ATOM      3  C   UNL     1       7.558  -0.246  26.609  0.00  0.00    +0.238 A 
ATOM      4  O   UNL     1       8.566  -0.200  27.306  0.00  0.00    -0.283 OA
ATOM      5  C   UNL     1       6.922  -1.542  26.283  0.00  0.00    +0.109 A 
ATOM      6  C   UNL     1       5.806  -1.536  25.476  0.00  0.00    +0.147 A 
ATOM      7  C   UNL     1       5.089  -2.730  25.258  0.00  0.00    +0.093 A 
ATOM      8  C   UNL     1       5.424  -3.894  25.963  0.00  0.00    +0.131 A 
ATOM      9  C   UNL     1       6.580  -3.913  26.714  0.00  0.00    +0.092 A 
ATOM     10  O   UNL     1       5.422  -0.410  24.807  0.00  0.00    -0.451 OA
ATOM     11  C   UNL     1       7.374  -2.774  26.763  0.00  0.00    +0.135 A 
ATOM     12  C   UNL     1       5.970   0.855  25.118  0.00  0.00    +0.181 A 
BRANCH  12  13
ATOM     13  C   UNL     1       5.355   1.881  24.163  0.00  0.00    +0.025 A 
ATOM     14  C   UNL     1       6.008   2.359  23.018  0.00  0.00    +0.015 A 
ATOM     15  C   UNL     1       5.399   3.262  22.128  0.00  0.00    +0.050 A 
ATOM     16  C   UNL     1       4.085   3.691  22.349  0.00  0.00    +0.158 A 
ATOM     17  C   UNL     1       3.401   3.271  23.459  0.00  0.00    +0.159 A 
ATOM     18  C   UNL     1       4.017   2.380  24.363  0.00  0.00    +0.060 A 
BRANCH  17  19
ATOM     19  O   UNL     1       2.119   3.733  23.598  0.00  0.00    -0.503 OA
ATOM     20  H   UNL     1       1.515   2.990  23.752  0.00  0.00    +0.292 HD
ENDBRANCH  17  19
BRANCH  16  21
ATOM     21  O   UNL     1       3.523   4.550  21.444  0.00  0.00    -0.503 OA
ATOM     22  H   UNL     1       3.956   4.337  20.595  0.00  0.00    +0.292 HD
ENDBRANCH  16  21
ENDBRANCH  12  13
BRANCH  11  23
ATOM     23  O   UNL     1       8.665  -2.940  27.165  0.00  0.00    -0.506 OA
ATOM     24  H   UNL     1       9.275  -2.651  26.463  0.00  0.00    +0.292 HD
ENDBRANCH  11  23
BRANCH   8  25
ATOM     25  O   UNL     1       4.795  -5.109  25.942  0.00  0.00    -0.461 OA
BRANCH  25  26
ATOM     26  C   UNL     1       5.362  -6.115  25.111  0.00  0.00    +0.339 C 
ATOM     27  O   UNL     1       6.294  -5.533  24.190  0.00  0.00    -0.331 OA
ATOM     28  C   UNL     1       5.701  -4.737  23.148  0.00  0.00    +0.179 C 
ATOM     29  C   UNL     1       4.814  -5.671  22.323  0.00  0.00    +0.177 C 
ATOM     30  C   UNL     1       3.667  -6.167  23.212  0.00  0.00    +0.180 C 
ATOM     31  C   UNL     1       4.221  -6.903  24.436  0.00  0.00    +0.214 C 
BRANCH  31  32
ATOM     32  O   UNL     1       3.174  -7.212  25.380  0.00  0.00    -0.383 OA
ATOM     33  H   UNL     1       3.602  -7.589  26.173  0.00  0.00    +0.210 HD
ENDBRANCH  31  32
BRANCH  30  34
ATOM     34  O   UNL     1       2.823  -7.047  22.459  0.00  0.00    -0.386 OA
ATOM     35  H   UNL     1       2.868  -6.747  21.530  0.00  0.00    +0.210 HD
ENDBRANCH  30  34
BRANCH  29  36
ATOM     36  O   UNL     1       5.576  -6.815  21.890  0.00  0.00    -0.386 OA
ATOM     37  H   UNL     1       4.942  -7.471  21.535  0.00  0.00    +0.210 HD
ENDBRANCH  29  36
BRANCH  28  38
ATOM     38  C   UNL     1       6.845  -4.142  22.310  0.00  0.00    +0.190 C 
BRANCH  38  39
ATOM     39  O   UNL     1       6.728  -2.720  22.222  0.00  0.00    -0.392 OA
ATOM     40  H   UNL     1       6.805  -2.465  21.289  0.00  0.00    +0.210 HD
ENDBRANCH  38  39
ENDBRANCH  28  38
ENDBRANCH  25  26
ENDBRANCH   8  25
ENDBRANCH   1   2
BRANCH   1  44
ATOM     41  C   UNL     1       4.771   2.936  30.141  0.00  0.00    +0.041 C 
ATOM     42  C   UNL     1       4.755   3.645  28.778  0.00  0.00    +0.150 C 
ATOM     43  O   UNL     1       5.468   2.935  27.748  0.00  0.00    -0.334 OA
ATOM     44  C   UNL     1       6.911   2.888  27.841  0.00  0.00    +0.340 C 
ATOM     45  C   UNL     1       7.491   4.342  28.134  0.00  0.00    +0.221 C 
ATOM     46  C   UNL     1       6.704   5.108  29.241  0.00  0.00    +0.180 C 
ATOM     47  C   UNL     1       5.207   5.103  28.898  0.00  0.00    +0.174 C 
BRANCH  47  48
ATOM     48  O   UNL     1       4.404   5.807  29.855  0.00  0.00    -0.387 OA
ATOM     49  H   UNL     1       3.613   6.157  29.409  0.00  0.00    +0.210 HD
ENDBRANCH  47  48
BRANCH  46  50
ATOM     50  O   UNL     1       7.137   6.484  29.345  0.00  0.00    -0.386 OA
ATOM     51  H   UNL     1       7.577   6.678  28.495  0.00  0.00    +0.210 HD
ENDBRANCH  46  50
BRANCH  45  52
ATOM     52  O   UNL     1       7.403   5.285  27.047  0.00  0.00    -0.337 OA
BRANCH  52  53
ATOM     53  C   UNL     1       7.577   4.754  25.740  0.00  0.00    +0.282 C 
ATOM     54  O   UNL     1       8.830   5.116  25.160  0.00  0.00    -0.339 OA
ATOM     55  C   UNL     1       9.016   6.544  25.032  0.00  0.00    +0.190 C 
ATOM     56  C   UNL     1       7.974   7.107  24.052  0.00  0.00    +0.178 C 
ATOM     57  C   UNL     1       6.552   6.742  24.525  0.00  0.00    +0.179 C 
ATOM     58  C   UNL     1       6.403   5.248  24.866  0.00  0.00    +0.201 C 
BRANCH  58  59
ATOM     59  O   UNL     1       5.136   5.034  25.519  0.00  0.00    -0.384 OA
ATOM     60  H   UNL     1       4.444   5.270  24.873  0.00  0.00    +0.210 HD
ENDBRANCH  58  59
BRANCH  57  61
ATOM     61  O   UNL     1       5.590   7.044  23.491  0.00  0.00    -0.386 OA
ATOM     62  H   UNL     1       4.945   6.314  23.449  0.00  0.00    +0.210 HD
ENDBRANCH  57  61
BRANCH  56  63
ATOM     63  O   UNL     1       8.175   6.614  22.721  0.00  0.00    -0.386 OA
ATOM     64  H   UNL     1       8.018   7.353  22.100  0.00  0.00    +0.210 HD
ENDBRANCH  56  63
BRANCH  55  65
ATOM     65  C   UNL     1      10.489   6.826  24.688  0.00  0.00    +0.266 C 
BRANCH  65  66
ATOM     66  O   UNL     1      11.271   5.586  24.665  0.00  0.00    -0.459 OA
BRANCH  66  67
ATOM     67  C   UNL     1      11.932   5.214  23.549  0.00  0.00    +0.332 C 
ATOM     68  O   UNL     1      12.635   5.947  22.887  0.00  0.00    -0.246 OA
BRANCH  67  69
ATOM     69  C   UNL     1      11.677   3.765  23.263  0.00  0.00    +0.092 C 
ATOM     70  C   UNL     1      10.523   3.089  23.493  0.00  0.00    +0.015 C 
BRANCH  70  71
ATOM     71  C   UNL     1      10.269   1.666  23.081  0.00  0.00    -0.025 A 
ATOM     72  C   UNL     1      10.484   0.542  23.895  0.00  0.00    +0.011 A 
ATOM     73  C   UNL     1      10.217  -0.765  23.421  0.00  0.00    +0.046 A 
ATOM     74  C   UNL     1       9.746  -0.966  22.128  0.00  0.00    +0.117 A 
ATOM     75  C   UNL     1       9.504   0.127  21.314  0.00  0.00    +0.046 A 
ATOM     76  C   UNL     1       9.707   1.410  21.831  0.00  0.00    +0.011 A 
BRANCH  74  77
ATOM     77  O   UNL     1       9.501  -2.254  21.670  0.00  0.00    -0.507 OA
ATOM     78  H   UNL     1      10.327  -2.581  21.271  0.00  0.00    +0.292 HD
ENDBRANCH  74  77
ENDBRANCH  70  71
ENDBRANCH  67  69
ENDBRANCH  66  67
ENDBRANCH  65  66
ENDBRANCH  55  65
ENDBRANCH  52  53
ENDBRANCH  45  52
ENDBRANCH   1  44
TORSDOF 26
ENDMDL
MODEL 4
REMARK VINA RESULT:      -5.8      1.946      3.982
REMARK  Name = 
REMARK  27 active torsions:
REMARK  status: ('A' for Active; 'I' for Inactive)
REMARK    1  A    between atoms: C_1  and  C_2
REMARK    2  A    between atoms: C_3  and  O_65
REMARK    3  A    between atoms: C_4  and  O_64
REMARK    4  A    between atoms: C_5  and  O_41
REMARK    5  A    between atoms: C_6  and  O_8
REMARK    6  A    between atoms: O_8  and  C_9
REMARK    7  A    between atoms: C_10  and  C_33
REMARK    8  A    between atoms: C_14  and  O_21
REMARK    9  A    between atoms: C_16  and  O_20
REMARK   10  A    between atoms: O_21  and  C_22
REMARK   11  A    between atoms: C_23  and  O_32
REMARK   12  A    between atoms: C_24  and  O_31
REMARK   13  A    between atoms: C_25  and  O_30
REMARK   14  A    between atoms: C_26  and  C_28
REMARK   15  A    between atoms: C_28  and  O_29
REMARK   16  A    between atoms: C_35  and  O_40
REMARK   17  A    between atoms: C_36  and  O_39
REMARK   18  A    between atoms: O_41  and  C_42
REMARK   19  A    between atoms: C_43  and  O_63
REMARK   20  A    between atoms: C_44  and  O_62
REMARK   21  A    between atoms: C_45  and  O_61
REMARK   22  A    between atoms: C_46  and  C_48
REMARK   23  A    between atoms: C_48  and  O_49
REMARK   24  A    between atoms: O_49  and  C_50
REMARK   25  A    between atoms: C_50  and  C_52
REMARK   26  A    between atoms: C_53  and  C_54
REMARK   27  A    between atoms: C_57  and  O_60
REMARK                            x       y       z     vdW  Elec       q    Type
REMARK                         _______ _______ _______ _____ _____    ______ ____
ROOT
ATOM      1  O   UNL     1       4.583   2.950  25.944  0.00  0.00    -0.453 OA
ENDROOT
BRANCH   1   2
ATOM      2  C   UNL     1       4.542   1.543  26.065  0.00  0.00    +0.214 A 
ATOM      3  C   UNL     1       3.950   0.979  27.331  0.00  0.00    +0.238 A 
ATOM      4  O   UNL     1       3.617   1.725  28.246  0.00  0.00    -0.283 OA
ATOM      5  C   UNL     1       3.722  -0.480  27.423  0.00  0.00    +0.109 A 
ATOM      6  C   UNL     1       4.138  -1.272  26.376  0.00  0.00    +0.147 A 
ATOM      7  C   UNL     1       3.814  -2.645  26.360  0.00  0.00    +0.093 A 
ATOM      8  C   UNL     1       2.957  -3.180  27.331  0.00  0.00    +0.131 A 
ATOM      9  C   UNL     1       2.600  -2.401  28.412  0.00  0.00    +0.092 A 
ATOM     10  O   UNL     1       4.938  -0.777  25.387  0.00  0.00    -0.451 OA
ATOM     11  C   UNL     1       3.088  -1.103  28.501  0.00  0.00    +0.135 A 
ATOM     12  C   UNL     1       5.146   0.612  25.235  0.00  0.00    +0.181 A 
BRANCH  12  13
ATOM     13  C   UNL     1       6.114   0.817  24.067  0.00  0.00    +0.025 A 
ATOM     14  C   UNL     1       6.657  -0.238  23.319  0.00  0.00    +0.015 A 
ATOM     15  C   UNL     1       7.503  -0.020  22.218  0.00  0.00    +0.050 A 
ATOM     16  C   UNL     1       7.805   1.284  21.808  0.00  0.00    +0.158 A 
ATOM     17  C   UNL     1       7.318   2.357  22.509  0.00  0.00    +0.159 A 
ATOM     18  C   UNL     1       6.485   2.139  23.626  0.00  0.00    +0.060 A 
BRANCH  17  19
ATOM     19  O   UNL     1       7.657   3.598  22.040  0.00  0.00    -0.503 OA
ATOM     20  H   UNL     1       7.093   3.832  21.287  0.00  0.00    +0.292 HD
ENDBRANCH  17  19
BRANCH  16  21
ATOM     21  O   UNL     1       8.612   1.450  20.716  0.00  0.00    -0.503 OA
ATOM     22  H   UNL     1       9.290   0.752  20.798  0.00  0.00    +0.292 HD
ENDBRANCH  16  21
ENDBRANCH  12  13
BRANCH  11  23
ATOM     23  O   UNL     1       3.052  -0.516  29.729  0.00  0.00    -0.506 OA
ATOM     24  H   UNL     1       2.532  -1.060  30.347  0.00  0.00    +0.292 HD
ENDBRANCH  11  23
BRANCH   8  25
ATOM     25  O   UNL     1       2.472  -4.456  27.425  0.00  0.00    -0.461 OA
BRANCH  25  26
ATOM     26  C   UNL     1       3.350  -5.510  27.048  0.00  0.00    +0.339 C 
ATOM     27  O   UNL     1       3.464  -5.576  25.621  0.00  0.00    -0.331 OA
ATOM     28  C   UNL     1       2.290  -6.054  24.939  0.00  0.00    +0.179 C 
ATOM     29  C   UNL     1       2.050  -7.488  25.415  0.00  0.00    +0.177 C 
ATOM     30  C   UNL     1       1.716  -7.457  26.911  0.00  0.00    +0.180 C 
ATOM     31  C   UNL     1       2.863  -6.819  27.701  0.00  0.00    +0.214 C 
BRANCH  31  32
ATOM     32  O   UNL     1       2.496  -6.607  29.080  0.00  0.00    -0.383 OA
ATOM     33  H   UNL     1       1.620  -6.175  29.083  0.00  0.00    +0.210 HD
ENDBRANCH  31  32
BRANCH  30  34
ATOM     34  O   UNL     1       1.490  -8.792  27.379  0.00  0.00    -0.386 OA
ATOM     35  H   UNL     1       1.891  -9.390  26.717  0.00  0.00    +0.210 HD
ENDBRANCH  30  34
BRANCH  29  36
ATOM     36  O   UNL     1       3.247  -8.269  25.236  0.00  0.00    -0.386 OA
ATOM     37  H   UNL     1       3.742  -7.877  24.487  0.00  0.00    +0.210 HD
ENDBRANCH  29  36
BRANCH  28  38
ATOM     38  C   UNL     1       2.570  -5.988  23.429  0.00  0.00    +0.190 C 
BRANCH  38  39
ATOM     39  O   UNL     1       3.908  -6.399  23.139  0.00  0.00    -0.392 OA
ATOM     40  H   UNL     1       4.462  -6.201  23.911  0.00  0.00    +0.210 HD
ENDBRANCH  38  39
ENDBRANCH  28  38
ENDBRANCH  25  26
ENDBRANCH   8  25
ENDBRANCH   1   2
BRANCH   1  44
ATOM     41  C   UNL     1       1.430   3.546  22.800  0.00  0.00    +0.041 C 
ATOM     42  C   UNL     1       2.956   3.512  22.630  0.00  0.00    +0.150 C 
ATOM     43  O   UNL     1       3.651   2.923  23.746  0.00  0.00    -0.334 OA
ATOM     44  C   UNL     1       3.687   3.671  24.983  0.00  0.00    +0.340 C 
ATOM     45  C   UNL     1       4.097   5.183  24.701  0.00  0.00    +0.221 C 
ATOM     46  C   UNL     1       3.350   5.807  23.483  0.00  0.00    +0.180 C 
ATOM     47  C   UNL     1       3.512   4.889  22.262  0.00  0.00    +0.174 C 
BRANCH  47  48
ATOM     48  O   UNL     1       2.872   5.397  21.083  0.00  0.00    -0.387 OA
ATOM     49  H   UNL     1       2.369   4.678  20.661  0.00  0.00    +0.210 HD
ENDBRANCH  47  48
BRANCH  46  50
ATOM     50  O   UNL     1       3.882   7.108  23.141  0.00  0.00    -0.386 OA
ATOM     51  H   UNL     1       3.105   7.643  22.888  0.00  0.00    +0.210 HD
ENDBRANCH  46  50
BRANCH  45  52
ATOM     52  O   UNL     1       5.467   5.401  24.310  0.00  0.00    -0.337 OA
BRANCH  52  53
ATOM     53  C   UNL     1       6.135   6.484  24.944  0.00  0.00    +0.282 C 
ATOM     54  O   UNL     1       7.431   6.728  24.398  0.00  0.00    -0.339 OA
ATOM     55  C   UNL     1       8.326   5.598  24.505  0.00  0.00    +0.190 C 
ATOM     56  C   UNL     1       8.596   5.301  25.989  0.00  0.00    +0.178 C 
ATOM     57  C   UNL     1       7.264   5.066  26.732  0.00  0.00    +0.179 C 
ATOM     58  C   UNL     1       6.225   6.168  26.454  0.00  0.00    +0.201 C 
BRANCH  58  59
ATOM     59  O   UNL     1       4.948   5.760  26.982  0.00  0.00    -0.384 OA
ATOM     60  H   UNL     1       5.117   5.001  27.572  0.00  0.00    +0.210 HD
ENDBRANCH  58  59
BRANCH  57  61
ATOM     61  O   UNL     1       7.488   5.039  28.159  0.00  0.00    -0.386 OA
ATOM     62  H   UNL     1       6.734   5.474  28.596  0.00  0.00    +0.210 HD
ENDBRANCH  57  61
BRANCH  56  63
ATOM     63  O   UNL     1       9.313   6.369  26.623  0.00  0.00    -0.386 OA
ATOM     64  H   UNL     1       9.089   7.199  26.156  0.00  0.00    +0.210 HD
ENDBRANCH  56  63
BRANCH  55  65
ATOM     65  C   UNL     1       9.565   5.859  23.632  0.00  0.00    +0.266 C 
BRANCH  65  66
ATOM     66  O   UNL     1      10.001   4.632  22.956  0.00  0.00    -0.459 OA
BRANCH  66  67
ATOM     67  C   UNL     1      11.110   3.982  23.365  0.00  0.00    +0.332 C 
ATOM     68  O   UNL     1      12.150   4.523  23.680  0.00  0.00    -0.246 OA
BRANCH  67  69
ATOM     69  C   UNL     1      10.861   2.505  23.384  0.00  0.00    +0.092 C 
ATOM     70  C   UNL     1      10.595   1.746  24.477  0.00  0.00    +0.015 C 
BRANCH  70  71
ATOM     71  C   UNL     1      10.233   0.289  24.439  0.00  0.00    -0.025 A 
ATOM     72  C   UNL     1       9.475  -0.378  25.415  0.00  0.00    +0.011 A 
ATOM     73  C   UNL     1       9.183  -1.758  25.297  0.00  0.00    +0.046 A 
ATOM     74  C   UNL     1       9.653  -2.491  24.213  0.00  0.00    +0.117 A 
ATOM     75  C   UNL     1      10.382  -1.852  23.225  0.00  0.00    +0.046 A 
ATOM     76  C   UNL     1      10.596  -0.474  23.329  0.00  0.00    +0.011 A 
BRANCH  74  77
ATOM     77  O   UNL     1       9.371  -3.847  24.115  0.00  0.00    -0.507 OA
ATOM     78  H   UNL     1       8.693  -4.050  24.784  0.00  0.00    +0.292 HD
ENDBRANCH  74  77
ENDBRANCH  70  71
ENDBRANCH  67  69
ENDBRANCH  66  67
ENDBRANCH  65  66
ENDBRANCH  55  65
ENDBRANCH  52  53
ENDBRANCH  45  52
ENDBRANCH   1  44
TORSDOF 26
ENDMDL
MODEL 5
REMARK VINA RESULT:      -5.7      2.082     10.239
REMARK  Name = 
REMARK  27 active torsions:
REMARK  status: ('A' for Active; 'I' for Inactive)
REMARK    1  A    between atoms: C_1  and  C_2
REMARK    2  A    between atoms: C_3  and  O_65
REMARK    3  A    between atoms: C_4  and  O_64
REMARK    4  A    between atoms: C_5  and  O_41
REMARK    5  A    between atoms: C_6  and  O_8
REMARK    6  A    between atoms: O_8  and  C_9
REMARK    7  A    between atoms: C_10  and  C_33
REMARK    8  A    between atoms: C_14  and  O_21
REMARK    9  A    between atoms: C_16  and  O_20
REMARK   10  A    between atoms: O_21  and  C_22
REMARK   11  A    between atoms: C_23  and  O_32
REMARK   12  A    between atoms: C_24  and  O_31
REMARK   13  A    between atoms: C_25  and  O_30
REMARK   14  A    between atoms: C_26  and  C_28
REMARK   15  A    between atoms: C_28  and  O_29
REMARK   16  A    between atoms: C_35  and  O_40
REMARK   17  A    between atoms: C_36  and  O_39
REMARK   18  A    between atoms: O_41  and  C_42
REMARK   19  A    between atoms: C_43  and  O_63
REMARK   20  A    between atoms: C_44  and  O_62
REMARK   21  A    between atoms: C_45  and  O_61
REMARK   22  A    between atoms: C_46  and  C_48
REMARK   23  A    between atoms: C_48  and  O_49
REMARK   24  A    between atoms: O_49  and  C_50
REMARK   25  A    between atoms: C_50  and  C_52
REMARK   26  A    between atoms: C_53  and  C_54
REMARK   27  A    between atoms: C_57  and  O_60
REMARK                            x       y       z     vdW  Elec       q    Type
REMARK                         _______ _______ _______ _____ _____    ______ ____
ROOT
ATOM      1  O   UNL     1       4.266  -3.160  26.664  0.00  0.00    -0.453 OA
ENDROOT
BRANCH   1   2
ATOM      2  C   UNL     1       5.049  -1.984  26.618  0.00  0.00    +0.214 A 
ATOM      3  C   UNL     1       4.313  -0.673  26.509  0.00  0.00    +0.238 A 
ATOM      4  O   UNL     1       3.095  -0.655  26.366  0.00  0.00    -0.283 OA
ATOM      5  C   UNL     1       5.079   0.587  26.639  0.00  0.00    +0.109 A 
ATOM      6  C   UNL     1       6.447   0.507  26.772  0.00  0.00    +0.147 A 
ATOM      7  C   UNL     1       7.197   1.671  27.041  0.00  0.00    +0.093 A 
ATOM      8  C   UNL     1       6.547   2.885  27.307  0.00  0.00    +0.131 A 
ATOM      9  C   UNL     1       5.186   2.974  27.105  0.00  0.00    +0.092 A 
ATOM     10  O   UNL     1       7.112  -0.666  26.564  0.00  0.00    -0.451 OA
ATOM     11  C   UNL     1       4.493   1.855  26.657  0.00  0.00    +0.135 A 
ATOM     12  C   UNL     1       6.424  -1.898  26.479  0.00  0.00    +0.181 A 
BRANCH  12  13
ATOM     13  C   UNL     1       7.457  -2.995  26.206  0.00  0.00    +0.025 A 
ATOM     14  C   UNL     1       7.379  -4.282  26.754  0.00  0.00    +0.015 A 
ATOM     15  C   UNL     1       8.312  -5.288  26.445  0.00  0.00    +0.050 A 
ATOM     16  C   UNL     1       9.346  -5.034  25.536  0.00  0.00    +0.158 A 
ATOM     17  C   UNL     1       9.484  -3.790  24.979  0.00  0.00    +0.159 A 
ATOM     18  C   UNL     1       8.560  -2.775  25.303  0.00  0.00    +0.060 A 
BRANCH  17  19
ATOM     19  O   UNL     1      10.518  -3.626  24.096  0.00  0.00    -0.503 OA
ATOM     20  H   UNL     1      10.960  -2.778  24.259  0.00  0.00    +0.292 HD
ENDBRANCH  17  19
BRANCH  16  21
ATOM     21  O   UNL     1      10.216  -6.049  25.244  0.00  0.00    -0.503 OA
ATOM     22  H   UNL     1       9.779  -6.557  24.534  0.00  0.00    +0.292 HD
ENDBRANCH  16  21
ENDBRANCH  12  13
BRANCH  11  23
ATOM     23  O   UNL     1       3.270   2.072  26.100  0.00  0.00    -0.506 OA
ATOM     24  H   UNL     1       3.310   1.931  25.137  0.00  0.00    +0.292 HD
ENDBRANCH  11  23
BRANCH   8  25
ATOM     25  O   UNL     1       7.102   4.083  27.664  0.00  0.00    -0.461 OA
BRANCH  25  26
ATOM     26  C   UNL     1       6.756   5.215  26.875  0.00  0.00    +0.339 C 
ATOM     27  O   UNL     1       6.492   4.817  25.524  0.00  0.00    -0.331 OA
ATOM     28  C   UNL     1       7.650   4.409  24.773  0.00  0.00    +0.179 C 
ATOM     29  C   UNL     1       8.577   5.623  24.687  0.00  0.00    +0.177 C 
ATOM     30  C   UNL     1       9.061   5.970  26.100  0.00  0.00    +0.180 C 
ATOM     31  C   UNL     1       7.869   6.274  27.012  0.00  0.00    +0.214 C 
BRANCH  31  32
ATOM     32  O   UNL     1       8.283   6.417  28.387  0.00  0.00    -0.383 OA
ATOM     33  H   UNL     1       8.812   5.628  28.613  0.00  0.00    +0.210 HD
ENDBRANCH  31  32
BRANCH  30  34
ATOM     34  O   UNL     1       9.930   7.108  26.043  0.00  0.00    -0.386 OA
ATOM     35  H   UNL     1      10.837   6.759  25.937  0.00  0.00    +0.210 HD
ENDBRANCH  30  34
BRANCH  29  36
ATOM     36  O   UNL     1       7.853   6.755  24.166  0.00  0.00    -0.386 OA
ATOM     37  H   UNL     1       8.489   7.497  24.087  0.00  0.00    +0.210 HD
ENDBRANCH  29  36
BRANCH  28  38
ATOM     38  C   UNL     1       7.168   3.953  23.385  0.00  0.00    +0.190 C 
BRANCH  38  39
ATOM     39  O   UNL     1       8.238   3.983  22.438  0.00  0.00    -0.392 OA
ATOM     40  H   UNL     1       8.349   4.897  22.131  0.00  0.00    +0.210 HD
ENDBRANCH  38  39
ENDBRANCH  28  38
ENDBRANCH  25  26
ENDBRANCH   8  25
ENDBRANCH   1   2
BRANCH   1  44
ATOM     41  C   UNL     1       5.259  -5.303  30.485  0.00  0.00    +0.041 C 
ATOM     42  C   UNL     1       4.874  -5.903  29.124  0.00  0.00    +0.150 C 
ATOM     43  O   UNL     1       5.000  -4.977  28.027  0.00  0.00    -0.334 OA
ATOM     44  C   UNL     1       4.046  -3.893  27.952  0.00  0.00    +0.340 C 
ATOM     45  C   UNL     1       2.567  -4.445  28.157  0.00  0.00    +0.221 C 
ATOM     46  C   UNL     1       2.444  -5.456  29.338  0.00  0.00    +0.180 C 
ATOM     47  C   UNL     1       3.495  -6.564  29.171  0.00  0.00    +0.174 C 
BRANCH  47  48
ATOM     48  O   UNL     1       3.441  -7.555  30.206  0.00  0.00    -0.387 OA
ATOM     49  H   UNL     1       4.349  -7.805  30.453  0.00  0.00    +0.210 HD
ENDBRANCH  47  48
BRANCH  46  50
ATOM     50  O   UNL     1       1.138  -6.076  29.373  0.00  0.00    -0.386 OA
ATOM     51  H   UNL     1       0.703  -5.710  30.168  0.00  0.00    +0.210 HD
ENDBRANCH  46  50
BRANCH  45  52
ATOM     52  O   UNL     1       2.036  -5.237  27.075  0.00  0.00    -0.337 OA
BRANCH  52  53
ATOM     53  C   UNL     1       2.932  -6.166  26.480  0.00  0.00    +0.282 C 
ATOM     54  O   UNL     1       3.682  -5.599  25.407  0.00  0.00    -0.339 OA
ATOM     55  C   UNL     1       2.860  -5.099  24.327  0.00  0.00    +0.190 C 
ATOM     56  C   UNL     1       2.106  -6.270  23.678  0.00  0.00    +0.178 C 
ATOM     57  C   UNL     1       1.281  -7.024  24.742  0.00  0.00    +0.179 C 
ATOM     58  C   UNL     1       2.105  -7.377  25.993  0.00  0.00    +0.201 C 
BRANCH  58  59
ATOM     59  O   UNL     1       1.220  -7.858  27.024  0.00  0.00    -0.384 OA
ATOM     60  H   UNL     1       1.168  -8.827  26.921  0.00  0.00    +0.210 HD
ENDBRANCH  58  59
BRANCH  57  61
ATOM     61  O   UNL     1       0.777  -8.262  24.197  0.00  0.00    -0.386 OA
ATOM     62  H   UNL     1      -0.161  -8.136  23.964  0.00  0.00    +0.210 HD
ENDBRANCH  57  61
BRANCH  56  63
ATOM     63  O   UNL     1       3.001  -7.186  23.033  0.00  0.00    -0.386 OA
ATOM     64  H   UNL     1       2.835  -7.140  22.070  0.00  0.00    +0.210 HD
ENDBRANCH  56  63
BRANCH  55  65
ATOM     65  C   UNL     1       3.734  -4.252  23.387  0.00  0.00    +0.266 C 
BRANCH  65  66
ATOM     66  O   UNL     1       4.378  -5.089  22.370  0.00  0.00    -0.459 OA
BRANCH  66  67
ATOM     67  C   UNL     1       5.689  -5.397  22.465  0.00  0.00    +0.332 C 
ATOM     68  O   UNL     1       6.146  -6.513  22.334  0.00  0.00    -0.246 OA
BRANCH  67  69
ATOM     69  C   UNL     1       6.486  -4.159  22.741  0.00  0.00    +0.092 C 
ATOM     70  C   UNL     1       6.870  -3.227  21.832  0.00  0.00    +0.015 C 
BRANCH  70  71
ATOM     71  C   UNL     1       7.567  -1.939  22.168  0.00  0.00    -0.025 A 
ATOM     72  C   UNL     1       7.010  -0.898  22.928  0.00  0.00    +0.011 A 
ATOM     73  C   UNL     1       7.743   0.284  23.194  0.00  0.00    +0.046 A 
ATOM     74  C   UNL     1       9.030   0.446  22.695  0.00  0.00    +0.117 A 
ATOM     75  C   UNL     1       9.610  -0.575  21.964  0.00  0.00    +0.046 A 
ATOM     76  C   UNL     1       8.893  -1.761  21.776  0.00  0.00    +0.011 A 
BRANCH  74  77
ATOM     77  O   UNL     1       9.733   1.616  22.952  0.00  0.00    -0.507 OA
ATOM     78  H   UNL     1      10.229   1.479  23.779  0.00  0.00    +0.292 HD
ENDBRANCH  74  77
ENDBRANCH  70  71
ENDBRANCH  67  69
ENDBRANCH  66  67
ENDBRANCH  65  66
ENDBRANCH  55  65
ENDBRANCH  52  53
ENDBRANCH  45  52
ENDBRANCH   1  44
TORSDOF 26
ENDMDL
MODEL 6
REMARK VINA RESULT:      -5.5      1.846      2.880
REMARK  Name = 
REMARK  27 active torsions:
REMARK  status: ('A' for Active; 'I' for Inactive)
REMARK    1  A    between atoms: C_1  and  C_2
REMARK    2  A    between atoms: C_3  and  O_65
REMARK    3  A    between atoms: C_4  and  O_64
REMARK    4  A    between atoms: C_5  and  O_41
REMARK    5  A    between atoms: C_6  and  O_8
REMARK    6  A    between atoms: O_8  and  C_9
REMARK    7  A    between atoms: C_10  and  C_33
REMARK    8  A    between atoms: C_14  and  O_21
REMARK    9  A    between atoms: C_16  and  O_20
REMARK   10  A    between atoms: O_21  and  C_22
REMARK   11  A    between atoms: C_23  and  O_32
REMARK   12  A    between atoms: C_24  and  O_31
REMARK   13  A    between atoms: C_25  and  O_30
REMARK   14  A    between atoms: C_26  and  C_28
REMARK   15  A    between atoms: C_28  and  O_29
REMARK   16  A    between atoms: C_35  and  O_40
REMARK   17  A    between atoms: C_36  and  O_39
REMARK   18  A    between atoms: O_41  and  C_42
REMARK   19  A    between atoms: C_43  and  O_63
REMARK   20  A    between atoms: C_44  and  O_62
REMARK   21  A    between atoms: C_45  and  O_61
REMARK   22  A    between atoms: C_46  and  C_48
REMARK   23  A    between atoms: C_48  and  O_49
REMARK   24  A    between atoms: O_49  and  C_50
REMARK   25  A    between atoms: C_50  and  C_52
REMARK   26  A    between atoms: C_53  and  C_54
REMARK   27  A    between atoms: C_57  and  O_60
REMARK                            x       y       z     vdW  Elec       q    Type
REMARK                         _______ _______ _______ _____ _____    ______ ____
ROOT
ATOM      1  O   UNL     1       5.183   2.607  26.148  0.00  0.00    -0.453 OA
ENDROOT
BRANCH   1   2
ATOM      2  C   UNL     1       5.000   1.205  26.167  0.00  0.00    +0.214 A 
ATOM      3  C   UNL     1       4.450   0.601  27.434  0.00  0.00    +0.238 A 
ATOM      4  O   UNL     1       4.271   1.299  28.426  0.00  0.00    -0.283 OA
ATOM      5  C   UNL     1       4.075  -0.830  27.436  0.00  0.00    +0.109 A 
ATOM      6  C   UNL     1       4.321  -1.570  26.302  0.00  0.00    +0.147 A 
ATOM      7  C   UNL     1       3.851  -2.897  26.211  0.00  0.00    +0.093 A 
ATOM      8  C   UNL     1       3.019  -3.421  27.210  0.00  0.00    +0.131 A 
ATOM      9  C   UNL     1       2.832  -2.702  28.373  0.00  0.00    +0.092 A 
ATOM     10  O   UNL     1       5.091  -1.079  25.288  0.00  0.00    -0.451 OA
ATOM     11  C   UNL     1       3.462  -1.472  28.515  0.00  0.00    +0.135 A 
ATOM     12  C   UNL     1       5.435   0.291  25.222  0.00  0.00    +0.181 A 
BRANCH  12  13
ATOM     13  C   UNL     1       6.326   0.492  23.994  0.00  0.00    +0.025 A 
ATOM     14  C   UNL     1       6.686  -0.545  23.122  0.00  0.00    +0.015 A 
ATOM     15  C   UNL     1       7.464  -0.323  21.971  0.00  0.00    +0.050 A 
ATOM     16  C   UNL     1       7.879   0.972  21.641  0.00  0.00    +0.158 A 
ATOM     17  C   UNL     1       7.572   2.025  22.462  0.00  0.00    +0.159 A 
ATOM     18  C   UNL     1       6.809   1.801  23.627  0.00  0.00    +0.060 A 
BRANCH  17  19
ATOM     19  O   UNL     1       8.012   3.260  22.064  0.00  0.00    -0.503 OA
ATOM     20  H   UNL     1       8.525   3.180  21.246  0.00  0.00    +0.292 HD
ENDBRANCH  17  19
BRANCH  16  21
ATOM     21  O   UNL     1       8.612   1.146  20.498  0.00  0.00    -0.503 OA
ATOM     22  H   UNL     1       7.949   1.234  19.787  0.00  0.00    +0.292 HD
ENDBRANCH  16  21
ENDBRANCH  12  13
BRANCH  11  23
ATOM     23  O   UNL     1       3.585  -0.987  29.782  0.00  0.00    -0.506 OA
ATOM     24  H   UNL     1       2.734  -0.625  30.087  0.00  0.00    +0.292 HD
ENDBRANCH  11  23
BRANCH   8  25
ATOM     25  O   UNL     1       2.409  -4.645  27.250  0.00  0.00    -0.461 OA
BRANCH  25  26
ATOM     26  C   UNL     1       3.203  -5.775  26.910  0.00  0.00    +0.339 C 
ATOM     27  O   UNL     1       3.257  -5.934  25.486  0.00  0.00    -0.331 OA
ATOM     28  C   UNL     1       2.029  -6.374  24.877  0.00  0.00    +0.179 C 
ATOM     29  C   UNL     1       1.718  -7.758  25.450  0.00  0.00    +0.177 C 
ATOM     30  C   UNL     1       1.445  -7.616  26.952  0.00  0.00    +0.180 C 
ATOM     31  C   UNL     1       2.660  -7.008  27.660  0.00  0.00    +0.214 C 
BRANCH  31  32
ATOM     32  O   UNL     1       2.361  -6.689  29.035  0.00  0.00    -0.383 OA
ATOM     33  H   UNL     1       2.419  -5.719  29.126  0.00  0.00    +0.210 HD
ENDBRANCH  31  32
BRANCH  30  34
ATOM     34  O   UNL     1       1.154  -8.903  27.510  0.00  0.00    -0.386 OA
ATOM     35  H   UNL     1       2.013  -9.352  27.633  0.00  0.00    +0.210 HD
ENDBRANCH  30  34
BRANCH  29  36
ATOM     36  O   UNL     1       2.856  -8.626  25.278  0.00  0.00    -0.386 OA
ATOM     37  H   UNL     1       3.573  -8.284  25.852  0.00  0.00    +0.210 HD
ENDBRANCH  29  36
BRANCH  28  38
ATOM     38  C   UNL     1       2.254  -6.417  23.357  0.00  0.00    +0.190 C 
BRANCH  38  39
ATOM     39  O   UNL     1       3.607  -6.763  23.050  0.00  0.00    -0.392 OA
ATOM     40  H   UNL     1       3.713  -6.752  22.085  0.00  0.00    +0.210 HD
ENDBRANCH  38  39
ENDBRANCH  28  38
ENDBRANCH  25  26
ENDBRANCH   8  25
ENDBRANCH   1   2
BRANCH   1  44
ATOM     41  C   UNL     1       4.462   4.412  30.197  0.00  0.00    +0.041 C 
ATOM     42  C   UNL     1       4.407   5.094  28.823  0.00  0.00    +0.150 C 
ATOM     43  O   UNL     1       4.303   4.171  27.722  0.00  0.00    -0.334 OA
ATOM     44  C   UNL     1       5.463   3.367  27.408  0.00  0.00    +0.340 C 
ATOM     45  C   UNL     1       6.767   4.279  27.356  0.00  0.00    +0.221 C 
ATOM     46  C   UNL     1       6.865   5.284  28.545  0.00  0.00    +0.180 C 
ATOM     47  C   UNL     1       5.558   6.087  28.641  0.00  0.00    +0.174 C 
BRANCH  47  48
ATOM     48  O   UNL     1       5.566   7.055  29.699  0.00  0.00    -0.387 OA
ATOM     49  H   UNL     1       6.198   6.773  30.383  0.00  0.00    +0.210 HD
ENDBRANCH  47  48
BRANCH  46  50
ATOM     50  O   UNL     1       7.954   6.218  28.364  0.00  0.00    -0.386 OA
ATOM     51  H   UNL     1       7.736   6.979  28.938  0.00  0.00    +0.210 HD
ENDBRANCH  46  50
BRANCH  45  52
ATOM     52  O   UNL     1       6.859   5.184  26.237  0.00  0.00    -0.337 OA
BRANCH  52  53
ATOM     53  C   UNL     1       6.936   4.584  24.951  0.00  0.00    +0.282 C 
ATOM     54  O   UNL     1       8.232   4.700  24.366  0.00  0.00    -0.339 OA
ATOM     55  C   UNL     1       8.668   6.067  24.189  0.00  0.00    +0.190 C 
ATOM     56  C   UNL     1       7.741   6.770  23.184  0.00  0.00    +0.178 C 
ATOM     57  C   UNL     1       6.277   6.678  23.661  0.00  0.00    +0.179 C 
ATOM     58  C   UNL     1       5.867   5.247  24.053  0.00  0.00    +0.201 C 
BRANCH  58  59
ATOM     59  O   UNL     1       4.582   5.283  24.706  0.00  0.00    -0.384 OA
ATOM     60  H   UNL     1       3.914   5.084  24.023  0.00  0.00    +0.210 HD
ENDBRANCH  58  59
BRANCH  57  61
ATOM     61  O   UNL     1       5.383   7.108  22.612  0.00  0.00    -0.386 OA
ATOM     62  H   UNL     1       4.870   6.337  22.311  0.00  0.00    +0.210 HD
ENDBRANCH  57  61
BRANCH  56  63
ATOM     63  O   UNL     1       7.851   6.202  21.873  0.00  0.00    -0.386 OA
ATOM     64  H   UNL     1       6.962   6.216  21.464  0.00  0.00    +0.210 HD
ENDBRANCH  56  63
BRANCH  55  65
ATOM     65  C   UNL     1      10.167   6.072  23.845  0.00  0.00    +0.266 C 
BRANCH  65  66
ATOM     66  O   UNL     1      10.787   4.785  24.174  0.00  0.00    -0.459 OA
BRANCH  66  67
ATOM     67  C   UNL     1      11.555   4.143  23.268  0.00  0.00    +0.332 C 
ATOM     68  O   UNL     1      12.350   4.686  22.530  0.00  0.00    -0.246 OA
BRANCH  67  69
ATOM     69  C   UNL     1      11.287   2.670  23.322  0.00  0.00    +0.092 C 
ATOM     70  C   UNL     1      10.728   1.990  24.355  0.00  0.00    +0.015 C 
BRANCH  70  71
ATOM     71  C   UNL     1      10.367   0.532  24.324  0.00  0.00    -0.025 A 
ATOM     72  C   UNL     1       9.636  -0.138  25.318  0.00  0.00    +0.011 A 
ATOM     73  C   UNL     1       9.343  -1.519  25.205  0.00  0.00    +0.046 A 
ATOM     74  C   UNL     1       9.785  -2.248  24.107  0.00  0.00    +0.117 A 
ATOM     75  C   UNL     1      10.486  -1.606  23.101  0.00  0.00    +0.046 A 
ATOM     76  C   UNL     1      10.700  -0.228  23.203  0.00  0.00    +0.011 A 
BRANCH  74  77
ATOM     77  O   UNL     1       9.502  -3.604  24.013  0.00  0.00    -0.507 OA
ATOM     78  H   UNL     1      10.319  -4.051  23.728  0.00  0.00    +0.292 HD
ENDBRANCH  74  77
ENDBRANCH  70  71
ENDBRANCH  67  69
ENDBRANCH  66  67
ENDBRANCH  65  66
ENDBRANCH  55  65
ENDBRANCH  52  53
ENDBRANCH  45  52
ENDBRANCH   1  44
TORSDOF 26
ENDMDL
MODEL 7
REMARK VINA RESULT:      -4.7      1.967      3.766
REMARK  Name = 
REMARK  27 active torsions:
REMARK  status: ('A' for Active; 'I' for Inactive)
REMARK    1  A    between atoms: C_1  and  C_2
REMARK    2  A    between atoms: C_3  and  O_65
REMARK    3  A    between atoms: C_4  and  O_64
REMARK    4  A    between atoms: C_5  and  O_41
REMARK    5  A    between atoms: C_6  and  O_8
REMARK    6  A    between atoms: O_8  and  C_9
REMARK    7  A    between atoms: C_10  and  C_33
REMARK    8  A    between atoms: C_14  and  O_21
REMARK    9  A    between atoms: C_16  and  O_20
REMARK   10  A    between atoms: O_21  and  C_22
REMARK   11  A    between atoms: C_23  and  O_32
REMARK   12  A    between atoms: C_24  and  O_31
REMARK   13  A    between atoms: C_25  and  O_30
REMARK   14  A    between atoms: C_26  and  C_28
REMARK   15  A    between atoms: C_28  and  O_29
REMARK   16  A    between atoms: C_35  and  O_40
REMARK   17  A    between atoms: C_36  and  O_39
REMARK   18  A    between atoms: O_41  and  C_42
REMARK   19  A    between atoms: C_43  and  O_63
REMARK   20  A    between atoms: C_44  and  O_62
REMARK   21  A    between atoms: C_45  and  O_61
REMARK   22  A    between atoms: C_46  and  C_48
REMARK   23  A    between atoms: C_48  and  O_49
REMARK   24  A    between atoms: O_49  and  C_50
REMARK   25  A    between atoms: C_50  and  C_52
REMARK   26  A    between atoms: C_53  and  C_54
REMARK   27  A    between atoms: C_57  and  O_60
REMARK                            x       y       z     vdW  Elec       q    Type
REMARK                         _______ _______ _______ _____ _____    ______ ____
ROOT
ATOM      1  O   UNL     1       5.119   1.159  26.220  0.00  0.00    -0.453 OA
ENDROOT
BRANCH   1   2
ATOM      2  C   UNL     1       4.835  -0.217  26.369  0.00  0.00    +0.214 A 
ATOM      3  C   UNL     1       3.632  -0.585  27.201  0.00  0.00    +0.238 A 
ATOM      4  O   UNL     1       3.002   0.283  27.795  0.00  0.00    -0.283 OA
ATOM      5  C   UNL     1       3.194  -1.997  27.234  0.00  0.00    +0.109 A 
ATOM      6  C   UNL     1       3.954  -2.932  26.568  0.00  0.00    +0.147 A 
ATOM      7  C   UNL     1       3.496  -4.261  26.456  0.00  0.00    +0.093 A 
ATOM      8  C   UNL     1       2.212  -4.606  26.900  0.00  0.00    +0.131 A 
ATOM      9  C   UNL     1       1.485  -3.686  27.626  0.00  0.00    +0.092 A 
ATOM     10  O   UNL     1       5.191  -2.624  26.083  0.00  0.00    -0.451 OA
ATOM     11  C   UNL     1       2.039  -2.438  27.885  0.00  0.00    +0.135 A 
ATOM     12  C   UNL     1       5.633  -1.284  25.990  0.00  0.00    +0.181 A 
BRANCH  12  13
ATOM     13  C   UNL     1       7.064  -1.298  25.446  0.00  0.00    +0.025 A 
ATOM     14  C   UNL     1       7.527  -2.237  24.513  0.00  0.00    +0.015 A 
ATOM     15  C   UNL     1       8.832  -2.195  23.990  0.00  0.00    +0.050 A 
ATOM     16  C   UNL     1       9.710  -1.173  24.368  0.00  0.00    +0.158 A 
ATOM     17  C   UNL     1       9.321  -0.236  25.289  0.00  0.00    +0.159 A 
ATOM     18  C   UNL     1       8.019  -0.288  25.829  0.00  0.00    +0.060 A 
BRANCH  17  19
ATOM     19  O   UNL     1      10.239   0.732  25.601  0.00  0.00    -0.503 OA
ATOM     20  H   UNL     1       9.787   1.511  25.962  0.00  0.00    +0.292 HD
ENDBRANCH  17  19
BRANCH  16  21
ATOM     21  O   UNL     1      10.962  -1.157  23.815  0.00  0.00    -0.503 OA
ATOM     22  H   UNL     1      11.098  -0.232  23.532  0.00  0.00    +0.292 HD
ENDBRANCH  16  21
ENDBRANCH  12  13
BRANCH  11  23
ATOM     23  O   UNL     1       1.491  -1.723  28.906  0.00  0.00    -0.506 OA
ATOM     24  H   UNL     1       1.179  -2.323  29.606  0.00  0.00    +0.292 HD
ENDBRANCH  11  23
BRANCH   8  25
ATOM     25  O   UNL     1       1.576  -5.813  26.799  0.00  0.00    -0.461 OA
BRANCH  25  26
ATOM     26  C   UNL     1       2.364  -6.928  26.400  0.00  0.00    +0.339 C 
ATOM     27  O   UNL     1       2.121  -7.239  25.022  0.00  0.00    -0.331 OA
ATOM     28  C   UNL     1       0.829  -7.811  24.746  0.00  0.00    +0.179 C 
ATOM     29  C   UNL     1       0.758  -9.139  25.503  0.00  0.00    +0.177 C 
ATOM     30  C   UNL     1       0.805  -8.847  27.008  0.00  0.00    +0.180 C 
ATOM     31  C   UNL     1       2.093  -8.099  27.365  0.00  0.00    +0.214 C 
BRANCH  31  32
ATOM     32  O   UNL     1       2.075  -7.648  28.736  0.00  0.00    -0.383 OA
ATOM     33  H   UNL     1       2.806  -8.101  29.199  0.00  0.00    +0.210 HD
ENDBRANCH  31  32
BRANCH  30  34
ATOM     34  O   UNL     1       0.743 -10.079  27.737  0.00  0.00    -0.386 OA
ATOM     35  H   UNL     1       1.402 -10.010  28.455  0.00  0.00    +0.210 HD
ENDBRANCH  30  34
BRANCH  29  36
ATOM     36  O   UNL     1       1.896  -9.956  25.165  0.00  0.00    -0.386 OA
ATOM     37  H   UNL     1       1.561 -10.856  24.973  0.00  0.00    +0.210 HD
ENDBRANCH  29  36
BRANCH  28  38
ATOM     38  C   UNL     1       0.722  -8.008  23.225  0.00  0.00    +0.190 C 
BRANCH  38  39
ATOM     39  O   UNL     1       1.899  -7.535  22.565  0.00  0.00    -0.392 OA
ATOM     40  H   UNL     1       1.959  -6.576  22.700  0.00  0.00    +0.210 HD
ENDBRANCH  38  39
ENDBRANCH  28  38
ENDBRANCH  25  26
ENDBRANCH   8  25
ENDBRANCH   1   2
BRANCH   1  44
ATOM     41  C   UNL     1       6.900   2.260  30.195  0.00  0.00    +0.041 C 
ATOM     42  C   UNL     1       5.760   2.952  29.433  0.00  0.00    +0.150 C 
ATOM     43  O   UNL     1       5.177   2.137  28.397  0.00  0.00    -0.334 OA
ATOM     44  C   UNL     1       5.972   1.884  27.216  0.00  0.00    +0.340 C 
ATOM     45  C   UNL     1       6.610   3.241  26.679  0.00  0.00    +0.221 C 
ATOM     46  C   UNL     1       7.226   4.122  27.809  0.00  0.00    +0.180 C 
ATOM     47  C   UNL     1       6.183   4.330  28.918  0.00  0.00    +0.174 C 
BRANCH  47  48
ATOM     48  O   UNL     1       6.658   5.151  29.995  0.00  0.00    -0.387 OA
ATOM     49  H   UNL     1       6.456   6.082  29.796  0.00  0.00    +0.210 HD
ENDBRANCH  47  48
BRANCH  46  50
ATOM     50  O   UNL     1       7.621   5.422  27.314  0.00  0.00    -0.386 OA
ATOM     51  H   UNL     1       8.536   5.305  26.992  0.00  0.00    +0.210 HD
ENDBRANCH  46  50
BRANCH  45  52
ATOM     52  O   UNL     1       5.687   4.178  26.087  0.00  0.00    -0.337 OA
BRANCH  52  53
ATOM     53  C   UNL     1       5.646   4.204  24.667  0.00  0.00    +0.282 C 
ATOM     54  O   UNL     1       6.671   5.019  24.100  0.00  0.00    -0.339 OA
ATOM     55  C   UNL     1       6.611   6.401  24.520  0.00  0.00    +0.190 C 
ATOM     56  C   UNL     1       5.306   7.032  24.007  0.00  0.00    +0.178 C 
ATOM     57  C   UNL     1       4.094   6.215  24.501  0.00  0.00    +0.179 C 
ATOM     58  C   UNL     1       4.248   4.705  24.242  0.00  0.00    +0.201 C 
BRANCH  58  59
ATOM     59  O   UNL     1       3.202   3.996  24.935  0.00  0.00    -0.384 OA
ATOM     60  H   UNL     1       3.595   3.652  25.760  0.00  0.00    +0.210 HD
ENDBRANCH  58  59
BRANCH  57  61
ATOM     61  O   UNL     1       2.893   6.646  23.823  0.00  0.00    -0.386 OA
ATOM     62  H   UNL     1       3.130   7.357  23.200  0.00  0.00    +0.210 HD
ENDBRANCH  57  61
BRANCH  56  63
ATOM     63  O   UNL     1       5.279   7.106  22.576  0.00  0.00    -0.386 OA
ATOM     64  H   UNL     1       4.396   6.808  22.276  0.00  0.00    +0.210 HD
ENDBRANCH  56  63
BRANCH  55  65
ATOM     65  C   UNL     1       7.912   7.107  24.104  0.00  0.00    +0.266 C 
BRANCH  65  66
ATOM     66  O   UNL     1       8.997   6.809  25.045  0.00  0.00    -0.459 OA
BRANCH  66  67
ATOM     67  C   UNL     1      10.220   6.461  24.594  0.00  0.00    +0.332 C 
ATOM     68  O   UNL     1      11.237   7.088  24.805  0.00  0.00    -0.246 OA
BRANCH  67  69
ATOM     69  C   UNL     1      10.133   5.186  23.812  0.00  0.00    +0.092 C 
ATOM     70  C   UNL     1       9.312   4.136  24.070  0.00  0.00    +0.015 C 
BRANCH  70  71
ATOM     71  C   UNL     1       9.170   2.926  23.191  0.00  0.00    -0.025 A 
ATOM     72  C   UNL     1       7.960   2.268  22.916  0.00  0.00    +0.011 A 
ATOM     73  C   UNL     1       7.922   1.130  22.076  0.00  0.00    +0.046 A 
ATOM     74  C   UNL     1       9.088   0.627  21.512  0.00  0.00    +0.117 A 
ATOM     75  C   UNL     1      10.291   1.271  21.747  0.00  0.00    +0.046 A 
ATOM     76  C   UNL     1      10.291   2.435  22.523  0.00  0.00    +0.011 A 
BRANCH  74  77
ATOM     77  O   UNL     1       9.039  -0.498  20.699  0.00  0.00    -0.507 OA
ATOM     78  H   UNL     1       9.933  -0.631  20.335  0.00  0.00    +0.292 HD
ENDBRANCH  74  77
ENDBRANCH  70  71
ENDBRANCH  67  69
ENDBRANCH  66  67
ENDBRANCH  65  66
ENDBRANCH  55  65
ENDBRANCH  52  53
ENDBRANCH  45  52
ENDBRANCH   1  44
TORSDOF 26
ENDMDL
MODEL 8
REMARK VINA RESULT:      -4.5      2.045      4.045
REMARK  Name = 
REMARK  27 active torsions:
REMARK  status: ('A' for Active; 'I' for Inactive)
REMARK    1  A    between atoms: C_1  and  C_2
REMARK    2  A    between atoms: C_3  and  O_65
REMARK    3  A    between atoms: C_4  and  O_64
REMARK    4  A    between atoms: C_5  and  O_41
REMARK    5  A    between atoms: C_6  and  O_8
REMARK    6  A    between atoms: O_8  and  C_9
REMARK    7  A    between atoms: C_10  and  C_33
REMARK    8  A    between atoms: C_14  and  O_21
REMARK    9  A    between atoms: C_16  and  O_20
REMARK   10  A    between atoms: O_21  and  C_22
REMARK   11  A    between atoms: C_23  and  O_32
REMARK   12  A    between atoms: C_24  and  O_31
REMARK   13  A    between atoms: C_25  and  O_30
REMARK   14  A    between atoms: C_26  and  C_28
REMARK   15  A    between atoms: C_28  and  O_29
REMARK   16  A    between atoms: C_35  and  O_40
REMARK   17  A    between atoms: C_36  and  O_39
REMARK   18  A    between atoms: O_41  and  C_42
REMARK   19  A    between atoms: C_43  and  O_63
REMARK   20  A    between atoms: C_44  and  O_62
REMARK   21  A    between atoms: C_45  and  O_61
REMARK   22  A    between atoms: C_46  and  C_48
REMARK   23  A    between atoms: C_48  and  O_49
REMARK   24  A    between atoms: O_49  and  C_50
REMARK   25  A    between atoms: C_50  and  C_52
REMARK   26  A    between atoms: C_53  and  C_54
REMARK   27  A    between atoms: C_57  and  O_60
REMARK                            x       y       z     vdW  Elec       q    Type
REMARK                         _______ _______ _______ _____ _____    ______ ____
ROOT
ATOM      1  O   UNL     1       3.812   0.873  26.368  0.00  0.00    -0.453 OA
ENDROOT
BRANCH   1   2
ATOM      2  C   UNL     1       3.971  -0.518  26.564  0.00  0.00    +0.214 A 
ATOM      3  C   UNL     1       2.838  -1.251  27.237  0.00  0.00    +0.238 A 
ATOM      4  O   UNL     1       1.875  -0.633  27.677  0.00  0.00    -0.283 OA
ATOM      5  C   UNL     1       2.883  -2.728  27.298  0.00  0.00    +0.109 A 
ATOM      6  C   UNL     1       4.001  -3.368  26.810  0.00  0.00    +0.147 A 
ATOM      7  C   UNL     1       4.023  -4.775  26.720  0.00  0.00    +0.093 A 
ATOM      8  C   UNL     1       2.868  -5.520  26.996  0.00  0.00    +0.131 A 
ATOM      9  C   UNL     1       1.777  -4.882  27.549  0.00  0.00    +0.092 A 
ATOM     10  O   UNL     1       5.130  -2.673  26.488  0.00  0.00    -0.451 OA
ATOM     11  C   UNL     1       1.847  -3.518  27.804  0.00  0.00    +0.135 A 
ATOM     12  C   UNL     1       5.121  -1.265  26.373  0.00  0.00    +0.181 A 
BRANCH  12  13
ATOM     13  C   UNL     1       6.546  -0.811  26.042  0.00  0.00    +0.025 A 
ATOM     14  C   UNL     1       7.012   0.493  26.261  0.00  0.00    +0.015 A 
ATOM     15  C   UNL     1       8.341   0.870  25.997  0.00  0.00    +0.050 A 
ATOM     16  C   UNL     1       9.262  -0.076  25.532  0.00  0.00    +0.158 A 
ATOM     17  C   UNL     1       8.863  -1.363  25.283  0.00  0.00    +0.159 A 
ATOM     18  C   UNL     1       7.525  -1.737  25.530  0.00  0.00    +0.060 A 
BRANCH  17  19
ATOM     19  O   UNL     1       9.826  -2.227  24.835  0.00  0.00    -0.503 OA
ATOM     20  H   UNL     1      10.665  -1.754  24.717  0.00  0.00    +0.292 HD
ENDBRANCH  17  19
BRANCH  16  21
ATOM     21  O   UNL     1      10.551   0.328  25.313  0.00  0.00    -0.503 OA
ATOM     22  H   UNL     1      10.787  -0.048  24.443  0.00  0.00    +0.292 HD
ENDBRANCH  16  21
ENDBRANCH  12  13
BRANCH  11  23
ATOM     23  O   UNL     1       0.944  -3.010  28.687  0.00  0.00    -0.506 OA
ATOM     24  H   UNL     1       0.089  -3.466  28.593  0.00  0.00    +0.292 HD
ENDBRANCH  11  23
BRANCH   8  25
ATOM     25  O   UNL     1       2.683  -6.870  26.884  0.00  0.00    -0.461 OA
BRANCH  25  26
ATOM     26  C   UNL     1       3.225  -7.503  25.731  0.00  0.00    +0.339 C 
ATOM     27  O   UNL     1       3.407  -6.548  24.679  0.00  0.00    -0.331 OA
ATOM     28  C   UNL     1       2.191  -6.066  24.078  0.00  0.00    +0.179 C 
ATOM     29  C   UNL     1       1.499  -7.274  23.442  0.00  0.00    +0.177 C 
ATOM     30  C   UNL     1       1.091  -8.246  24.556  0.00  0.00    +0.180 C 
ATOM     31  C   UNL     1       2.323  -8.694  25.349  0.00  0.00    +0.214 C 
BRANCH  31  32
ATOM     32  O   UNL     1       1.947  -9.456  26.515  0.00  0.00    -0.383 OA
ATOM     33  H   UNL     1       2.768  -9.816  26.903  0.00  0.00    +0.210 HD
ENDBRANCH  31  32
BRANCH  30  34
ATOM     34  O   UNL     1       0.443  -9.387  23.983  0.00  0.00    -0.386 OA
ATOM     35  H   UNL     1       1.119  -9.852  23.451  0.00  0.00    +0.210 HD
ENDBRANCH  30  34
BRANCH  29  36
ATOM     36  O   UNL     1       2.414  -7.954  22.561  0.00  0.00    -0.386 OA
ATOM     37  H   UNL     1       2.725  -7.300  21.902  0.00  0.00    +0.210 HD
ENDBRANCH  29  36
BRANCH  28  38
ATOM     38  C   UNL     1       2.577  -5.008  23.031  0.00  0.00    +0.190 C 
BRANCH  38  39
ATOM     39  O   UNL     1       3.955  -5.127  22.669  0.00  0.00    -0.392 OA
ATOM     40  H   UNL     1       4.095  -4.645  21.838  0.00  0.00    +0.210 HD
ENDBRANCH  38  39
ENDBRANCH  28  38
ENDBRANCH  25  26
ENDBRANCH   8  25
ENDBRANCH   1   2
BRANCH   1  44
ATOM     41  C   UNL     1       4.412   2.794  30.384  0.00  0.00    +0.041 C 
ATOM     42  C   UNL     1       3.422   3.184  29.276  0.00  0.00    +0.150 C 
ATOM     43  O   UNL     1       3.214   2.149  28.296  0.00  0.00    -0.334 OA
ATOM     44  C   UNL     1       4.301   1.858  27.387  0.00  0.00    +0.340 C 
ATOM     45  C   UNL     1       4.885   3.207  26.777  0.00  0.00    +0.221 C 
ATOM     46  C   UNL     1       5.094   4.326  27.844  0.00  0.00    +0.180 C 
ATOM     47  C   UNL     1       3.793   4.523  28.636  0.00  0.00    +0.174 C 
BRANCH  47  48
ATOM     48  O   UNL     1       3.886   5.553  29.630  0.00  0.00    -0.387 OA
ATOM     49  H   UNL     1       3.311   6.295  29.373  0.00  0.00    +0.210 HD
ENDBRANCH  47  48
BRANCH  46  50
ATOM     50  O   UNL     1       5.443   5.588  27.230  0.00  0.00    -0.386 OA
ATOM     51  H   UNL     1       6.405   5.683  27.370  0.00  0.00    +0.210 HD
ENDBRANCH  46  50
BRANCH  45  52
ATOM     52  O   UNL     1       4.033   3.894  25.838  0.00  0.00    -0.337 OA
BRANCH  52  53
ATOM     53  C   UNL     1       4.184   3.530  24.473  0.00  0.00    +0.282 C 
ATOM     54  O   UNL     1       5.152   4.328  23.792  0.00  0.00    -0.339 OA
ATOM     55  C   UNL     1       4.839   5.739  23.790  0.00  0.00    +0.190 C 
ATOM     56  C   UNL     1       3.542   5.971  22.999  0.00  0.00    +0.178 C 
ATOM     57  C   UNL     1       2.401   5.120  23.593  0.00  0.00    +0.179 C 
ATOM     58  C   UNL     1       2.801   3.646  23.794  0.00  0.00    +0.201 C 
BRANCH  58  59
ATOM     59  O   UNL     1       1.781   2.979  24.563  0.00  0.00    -0.384 OA
ATOM     60  H   UNL     1       1.696   2.079  24.196  0.00  0.00    +0.210 HD
ENDBRANCH  58  59
BRANCH  57  61
ATOM     61  O   UNL     1       1.256   5.136  22.713  0.00  0.00    -0.386 OA
ATOM     62  H   UNL     1       1.328   5.914  22.131  0.00  0.00    +0.210 HD
ENDBRANCH  57  61
BRANCH  56  63
ATOM     63  O   UNL     1       3.701   5.652  21.611  0.00  0.00    -0.386 OA
ATOM     64  H   UNL     1       4.426   5.000  21.534  0.00  0.00    +0.210 HD
ENDBRANCH  56  63
BRANCH  55  65
ATOM     65  C   UNL     1       6.073   6.522  23.310  0.00  0.00    +0.266 C 
BRANCH  65  66
ATOM     66  O   UNL     1       7.199   6.349  24.233  0.00  0.00    -0.459 OA
BRANCH  66  67
ATOM     67  C   UNL     1       8.419   6.004  23.770  0.00  0.00    +0.332 C 
ATOM     68  O   UNL     1       9.316   6.788  23.543  0.00  0.00    -0.246 OA
BRANCH  67  69
ATOM     69  C   UNL     1       8.498   4.519  23.593  0.00  0.00    +0.092 C 
ATOM     70  C   UNL     1       8.300   3.833  22.438  0.00  0.00    +0.015 C 
BRANCH  70  71
ATOM     71  C   UNL     1       8.507   2.354  22.276  0.00  0.00    -0.025 A 
ATOM     72  C   UNL     1       9.738   1.739  21.997  0.00  0.00    +0.011 A 
ATOM     73  C   UNL     1       9.838   0.333  21.859  0.00  0.00    +0.046 A 
ATOM     74  C   UNL     1       8.712  -0.472  21.983  0.00  0.00    +0.117 A 
ATOM     75  C   UNL     1       7.491   0.107  22.282  0.00  0.00    +0.046 A 
ATOM     76  C   UNL     1       7.432   1.490  22.485  0.00  0.00    +0.011 A 
BRANCH  74  77
ATOM     77  O   UNL     1       8.820  -1.848  21.833  0.00  0.00    -0.507 OA
ATOM     78  H   UNL     1       9.767  -2.054  21.736  0.00  0.00    +0.292 HD
ENDBRANCH  74  77
ENDBRANCH  70  71
ENDBRANCH  67  69
ENDBRANCH  66  67
ENDBRANCH  65  66
ENDBRANCH  55  65
ENDBRANCH  52  53
ENDBRANCH  45  52
ENDBRANCH   1  44
TORSDOF 26
ENDMDL
MODEL 9
REMARK VINA RESULT:      -4.4      3.509      6.021
REMARK  Name = 
REMARK  27 active torsions:
REMARK  status: ('A' for Active; 'I' for Inactive)
REMARK    1  A    between atoms: C_1  and  C_2
REMARK    2  A    between atoms: C_3  and  O_65
REMARK    3  A    between atoms: C_4  and  O_64
REMARK    4  A    between atoms: C_5  and  O_41
REMARK    5  A    between atoms: C_6  and  O_8
REMARK    6  A    between atoms: O_8  and  C_9
REMARK    7  A    between atoms: C_10  and  C_33
REMARK    8  A    between atoms: C_14  and  O_21
REMARK    9  A    between atoms: C_16  and  O_20
REMARK   10  A    between atoms: O_21  and  C_22
REMARK   11  A    between atoms: C_23  and  O_32
REMARK   12  A    between atoms: C_24  and  O_31
REMARK   13  A    between atoms: C_25  and  O_30
REMARK   14  A    between atoms: C_26  and  C_28
REMARK   15  A    between atoms: C_28  and  O_29
REMARK   16  A    between atoms: C_35  and  O_40
REMARK   17  A    between atoms: C_36  and  O_39
REMARK   18  A    between atoms: O_41  and  C_42
REMARK   19  A    between atoms: C_43  and  O_63
REMARK   20  A    between atoms: C_44  and  O_62
REMARK   21  A    between atoms: C_45  and  O_61
REMARK   22  A    between atoms: C_46  and  C_48
REMARK   23  A    between atoms: C_48  and  O_49
REMARK   24  A    between atoms: O_49  and  C_50
REMARK   25  A    between atoms: C_50  and  C_52
REMARK   26  A    between atoms: C_53  and  C_54
REMARK   27  A    between atoms: C_57  and  O_60
REMARK                            x       y       z     vdW  Elec       q    Type
REMARK                         _______ _______ _______ _____ _____    ______ ____
ROOT
ATOM      1  O   UNL     1       6.280   2.449  27.110  0.00  0.00    -0.453 OA
ENDROOT
BRANCH   1   2
ATOM      2  C   UNL     1       5.939   1.108  26.823  0.00  0.00    +0.214 A 
ATOM      3  C   UNL     1       5.272   0.319  27.921  0.00  0.00    +0.238 A 
ATOM      4  O   UNL     1       5.132   0.806  29.037  0.00  0.00    -0.283 OA
ATOM      5  C   UNL     1       4.737  -1.025  27.608  0.00  0.00    +0.109 A 
ATOM      6  C   UNL     1       4.946  -1.532  26.345  0.00  0.00    +0.147 A 
ATOM      7  C   UNL     1       4.333  -2.743  25.962  0.00  0.00    +0.093 A 
ATOM      8  C   UNL     1       3.406  -3.365  26.811  0.00  0.00    +0.131 A 
ATOM      9  C   UNL     1       3.253  -2.892  28.098  0.00  0.00    +0.092 A 
ATOM     10  O   UNL     1       5.807  -0.932  25.474  0.00  0.00    -0.451 OA
ATOM     11  C   UNL     1       4.012  -1.804  28.513  0.00  0.00    +0.135 A 
ATOM     12  C   UNL     1       6.306   0.370  25.710  0.00  0.00    +0.181 A 
BRANCH  12  13
ATOM     13  C   UNL     1       7.266   0.720  24.569  0.00  0.00    +0.025 A 
ATOM     14  C   UNL     1       6.876   0.780  23.224  0.00  0.00    +0.015 A 
ATOM     15  C   UNL     1       7.766   1.155  22.201  0.00  0.00    +0.050 A 
ATOM     16  C   UNL     1       9.081   1.520  22.510  0.00  0.00    +0.158 A 
ATOM     17  C   UNL     1       9.526   1.465  23.805  0.00  0.00    +0.159 A 
ATOM     18  C   UNL     1       8.640   1.070  24.830  0.00  0.00    +0.060 A 
BRANCH  17  19
ATOM     19  O   UNL     1      10.824   1.842  24.023  0.00  0.00    -0.503 OA
ATOM     20  H   UNL     1      10.850   2.733  24.404  0.00  0.00    +0.292 HD
ENDBRANCH  17  19
BRANCH  16  21
ATOM     21  O   UNL     1       9.905   1.903  21.486  0.00  0.00    -0.503 OA
ATOM     22  H   UNL     1       9.612   2.805  21.254  0.00  0.00    +0.292 HD
ENDBRANCH  16  21
ENDBRANCH  12  13
BRANCH  11  23
ATOM     23  O   UNL     1       4.136  -1.618  29.856  0.00  0.00    -0.506 OA
ATOM     24  H   UNL     1       4.531  -2.406  30.269  0.00  0.00    +0.292 HD
ENDBRANCH  11  23
BRANCH   8  25
ATOM     25  O   UNL     1       2.660  -4.487  26.575  0.00  0.00    -0.461 OA
BRANCH  25  26
ATOM     26  C   UNL     1       3.369  -5.681  26.268  0.00  0.00    +0.339 C 
ATOM     27  O   UNL     1       3.210  -6.011  24.882  0.00  0.00    -0.331 OA
ATOM     28  C   UNL     1       1.897  -6.468  24.513  0.00  0.00    +0.179 C 
ATOM     29  C   UNL     1       1.640  -7.761  25.291  0.00  0.00    +0.177 C 
ATOM     30  C   UNL     1       1.592  -7.430  26.787  0.00  0.00    +0.180 C 
ATOM     31  C   UNL     1       2.912  -6.793  27.234  0.00  0.00    +0.214 C 
BRANCH  31  32
ATOM     32  O   UNL     1       2.825  -6.301  28.588  0.00  0.00    -0.383 OA
ATOM     33  H   UNL     1       3.082  -7.034  29.179  0.00  0.00    +0.210 HD
ENDBRANCH  31  32
BRANCH  30  34
ATOM     34  O   UNL     1       1.355  -8.628  27.536  0.00  0.00    -0.386 OA
ATOM     35  H   UNL     1       0.919  -9.254  26.925  0.00  0.00    +0.210 HD
ENDBRANCH  30  34
BRANCH  29  36
ATOM     36  O   UNL     1       2.719  -8.689  25.067  0.00  0.00    -0.386 OA
ATOM     37  H   UNL     1       3.552  -8.174  25.074  0.00  0.00    +0.210 HD
ENDBRANCH  29  36
BRANCH  28  38
ATOM     38  C   UNL     1       1.896  -6.702  22.993  0.00  0.00    +0.190 C 
BRANCH  38  39
ATOM     39  O   UNL     1       2.013  -8.094  22.690  0.00  0.00    -0.392 OA
ATOM     40  H   UNL     1       1.159  -8.405  22.349  0.00  0.00    +0.210 HD
ENDBRANCH  38  39
ENDBRANCH  28  38
ENDBRANCH  25  26
ENDBRANCH   8  25
ENDBRANCH   1   2
BRANCH   1  44
ATOM     41  C   UNL     1       2.573   3.897  29.194  0.00  0.00    +0.041 C 
ATOM     42  C   UNL     1       2.806   3.689  27.690  0.00  0.00    +0.150 C 
ATOM     43  O   UNL     1       3.945   2.860  27.390  0.00  0.00    -0.334 OA
ATOM     44  C   UNL     1       5.259   3.411  27.637  0.00  0.00    +0.340 C 
ATOM     45  C   UNL     1       5.362   4.882  27.035  0.00  0.00    +0.221 C 
ATOM     46  C   UNL     1       4.117   5.767  27.355  0.00  0.00    +0.180 C 
ATOM     47  C   UNL     1       2.841   5.020  26.937  0.00  0.00    +0.174 C 
BRANCH  47  48
ATOM     48  O   UNL     1       1.643   5.771  27.176  0.00  0.00    -0.387 OA
ATOM     49  H   UNL     1       0.872   5.208  26.985  0.00  0.00    +0.210 HD
ENDBRANCH  47  48
BRANCH  46  50
ATOM     50  O   UNL     1       4.159   7.022  26.638  0.00  0.00    -0.386 OA
ATOM     51  H   UNL     1       4.712   6.848  25.851  0.00  0.00    +0.210 HD
ENDBRANCH  46  50
BRANCH  45  52
ATOM     52  O   UNL     1       5.387   4.973  25.596  0.00  0.00    -0.337 OA
BRANCH  52  53
ATOM     53  C   UNL     1       6.147   6.042  25.050  0.00  0.00    +0.282 C 
ATOM     54  O   UNL     1       5.377   6.885  24.194  0.00  0.00    -0.339 OA
ATOM     55  C   UNL     1       4.804   6.192  23.062  0.00  0.00    +0.190 C 
ATOM     56  C   UNL     1       5.934   5.674  22.158  0.00  0.00    +0.178 C 
ATOM     57  C   UNL     1       6.893   4.779  22.969  0.00  0.00    +0.179 C 
ATOM     58  C   UNL     1       7.345   5.433  24.288  0.00  0.00    +0.201 C 
BRANCH  58  59
ATOM     59  O   UNL     1       8.035   4.455  25.090  0.00  0.00    -0.384 OA
ATOM     60  H   UNL     1       7.618   3.593  24.903  0.00  0.00    +0.210 HD
ENDBRANCH  58  59
BRANCH  57  61
ATOM     61  O   UNL     1       8.083   4.498  22.200  0.00  0.00    -0.386 OA
ATOM     62  H   UNL     1       8.545   5.339  22.031  0.00  0.00    +0.210 HD
ENDBRANCH  57  61
BRANCH  56  63
ATOM     63  O   UNL     1       6.673   6.749  21.564  0.00  0.00    -0.386 OA
ATOM     64  H   UNL     1       6.378   7.583  21.981  0.00  0.00    +0.210 HD
ENDBRANCH  56  63
BRANCH  55  65
ATOM     65  C   UNL     1       3.765   7.106  22.391  0.00  0.00    +0.266 C 
BRANCH  65  66
ATOM     66  O   UNL     1       3.311   6.541  21.117  0.00  0.00    -0.459 OA
BRANCH  66  67
ATOM     67  C   UNL     1       2.013   6.620  20.756  0.00  0.00    +0.332 C 
ATOM     68  O   UNL     1       1.084   6.690  21.533  0.00  0.00    -0.246 OA
BRANCH  67  69
ATOM     69  C   UNL     1       1.896   6.619  19.262  0.00  0.00    +0.092 C 
ATOM     70  C   UNL     1       1.943   5.533  18.450  0.00  0.00    +0.015 C 
BRANCH  70  71
ATOM     71  C   UNL     1       1.702   5.561  16.967  0.00  0.00    -0.025 A 
ATOM     72  C   UNL     1       2.157   6.565  16.097  0.00  0.00    +0.011 A 
ATOM     73  C   UNL     1       1.880   6.510  14.710  0.00  0.00    +0.046 A 
ATOM     74  C   UNL     1       1.136   5.463  14.178  0.00  0.00    +0.117 A 
ATOM     75  C   UNL     1       0.696   4.449  15.010  0.00  0.00    +0.046 A 
ATOM     76  C   UNL     1       1.044   4.490  16.364  0.00  0.00    +0.011 A 
BRANCH  74  77
ATOM     77  O   UNL     1       0.860   5.427  12.818  0.00  0.00    -0.507 OA
ATOM     78  H   UNL     1      -0.039   5.067  12.715  0.00  0.00    +0.292 HD
ENDBRANCH  74  77
ENDBRANCH  70  71
ENDBRANCH  67  69
ENDBRANCH  66  67
ENDBRANCH  65  66
ENDBRANCH  55  65
ENDBRANCH  52  53
ENDBRANCH  45  52
ENDBRANCH   1  44
TORSDOF 26
ENDMDL
