MODEL 1
REMARK VINA RESULT:      -6.8      0.000      0.000
REMARK  Name = 
REMARK  10 active torsions:
REMARK  status: ('A' for Active; 'I' for Inactive)
REMARK    1  A    between atoms: C_1  and  O_2
REMARK    2  A    between atoms: O_2  and  C_3
REMARK    3  A    between atoms: C_4  and  O_26
REMARK    4  A    between atoms: C_6  and  C_9
REMARK    5  A    between atoms: C_10  and  O_24
REMARK    6  A    between atoms: C_17  and  O_22
REMARK    7  A    between atoms: C_19  and  O_20
REMARK    8  A    between atoms: O_20  and  C_21
REMARK    9  A    between atoms: O_22  and  C_23
REMARK   10  A    between atoms: O_24  and  C_25
REMARK                            x       y       z     vdW  Elec       q    Type
REMARK                         _______ _______ _______ _____ _____    ______ ____
ROOT
ATOM      1  C   UNL     1       6.627  -3.470  23.774  0.00  0.00    +0.181 A 
ATOM      2  O   UNL     1       6.690  -3.543  25.158  0.00  0.00    -0.451 OA
ATOM      3  C   UNL     1       6.111  -4.615  25.798  0.00  0.00    +0.147 A 
ATOM      4  C   UNL     1       6.399  -4.725  27.165  0.00  0.00    +0.092 A 
ATOM      5  C   UNL     1       5.883  -5.781  27.909  0.00  0.00    +0.127 A 
ATOM      6  C   UNL     1       5.086  -6.721  27.263  0.00  0.00    +0.092 A 
ATOM      7  C   UNL     1       4.760  -6.622  25.893  0.00  0.00    +0.138 A 
ATOM      8  C   UNL     1       5.268  -5.532  25.160  0.00  0.00    +0.109 A 
ATOM      9  C   UNL     1       4.935  -5.184  23.766  0.00  0.00    +0.238 A 
ATOM     10  O   UNL     1       3.905  -5.566  23.226  0.00  0.00    -0.283 OA
ATOM     11  C   UNL     1       5.844  -4.264  23.014  0.00  0.00    +0.211 A 
ENDROOT
BRANCH   1  15
ATOM     12  C   UNL     1       8.718  -0.108  22.118  0.00  0.00    +0.161 A 
ATOM     13  C   UNL     1       7.493   0.067  22.756  0.00  0.00    +0.050 A 
ATOM     14  C   UNL     1       6.846  -1.034  23.333  0.00  0.00    +0.015 A 
ATOM     15  C   UNL     1       7.395  -2.324  23.255  0.00  0.00    +0.025 A 
ATOM     16  C   UNL     1       8.648  -2.491  22.663  0.00  0.00    +0.060 A 
ATOM     17  C   UNL     1       9.292  -1.386  22.103  0.00  0.00    +0.159 A 
BRANCH  12  19
ATOM     18  C   UNL     1      10.008   1.883  22.277  0.00  0.00    +0.277 C 
ATOM     19  O   UNL     1       9.433   0.864  21.465  0.00  0.00    -0.491 OA
ENDBRANCH  12  19
BRANCH  17  20
ATOM     20  O   UNL     1      10.516  -1.578  21.521  0.00  0.00    -0.503 OA
ATOM     21  H   UNL     1      10.465  -2.461  21.103  0.00  0.00    +0.292 HD
ENDBRANCH  17  20
ENDBRANCH   1  15
BRANCH   5  22
ATOM     22  O   UNL     1       6.221  -5.799  29.233  0.00  0.00    -0.495 OA
ATOM     23  C   UNL     1       5.155  -5.648  30.167  0.00  0.00    +0.277 C 
ENDBRANCH   5  22
BRANCH   7  24
ATOM     24  O   UNL     1       3.970  -7.684  25.559  0.00  0.00    -0.494 OA
ATOM     25  C   UNL     1       2.559  -7.662  25.636  0.00  0.00    +0.277 C 
ENDBRANCH   7  24
BRANCH  11  26
ATOM     26  O   UNL     1       5.646  -4.303  21.654  0.00  0.00    -0.488 OA
ATOM     27  C   UNL     1       6.222  -5.281  20.809  0.00  0.00    +0.277 C 
ENDBRANCH  11  26
TORSDOF 6
ENDMDL
MODEL 2
REMARK VINA RESULT:      -6.8      2.920      5.332
REMARK  Name = 
REMARK  10 active torsions:
REMARK  status: ('A' for Active; 'I' for Inactive)
REMARK    1  A    between atoms: C_1  and  O_2
REMARK    2  A    between atoms: O_2  and  C_3
REMARK    3  A    between atoms: C_4  and  O_26
REMARK    4  A    between atoms: C_6  and  C_9
REMARK    5  A    between atoms: C_10  and  O_24
REMARK    6  A    between atoms: C_17  and  O_22
REMARK    7  A    between atoms: C_19  and  O_20
REMARK    8  A    between atoms: O_20  and  C_21
REMARK    9  A    between atoms: O_22  and  C_23
REMARK   10  A    between atoms: O_24  and  C_25
REMARK                            x       y       z     vdW  Elec       q    Type
REMARK                         _______ _______ _______ _____ _____    ______ ____
ROOT
ATOM      1  C   UNL     1       7.494  -0.424  23.111  0.00  0.00    +0.181 A 
ATOM      2  O   UNL     1       6.489  -1.281  22.687  0.00  0.00    -0.451 OA
ATOM      3  C   UNL     1       6.628  -2.633  22.902  0.00  0.00    +0.147 A 
ATOM      4  C   UNL     1       5.487  -3.403  22.639  0.00  0.00    +0.092 A 
ATOM      5  C   UNL     1       5.507  -4.780  22.840  0.00  0.00    +0.127 A 
ATOM      6  C   UNL     1       6.678  -5.364  23.312  0.00  0.00    +0.092 A 
ATOM      7  C   UNL     1       7.849  -4.617  23.561  0.00  0.00    +0.138 A 
ATOM      8  C   UNL     1       7.820  -3.229  23.327  0.00  0.00    +0.109 A 
ATOM      9  C   UNL     1       8.969  -2.306  23.399  0.00  0.00    +0.238 A 
ATOM     10  O   UNL     1      10.126  -2.693  23.290  0.00  0.00    -0.283 OA
ATOM     11  C   UNL     1       8.710  -0.838  23.525  0.00  0.00    +0.211 A 
ENDROOT
BRANCH   1  15
ATOM     12  C   UNL     1       6.619   3.742  22.562  0.00  0.00    +0.161 A 
ATOM     13  C   UNL     1       7.480   3.081  21.691  0.00  0.00    +0.050 A 
ATOM     14  C   UNL     1       7.719   1.709  21.856  0.00  0.00    +0.015 A 
ATOM     15  C   UNL     1       7.126   0.988  22.906  0.00  0.00    +0.025 A 
ATOM     16  C   UNL     1       6.221   1.638  23.745  0.00  0.00    +0.060 A 
ATOM     17  C   UNL     1       5.979   3.002  23.566  0.00  0.00    +0.159 A 
BRANCH  12  19
ATOM     18  C   UNL     1       7.373   5.947  22.094  0.00  0.00    +0.277 C 
ATOM     19  O   UNL     1       6.337   5.084  22.553  0.00  0.00    -0.491 OA
ENDBRANCH  12  19
BRANCH  17  20
ATOM     20  O   UNL     1       5.092   3.617  24.408  0.00  0.00    -0.503 OA
ATOM     21  H   UNL     1       5.482   3.526  25.300  0.00  0.00    +0.292 HD
ENDBRANCH  17  20
ENDBRANCH   1  15
BRANCH   5  22
ATOM     22  O   UNL     1       4.344  -5.440  22.555  0.00  0.00    -0.495 OA
ATOM     23  C   UNL     1       3.231  -5.168  23.402  0.00  0.00    +0.277 C 
ENDBRANCH   5  22
BRANCH   7  24
ATOM     24  O   UNL     1       8.817  -5.468  24.010  0.00  0.00    -0.494 OA
ATOM     25  C   UNL     1       9.304  -5.464  25.337  0.00  0.00    +0.277 C 
ENDBRANCH   7  24
BRANCH  11  26
ATOM     26  O   UNL     1       9.811  -0.130  23.947  0.00  0.00    -0.488 OA
ATOM     27  C   UNL     1      10.022   0.260  25.290  0.00  0.00    +0.277 C 
ENDBRANCH  11  26
TORSDOF 6
ENDMDL
MODEL 3
REMARK VINA RESULT:      -6.7      3.058      8.287
REMARK  Name = 
REMARK  10 active torsions:
REMARK  status: ('A' for Active; 'I' for Inactive)
REMARK    1  A    between atoms: C_1  and  O_2
REMARK    2  A    between atoms: O_2  and  C_3
REMARK    3  A    between atoms: C_4  and  O_26
REMARK    4  A    between atoms: C_6  and  C_9
REMARK    5  A    between atoms: C_10  and  O_24
REMARK    6  A    between atoms: C_17  and  O_22
REMARK    7  A    between atoms: C_19  and  O_20
REMARK    8  A    between atoms: O_20  and  C_21
REMARK    9  A    between atoms: O_22  and  C_23
REMARK   10  A    between atoms: O_24  and  C_25
REMARK                            x       y       z     vdW  Elec       q    Type
REMARK                         _______ _______ _______ _____ _____    ______ ____
ROOT
ATOM      1  C   UNL     1       7.451  -1.338  23.144  0.00  0.00    +0.181 A 
ATOM      2  O   UNL     1       6.814  -0.117  22.983  0.00  0.00    -0.451 OA
ATOM      3  C   UNL     1       7.561   1.037  23.019  0.00  0.00    +0.147 A 
ATOM      4  C   UNL     1       6.883   2.204  22.640  0.00  0.00    +0.092 A 
ATOM      5  C   UNL     1       7.546   3.427  22.621  0.00  0.00    +0.127 A 
ATOM      6  C   UNL     1       8.890   3.459  22.977  0.00  0.00    +0.092 A 
ATOM      7  C   UNL     1       9.591   2.304  23.387  0.00  0.00    +0.138 A 
ATOM      8  C   UNL     1       8.899   1.079  23.428  0.00  0.00    +0.109 A 
ATOM      9  C   UNL     1       9.415  -0.200  23.950  0.00  0.00    +0.238 A 
ATOM     10  O   UNL     1      10.342  -0.254  24.749  0.00  0.00    -0.283 OA
ATOM     11  C   UNL     1       8.729  -1.471  23.557  0.00  0.00    +0.211 A 
ENDROOT
BRANCH   1  15
ATOM     12  C   UNL     1       4.814  -4.706  22.787  0.00  0.00    +0.161 A 
ATOM     13  C   UNL     1       4.651  -3.789  23.821  0.00  0.00    +0.050 A 
ATOM     14  C   UNL     1       5.491  -2.668  23.897  0.00  0.00    +0.015 A 
ATOM     15  C   UNL     1       6.520  -2.466  22.961  0.00  0.00    +0.025 A 
ATOM     16  C   UNL     1       6.648  -3.355  21.894  0.00  0.00    +0.060 A 
ATOM     17  C   UNL     1       5.798  -4.461  21.820  0.00  0.00    +0.159 A 
BRANCH  12  19
ATOM     18  C   UNL     1       2.779  -5.882  23.140  0.00  0.00    +0.277 C 
ATOM     19  O   UNL     1       4.105  -5.868  22.622  0.00  0.00    -0.491 OA
ENDBRANCH  12  19
BRANCH  17  20
ATOM     20  O   UNL     1       5.950  -5.323  20.767  0.00  0.00    -0.503 OA
ATOM     21  H   UNL     1       5.422  -6.111  21.004  0.00  0.00    +0.292 HD
ENDBRANCH  17  20
ENDBRANCH   1  15
BRANCH   5  22
ATOM     22  O   UNL     1       6.797   4.505  22.237  0.00  0.00    -0.495 OA
ATOM     23  C   UNL     1       7.459   5.767  22.213  0.00  0.00    +0.277 C 
ENDBRANCH   5  22
BRANCH   7  24
ATOM     24  O   UNL     1      10.879   2.659  23.669  0.00  0.00    -0.494 OA
ATOM     25  C   UNL     1      11.428   3.921  23.348  0.00  0.00    +0.277 C 
ENDBRANCH   7  24
BRANCH  11  26
ATOM     26  O   UNL     1       9.492  -2.590  23.791  0.00  0.00    -0.488 OA
ATOM     27  C   UNL     1       9.199  -3.540  24.797  0.00  0.00    +0.277 C 
ENDBRANCH  11  26
TORSDOF 6
ENDMDL
MODEL 4
REMARK VINA RESULT:      -6.6      1.669      3.714
REMARK  Name = 
REMARK  10 active torsions:
REMARK  status: ('A' for Active; 'I' for Inactive)
REMARK    1  A    between atoms: C_1  and  O_2
REMARK    2  A    between atoms: O_2  and  C_3
REMARK    3  A    between atoms: C_4  and  O_26
REMARK    4  A    between atoms: C_6  and  C_9
REMARK    5  A    between atoms: C_10  and  O_24
REMARK    6  A    between atoms: C_17  and  O_22
REMARK    7  A    between atoms: C_19  and  O_20
REMARK    8  A    between atoms: O_20  and  C_21
REMARK    9  A    between atoms: O_22  and  C_23
REMARK   10  A    between atoms: O_24  and  C_25
REMARK                            x       y       z     vdW  Elec       q    Type
REMARK                         _______ _______ _______ _____ _____    ______ ____
ROOT
ATOM      1  C   UNL     1       7.068  -3.368  24.377  0.00  0.00    +0.181 A 
ATOM      2  O   UNL     1       6.118  -4.131  23.714  0.00  0.00    -0.451 OA
ATOM      3  C   UNL     1       5.480  -5.143  24.393  0.00  0.00    +0.147 A 
ATOM      4  C   UNL     1       4.393  -5.723  23.725  0.00  0.00    +0.092 A 
ATOM      5  C   UNL     1       3.661  -6.743  24.326  0.00  0.00    +0.127 A 
ATOM      6  C   UNL     1       4.030  -7.161  25.600  0.00  0.00    +0.092 A 
ATOM      7  C   UNL     1       5.135  -6.613  26.287  0.00  0.00    +0.138 A 
ATOM      8  C   UNL     1       5.881  -5.601  25.653  0.00  0.00    +0.109 A 
ATOM      9  C   UNL     1       7.136  -5.001  26.145  0.00  0.00    +0.238 A 
ATOM     10  O   UNL     1       7.864  -5.574  26.946  0.00  0.00    -0.283 OA
ATOM     11  C   UNL     1       7.578  -3.686  25.585  0.00  0.00    +0.211 A 
ENDROOT
BRANCH   1  15
ATOM     12  C   UNL     1       8.652  -0.115  22.068  0.00  0.00    +0.161 A 
ATOM     13  C   UNL     1       9.381  -1.290  22.225  0.00  0.00    +0.050 A 
ATOM     14  C   UNL     1       8.830  -2.361  22.943  0.00  0.00    +0.015 A 
ATOM     15  C   UNL     1       7.560  -2.263  23.535  0.00  0.00    +0.025 A 
ATOM     16  C   UNL     1       6.807  -1.106  23.332  0.00  0.00    +0.060 A 
ATOM     17  C   UNL     1       7.359  -0.049  22.605  0.00  0.00    +0.159 A 
BRANCH  12  19
ATOM     18  C   UNL     1      10.051   1.805  22.140  0.00  0.00    +0.277 C 
ATOM     19  O   UNL     1       9.085   1.026  21.442  0.00  0.00    -0.491 OA
ENDBRANCH  12  19
BRANCH  17  20
ATOM     20  O   UNL     1       6.601   1.077  22.427  0.00  0.00    -0.503 OA
ATOM     21  H   UNL     1       5.736   0.755  22.103  0.00  0.00    +0.292 HD
ENDBRANCH  17  20
ENDBRANCH   1  15
BRANCH   5  22
ATOM     22  O   UNL     1       2.621  -7.242  23.592  0.00  0.00    -0.495 OA
ATOM     23  C   UNL     1       1.729  -6.290  23.020  0.00  0.00    +0.277 C 
ENDBRANCH   5  22
BRANCH   7  24
ATOM     24  O   UNL     1       5.237  -7.227  27.501  0.00  0.00    -0.494 OA
ATOM     25  C   UNL     1       4.710  -6.686  28.696  0.00  0.00    +0.277 C 
ENDBRANCH   7  24
BRANCH  11  26
ATOM     26  O   UNL     1       8.530  -3.063  26.357  0.00  0.00    -0.488 OA
ATOM     27  C   UNL     1       8.466  -1.700  26.728  0.00  0.00    +0.277 C 
ENDBRANCH  11  26
TORSDOF 6
ENDMDL
MODEL 5
REMARK VINA RESULT:      -6.3      3.527      8.467
REMARK  Name = 
REMARK  10 active torsions:
REMARK  status: ('A' for Active; 'I' for Inactive)
REMARK    1  A    between atoms: C_1  and  O_2
REMARK    2  A    between atoms: O_2  and  C_3
REMARK    3  A    between atoms: C_4  and  O_26
REMARK    4  A    between atoms: C_6  and  C_9
REMARK    5  A    between atoms: C_10  and  O_24
REMARK    6  A    between atoms: C_17  and  O_22
REMARK    7  A    between atoms: C_19  and  O_20
REMARK    8  A    between atoms: O_20  and  C_21
REMARK    9  A    between atoms: O_22  and  C_23
REMARK   10  A    between atoms: O_24  and  C_25
REMARK                            x       y       z     vdW  Elec       q    Type
REMARK                         _______ _______ _______ _____ _____    ______ ____
ROOT
ATOM      1  C   UNL     1       7.739  -0.007  23.758  0.00  0.00    +0.181 A 
ATOM      2  O   UNL     1       8.897   0.616  23.316  0.00  0.00    -0.451 OA
ATOM      3  C   UNL     1       9.088   1.949  23.597  0.00  0.00    +0.147 A 
ATOM      4  C   UNL     1      10.364   2.448  23.306  0.00  0.00    +0.092 A 
ATOM      5  C   UNL     1      10.676   3.779  23.566  0.00  0.00    +0.127 A 
ATOM      6  C   UNL     1       9.696   4.592  24.128  0.00  0.00    +0.092 A 
ATOM      7  C   UNL     1       8.394   4.123  24.409  0.00  0.00    +0.138 A 
ATOM      8  C   UNL     1       8.088   2.781  24.113  0.00  0.00    +0.109 A 
ATOM      9  C   UNL     1       6.760   2.146  24.209  0.00  0.00    +0.238 A 
ATOM     10  O   UNL     1       5.721   2.795  24.182  0.00  0.00    -0.283 OA
ATOM     11  C   UNL     1       6.673   0.653  24.257  0.00  0.00    +0.211 A 
ENDROOT
BRANCH   1  15
ATOM     12  C   UNL     1       7.601  -4.231  23.007  0.00  0.00    +0.161 A 
ATOM     13  C   UNL     1       6.752  -3.365  22.325  0.00  0.00    +0.050 A 
ATOM     14  C   UNL     1       6.842  -1.983  22.546  0.00  0.00    +0.015 A 
ATOM     15  C   UNL     1       7.757  -1.453  23.471  0.00  0.00    +0.025 A 
ATOM     16  C   UNL     1       8.645  -2.316  24.115  0.00  0.00    +0.060 A 
ATOM     17  C   UNL     1       8.557  -3.689  23.878  0.00  0.00    +0.159 A 
BRANCH  12  19
ATOM     18  C   UNL     1       6.651  -6.176  22.025  0.00  0.00    +0.277 C 
ATOM     19  O   UNL     1       7.587  -5.600  22.930  0.00  0.00    -0.491 OA
ENDBRANCH  12  19
BRANCH  17  20
ATOM     20  O   UNL     1       9.435  -4.514  24.528  0.00  0.00    -0.503 OA
ATOM     21  H   UNL     1       9.371  -5.372  24.061  0.00  0.00    +0.292 HD
ENDBRANCH  17  20
ENDBRANCH   1  15
BRANCH   5  22
ATOM     22  O   UNL     1      11.947   4.167  23.246  0.00  0.00    -0.495 OA
ATOM     23  C   UNL     1      12.308   5.506  23.579  0.00  0.00    +0.277 C 
ENDBRANCH   5  22
BRANCH   7  24
ATOM     24  O   UNL     1       7.674   5.149  24.948  0.00  0.00    -0.494 OA
ATOM     25  C   UNL     1       7.435   5.290  26.334  0.00  0.00    +0.277 C 
ENDBRANCH   7  24
BRANCH  11  26
ATOM     26  O   UNL     1       5.457   0.197  24.708  0.00  0.00    -0.488 OA
ATOM     27  C   UNL     1       5.251  -0.328  26.005  0.00  0.00    +0.277 C 
ENDBRANCH  11  26
TORSDOF 6
ENDMDL
MODEL 6
REMARK VINA RESULT:      -6.2      2.418      7.259
REMARK  Name = 
REMARK  10 active torsions:
REMARK  status: ('A' for Active; 'I' for Inactive)
REMARK    1  A    between atoms: C_1  and  O_2
REMARK    2  A    between atoms: O_2  and  C_3
REMARK    3  A    between atoms: C_4  and  O_26
REMARK    4  A    between atoms: C_6  and  C_9
REMARK    5  A    between atoms: C_10  and  O_24
REMARK    6  A    between atoms: C_17  and  O_22
REMARK    7  A    between atoms: C_19  and  O_20
REMARK    8  A    between atoms: O_20  and  C_21
REMARK    9  A    between atoms: O_22  and  C_23
REMARK   10  A    between atoms: O_24  and  C_25
REMARK                            x       y       z     vdW  Elec       q    Type
REMARK                         _______ _______ _______ _____ _____    ______ ____
ROOT
ATOM      1  C   UNL     1       6.534  -4.257  24.739  0.00  0.00    +0.181 A 
ATOM      2  O   UNL     1       6.242  -3.160  25.537  0.00  0.00    -0.451 OA
ATOM      3  C   UNL     1       7.080  -2.070  25.508  0.00  0.00    +0.147 A 
ATOM      4  C   UNL     1       6.608  -0.931  26.173  0.00  0.00    +0.092 A 
ATOM      5  C   UNL     1       7.365   0.236  26.193  0.00  0.00    +0.127 A 
ATOM      6  C   UNL     1       8.589   0.244  25.533  0.00  0.00    +0.092 A 
ATOM      7  C   UNL     1       9.102  -0.896  24.877  0.00  0.00    +0.138 A 
ATOM      8  C   UNL     1       8.336  -2.077  24.890  0.00  0.00    +0.109 A 
ATOM      9  C   UNL     1       8.754  -3.397  24.381  0.00  0.00    +0.238 A 
ATOM     10  O   UNL     1       9.933  -3.702  24.247  0.00  0.00    -0.283 OA
ATOM     11  C   UNL     1       7.708  -4.428  24.096  0.00  0.00    +0.211 A 
ENDROOT
BRANCH   1  15
ATOM     12  C   UNL     1       3.591  -7.374  24.949  0.00  0.00    +0.161 A 
ATOM     13  C   UNL     1       4.410  -7.103  26.040  0.00  0.00    +0.050 A 
ATOM     14  C   UNL     1       5.335  -6.051  25.973  0.00  0.00    +0.015 A 
ATOM     15  C   UNL     1       5.472  -5.277  24.808  0.00  0.00    +0.025 A 
ATOM     16  C   UNL     1       4.613  -5.513  23.734  0.00  0.00    +0.060 A 
ATOM     17  C   UNL     1       3.687  -6.555  23.816  0.00  0.00    +0.159 A 
BRANCH  12  19
ATOM     18  C   UNL     1       1.523  -8.298  25.672  0.00  0.00    +0.277 C 
ATOM     19  O   UNL     1       2.686  -8.400  24.856  0.00  0.00    -0.491 OA
ENDBRANCH  12  19
BRANCH  17  20
ATOM     20  O   UNL     1       2.861  -6.770  22.745  0.00  0.00    -0.503 OA
ATOM     21  H   UNL     1       3.404  -6.562  21.958  0.00  0.00    +0.292 HD
ENDBRANCH  17  20
ENDBRANCH   1  15
BRANCH   5  22
ATOM     22  O   UNL     1       6.816   1.291  26.867  0.00  0.00    -0.495 OA
ATOM     23  C   UNL     1       7.223   2.594  26.455  0.00  0.00    +0.277 C 
ENDBRANCH   5  22
BRANCH   7  24
ATOM     24  O   UNL     1      10.312  -0.574  24.333  0.00  0.00    -0.494 OA
ATOM     25  C   UNL     1      10.954   0.667  24.543  0.00  0.00    +0.277 C 
ENDBRANCH   7  24
BRANCH  11  26
ATOM     26  O   UNL     1       8.162  -5.453  23.300  0.00  0.00    -0.488 OA
ATOM     27  C   UNL     1       7.624  -5.751  22.026  0.00  0.00    +0.277 C 
ENDBRANCH  11  26
TORSDOF 6
ENDMDL
MODEL 7
REMARK VINA RESULT:      -6.1      2.813      8.744
REMARK  Name = 
REMARK  10 active torsions:
REMARK  status: ('A' for Active; 'I' for Inactive)
REMARK    1  A    between atoms: C_1  and  O_2
REMARK    2  A    between atoms: O_2  and  C_3
REMARK    3  A    between atoms: C_4  and  O_26
REMARK    4  A    between atoms: C_6  and  C_9
REMARK    5  A    between atoms: C_10  and  O_24
REMARK    6  A    between atoms: C_17  and  O_22
REMARK    7  A    between atoms: C_19  and  O_20
REMARK    8  A    between atoms: O_20  and  C_21
REMARK    9  A    between atoms: O_22  and  C_23
REMARK   10  A    between atoms: O_24  and  C_25
REMARK                            x       y       z     vdW  Elec       q    Type
REMARK                         _______ _______ _______ _____ _____    ______ ____
ROOT
ATOM      1  C   UNL     1       7.362  -0.189  23.541  0.00  0.00    +0.181 A 
ATOM      2  O   UNL     1       6.638   0.990  23.433  0.00  0.00    -0.451 OA
ATOM      3  C   UNL     1       7.314   2.188  23.389  0.00  0.00    +0.147 A 
ATOM      4  C   UNL     1       6.534   3.307  23.068  0.00  0.00    +0.092 A 
ATOM      5  C   UNL     1       7.115   4.567  22.976  0.00  0.00    +0.127 A 
ATOM      6  C   UNL     1       8.483   4.684  23.202  0.00  0.00    +0.092 A 
ATOM      7  C   UNL     1       9.290   3.579  23.551  0.00  0.00    +0.138 A 
ATOM      8  C   UNL     1       8.680   2.315  23.666  0.00  0.00    +0.109 A 
ATOM      9  C   UNL     1       9.320   1.076  24.146  0.00  0.00    +0.238 A 
ATOM     10  O   UNL     1      10.321   1.088  24.852  0.00  0.00    -0.283 OA
ATOM     11  C   UNL     1       8.679  -0.239  23.830  0.00  0.00    +0.211 A 
ENDROOT
BRANCH   1  15
ATOM     12  C   UNL     1       4.932  -3.725  23.444  0.00  0.00    +0.161 A 
ATOM     13  C   UNL     1       4.932  -2.900  24.564  0.00  0.00    +0.050 A 
ATOM     14  C   UNL     1       5.695  -1.723  24.562  0.00  0.00    +0.015 A 
ATOM     15  C   UNL     1       6.487  -1.372  23.456  0.00  0.00    +0.025 A 
ATOM     16  C   UNL     1       6.444  -2.170  22.313  0.00  0.00    +0.060 A 
ATOM     17  C   UNL     1       5.672  -3.333  22.319  0.00  0.00    +0.159 A 
BRANCH  12  19
ATOM     18  C   UNL     1       4.282  -5.764  24.479  0.00  0.00    +0.277 C 
ATOM     19  O   UNL     1       4.280  -4.926  23.327  0.00  0.00    -0.491 OA
ENDBRANCH  12  19
BRANCH  17  20
ATOM     20  O   UNL     1       5.653  -4.103  21.187  0.00  0.00    -0.503 OA
ATOM     21  H   UNL     1       6.055  -4.955  21.451  0.00  0.00    +0.292 HD
ENDBRANCH  17  20
ENDBRANCH   1  15
BRANCH   5  22
ATOM     22  O   UNL     1       6.269   5.592  22.659  0.00  0.00    -0.495 OA
ATOM     23  C   UNL     1       6.833   6.686  21.940  0.00  0.00    +0.277 C 
ENDBRANCH   5  22
BRANCH   7  24
ATOM     24  O   UNL     1      10.574   4.013  23.705  0.00  0.00    -0.494 OA
ATOM     25  C   UNL     1      10.943   5.378  23.684  0.00  0.00    +0.277 C 
ENDBRANCH   7  24
BRANCH  11  26
ATOM     26  O   UNL     1       9.528  -1.308  23.997  0.00  0.00    -0.488 OA
ATOM     27  C   UNL     1      10.243  -1.911  22.936  0.00  0.00    +0.277 C 
ENDBRANCH  11  26
TORSDOF 6
ENDMDL
MODEL 8
REMARK VINA RESULT:      -6.1      2.764      5.376
REMARK  Name = 
REMARK  10 active torsions:
REMARK  status: ('A' for Active; 'I' for Inactive)
REMARK    1  A    between atoms: C_1  and  O_2
REMARK    2  A    between atoms: O_2  and  C_3
REMARK    3  A    between atoms: C_4  and  O_26
REMARK    4  A    between atoms: C_6  and  C_9
REMARK    5  A    between atoms: C_10  and  O_24
REMARK    6  A    between atoms: C_17  and  O_22
REMARK    7  A    between atoms: C_19  and  O_20
REMARK    8  A    between atoms: O_20  and  C_21
REMARK    9  A    between atoms: O_22  and  C_23
REMARK   10  A    between atoms: O_24  and  C_25
REMARK                            x       y       z     vdW  Elec       q    Type
REMARK                         _______ _______ _______ _____ _____    ______ ____
ROOT
ATOM      1  C   UNL     1       7.696  -0.143  24.183  0.00  0.00    +0.181 A 
ATOM      2  O   UNL     1       7.724  -1.083  23.163  0.00  0.00    -0.451 OA
ATOM      3  C   UNL     1       7.730  -2.420  23.487  0.00  0.00    +0.147 A 
ATOM      4  C   UNL     1       7.545  -3.300  22.412  0.00  0.00    +0.092 A 
ATOM      5  C   UNL     1       7.515  -4.674  22.624  0.00  0.00    +0.127 A 
ATOM      6  C   UNL     1       7.664  -5.148  23.924  0.00  0.00    +0.092 A 
ATOM      7  C   UNL     1       7.876  -4.287  25.023  0.00  0.00    +0.138 A 
ATOM      8  C   UNL     1       7.932  -2.900  24.786  0.00  0.00    +0.109 A 
ATOM      9  C   UNL     1       8.275  -1.858  25.772  0.00  0.00    +0.238 A 
ATOM     10  O   UNL     1       8.917  -2.103  26.786  0.00  0.00    -0.283 OA
ATOM     11  C   UNL     1       7.899  -0.438  25.484  0.00  0.00    +0.211 A 
ENDROOT
BRANCH   1  15
ATOM     12  C   UNL     1       7.331   3.767  22.451  0.00  0.00    +0.161 A 
ATOM     13  C   UNL     1       6.262   2.877  22.415  0.00  0.00    +0.050 A 
ATOM     14  C   UNL     1       6.381   1.621  23.027  0.00  0.00    +0.015 A 
ATOM     15  C   UNL     1       7.575   1.227  23.654  0.00  0.00    +0.025 A 
ATOM     16  C   UNL     1       8.627   2.140  23.738  0.00  0.00    +0.060 A 
ATOM     17  C   UNL     1       8.495   3.393  23.137  0.00  0.00    +0.159 A 
BRANCH  12  19
ATOM     18  C   UNL     1       6.719   6.062  22.535  0.00  0.00    +0.277 C 
ATOM     19  O   UNL     1       7.374   4.999  21.851  0.00  0.00    -0.491 OA
ENDBRANCH  12  19
BRANCH  17  20
ATOM     20  O   UNL     1       9.545   4.267  23.227  0.00  0.00    -0.503 OA
ATOM     21  H   UNL     1       9.303   4.884  23.946  0.00  0.00    +0.292 HD
ENDBRANCH  17  20
ENDBRANCH   1  15
BRANCH   5  22
ATOM     22  O   UNL     1       7.329  -5.446  21.512  0.00  0.00    -0.495 OA
ATOM     23  C   UNL     1       5.988  -5.829  21.216  0.00  0.00    +0.277 C 
ENDBRANCH   5  22
BRANCH   7  24
ATOM     24  O   UNL     1       7.984  -5.046  26.152  0.00  0.00    -0.494 OA
ATOM     25  C   UNL     1       6.990  -5.097  27.155  0.00  0.00    +0.277 C 
ENDBRANCH   7  24
BRANCH  11  26
ATOM     26  O   UNL     1       7.931   0.366  26.599  0.00  0.00    -0.488 OA
ATOM     27  C   UNL     1       6.775   0.756  27.315  0.00  0.00    +0.277 C 
ENDBRANCH  11  26
TORSDOF 6
ENDMDL
MODEL 9
REMARK VINA RESULT:      -6.1      2.091      4.142
REMARK  Name = 
REMARK  10 active torsions:
REMARK  status: ('A' for Active; 'I' for Inactive)
REMARK    1  A    between atoms: C_1  and  O_2
REMARK    2  A    between atoms: O_2  and  C_3
REMARK    3  A    between atoms: C_4  and  O_26
REMARK    4  A    between atoms: C_6  and  C_9
REMARK    5  A    between atoms: C_10  and  O_24
REMARK    6  A    between atoms: C_17  and  O_22
REMARK    7  A    between atoms: C_19  and  O_20
REMARK    8  A    between atoms: O_20  and  C_21
REMARK    9  A    between atoms: O_22  and  C_23
REMARK   10  A    between atoms: O_24  and  C_25
REMARK                            x       y       z     vdW  Elec       q    Type
REMARK                         _______ _______ _______ _____ _____    ______ ____
ROOT
ATOM      1  C   UNL     1       6.706  -1.478  24.233  0.00  0.00    +0.181 A 
ATOM      2  O   UNL     1       5.915  -2.278  23.421  0.00  0.00    -0.451 OA
ATOM      3  C   UNL     1       5.585  -3.543  23.847  0.00  0.00    +0.147 A 
ATOM      4  C   UNL     1       4.618  -4.204  23.077  0.00  0.00    +0.092 A 
ATOM      5  C   UNL     1       4.193  -5.482  23.426  0.00  0.00    +0.127 A 
ATOM      6  C   UNL     1       4.744  -6.078  24.556  0.00  0.00    +0.092 A 
ATOM      7  C   UNL     1       5.737  -5.447  25.336  0.00  0.00    +0.138 A 
ATOM      8  C   UNL     1       6.176  -4.165  24.953  0.00  0.00    +0.109 A 
ATOM      9  C   UNL     1       7.288  -3.405  25.555  0.00  0.00    +0.238 A 
ATOM     10  O   UNL     1       8.187  -3.950  26.182  0.00  0.00    -0.283 OA
ATOM     11  C   UNL     1       7.365  -1.930  25.321  0.00  0.00    +0.211 A 
ENDROOT
BRANCH   1  15
ATOM     12  C   UNL     1       6.964   2.452  22.527  0.00  0.00    +0.161 A 
ATOM     13  C   UNL     1       6.071   2.189  23.561  0.00  0.00    +0.050 A 
ATOM     14  C   UNL     1       6.033   0.912  24.140  0.00  0.00    +0.015 A 
ATOM     15  C   UNL     1       6.861  -0.123  23.675  0.00  0.00    +0.025 A 
ATOM     16  C   UNL     1       7.794   0.155  22.676  0.00  0.00    +0.060 A 
ATOM     17  C   UNL     1       7.834   1.433  22.114  0.00  0.00    +0.159 A 
BRANCH  12  19
ATOM     18  C   UNL     1       7.503   4.766  22.579  0.00  0.00    +0.277 C 
ATOM     19  O   UNL     1       7.072   3.631  21.835  0.00  0.00    -0.491 OA
ENDBRANCH  12  19
BRANCH  17  20
ATOM     20  O   UNL     1       8.754   1.678  21.130  0.00  0.00    -0.503 OA
ATOM     21  H   UNL     1       8.257   2.140  20.425  0.00  0.00    +0.292 HD
ENDBRANCH  17  20
ENDBRANCH   1  15
BRANCH   5  22
ATOM     22  O   UNL     1       3.248  -6.039  22.611  0.00  0.00    -0.495 OA
ATOM     23  C   UNL     1       1.992  -6.349  23.209  0.00  0.00    +0.277 C 
ENDBRANCH   5  22
BRANCH   7  24
ATOM     24  O   UNL     1       6.072  -6.280  26.365  0.00  0.00    -0.494 OA
ATOM     25  C   UNL     1       5.186  -6.619  27.413  0.00  0.00    +0.277 C 
ENDBRANCH   7  24
BRANCH  11  26
ATOM     26  O   UNL     1       8.199  -1.286  26.204  0.00  0.00    -0.488 OA
ATOM     27  C   UNL     1       7.749  -0.349  27.163  0.00  0.00    +0.277 C 
ENDBRANCH  11  26
TORSDOF 6
ENDMDL
