MODEL 1
REMARK VINA RESULT:      -7.2      0.000      0.000
REMARK  Name = 
REMARK  21 active torsions:
REMARK  status: ('A' for Active; 'I' for Inactive)
REMARK    1  A    between atoms: C_1  and  C_2
REMARK    2  A    between atoms: C_3  and  O_54
REMARK    3  A    between atoms: C_4  and  O_53
REMARK    4  A    between atoms: C_5  and  O_30
REMARK    5  A    between atoms: C_6  and  O_8
REMARK    6  A    between atoms: O_8  and  C_9
REMARK    7  A    between atoms: C_10  and  C_22
REMARK    8  A    between atoms: C_14  and  O_21
REMARK    9  A    between atoms: C_16  and  O_20
REMARK   10  A    between atoms: C_24  and  O_29
REMARK   11  A    between atoms: C_25  and  O_28
REMARK   12  A    between atoms: O_30  and  C_31
REMARK   13  A    between atoms: C_32  and  O_52
REMARK   14  A    between atoms: C_33  and  O_51
REMARK   15  A    between atoms: C_34  and  O_50
REMARK   16  A    between atoms: C_35  and  C_37
REMARK   17  A    between atoms: C_37  and  O_38
REMARK   18  A    between atoms: O_38  and  C_39
REMARK   19  A    between atoms: C_39  and  C_41
REMARK   20  A    between atoms: C_42  and  C_43
REMARK   21  A    between atoms: C_46  and  O_49
REMARK                            x       y       z     vdW  Elec       q    Type
REMARK                         _______ _______ _______ _____ _____    ______ ____
ROOT
ATOM      1  C   UNL     1       5.565   1.177  29.890  0.00  0.00    +0.041 C 
ATOM      2  C   UNL     1       5.520   0.028  28.878  0.00  0.00    +0.150 C 
ATOM      3  O   UNL     1       5.622   0.372  27.493  0.00  0.00    -0.334 OA
ATOM      4  C   UNL     1       4.440   0.666  26.701  0.00  0.00    +0.340 C 
ATOM      5  C   UNL     1       3.070  -0.070  27.113  0.00  0.00    +0.221 C 
ATOM      6  C   UNL     1       3.062  -0.105  28.653  0.00  0.00    +0.180 C 
ATOM      7  C   UNL     1       4.327  -0.857  29.129  0.00  0.00    +0.174 C 
ENDROOT
BRANCH   6   8
ATOM      8  O   UNL     1       1.864  -0.557  29.286  0.00  0.00    -0.386 OA
ATOM      9  H   UNL     1       1.829  -1.529  29.259  0.00  0.00    +0.210 HD
ENDBRANCH   6   8
BRANCH   7  10
ATOM     10  O   UNL     1       4.281  -1.283  30.485  0.00  0.00    -0.387 OA
ATOM     11  H   UNL     1       3.845  -0.584  31.000  0.00  0.00    +0.210 HD
ENDBRANCH   7  10
BRANCH   5  12
ATOM     12  O   UNL     1       2.955  -1.390  26.513  0.00  0.00    -0.337 OA
BRANCH  12  13
ATOM     13  C   UNL     1       1.895  -2.255  26.997  0.00  0.00    +0.282 C 
ATOM     14  O   UNL     1       2.415  -3.328  27.812  0.00  0.00    -0.339 OA
ATOM     15  C   UNL     1       3.449  -4.055  27.112  0.00  0.00    +0.190 C 
ATOM     16  C   UNL     1       2.974  -4.756  25.848  0.00  0.00    +0.178 C 
ATOM     17  C   UNL     1       2.138  -3.766  24.997  0.00  0.00    +0.179 C 
ATOM     18  C   UNL     1       1.145  -2.940  25.836  0.00  0.00    +0.201 C 
BRANCH  17  19
ATOM     19  O   UNL     1       1.413  -4.477  23.983  0.00  0.00    -0.386 OA
ATOM     20  H   UNL     1       2.011  -4.562  23.216  0.00  0.00    +0.210 HD
ENDBRANCH  17  19
BRANCH  16  21
ATOM     21  O   UNL     1       2.262  -5.957  26.122  0.00  0.00    -0.386 OA
ATOM     22  H   UNL     1       2.773  -6.710  25.782  0.00  0.00    +0.210 HD
ENDBRANCH  16  21
BRANCH  18  23
ATOM     23  O   UNL     1       0.462  -1.986  25.016  0.00  0.00    -0.384 OA
ATOM     24  H   UNL     1      -0.057  -1.429  25.626  0.00  0.00    +0.210 HD
ENDBRANCH  18  23
BRANCH  15  25
ATOM     25  C   UNL     1       4.399  -4.760  28.085  0.00  0.00    +0.266 C 
BRANCH  25  26
ATOM     26  O   UNL     1       5.735  -4.299  28.177  0.00  0.00    -0.459 OA
BRANCH  26  27
ATOM     27  C   UNL     1       6.568  -5.061  27.439  0.00  0.00    +0.332 C 
ATOM     28  O   UNL     1       7.366  -5.898  27.863  0.00  0.00    -0.246 OA
BRANCH  27  29
ATOM     29  C   UNL     1       6.391  -4.837  26.003  0.00  0.00    +0.092 C 
ATOM     30  C   UNL     1       7.222  -5.204  25.026  0.00  0.00    +0.015 C 
BRANCH  30  31
ATOM     31  C   UNL     1       6.855  -4.956  23.617  0.00  0.00    -0.025 A 
ATOM     32  C   UNL     1       6.208  -3.758  23.264  0.00  0.00    +0.011 A 
ATOM     33  C   UNL     1       5.859  -3.492  21.947  0.00  0.00    +0.046 A 
ATOM     34  C   UNL     1       6.126  -4.431  20.971  0.00  0.00    +0.117 A 
ATOM     35  C   UNL     1       6.727  -5.651  21.295  0.00  0.00    +0.046 A 
ATOM     36  C   UNL     1       7.089  -5.913  22.622  0.00  0.00    +0.011 A 
BRANCH  34  37
ATOM     37  O   UNL     1       5.782  -4.131  19.688  0.00  0.00    -0.507 OA
ATOM     38  H   UNL     1       4.846  -4.334  19.558  0.00  0.00    +0.292 HD
ENDBRANCH  34  37
ENDBRANCH  30  31
ENDBRANCH  27  29
ENDBRANCH  26  27
ENDBRANCH  25  26
ENDBRANCH  15  25
ENDBRANCH  12  13
ENDBRANCH   5  12
BRANCH   4  39
ATOM     39  O   UNL     1       4.807   0.359  25.316  0.00  0.00    -0.453 OA
BRANCH  39  40
ATOM     40  C   UNL     1       5.403   1.345  24.543  0.00  0.00    +0.214 A 
ATOM     41  C   UNL     1       4.602   2.590  24.228  0.00  0.00    +0.238 A 
ATOM     42  O   UNL     1       3.405   2.636  24.487  0.00  0.00    -0.283 OA
ATOM     43  C   UNL     1       5.266   3.711  23.563  0.00  0.00    +0.109 A 
ATOM     44  C   UNL     1       6.527   3.474  23.039  0.00  0.00    +0.147 A 
ATOM     45  C   UNL     1       7.208   4.485  22.347  0.00  0.00    +0.092 A 
ATOM     46  C   UNL     1       6.618   5.739  22.203  0.00  0.00    +0.124 A 
ATOM     47  C   UNL     1       5.359   5.995  22.728  0.00  0.00    +0.091 A 
ATOM     48  O   UNL     1       7.159   2.260  23.146  0.00  0.00    -0.451 OA
ATOM     49  C   UNL     1       4.683   4.980  23.408  0.00  0.00    +0.135 A 
ATOM     50  C   UNL     1       6.621   1.221  23.917  0.00  0.00    +0.181 A 
BRANCH  50  51
ATOM     51  C   UNL     1       7.563   0.020  23.861  0.00  0.00    +0.025 A 
ATOM     52  C   UNL     1       7.724  -0.759  25.046  0.00  0.00    +0.015 A 
ATOM     53  C   UNL     1       8.596  -1.859  25.142  0.00  0.00    +0.050 A 
ATOM     54  C   UNL     1       9.312  -2.247  24.032  0.00  0.00    +0.158 A 
ATOM     55  C   UNL     1       9.155  -1.552  22.835  0.00  0.00    +0.159 A 
ATOM     56  C   UNL     1       8.294  -0.430  22.735  0.00  0.00    +0.060 A 
BRANCH  55  57
ATOM     57  O   UNL     1       9.879  -2.022  21.771  0.00  0.00    -0.503 OA
ATOM     58  H   UNL     1      10.384  -2.800  22.063  0.00  0.00    +0.292 HD
ENDBRANCH  55  57
BRANCH  54  59
ATOM     59  O   UNL     1      10.148  -3.320  24.131  0.00  0.00    -0.503 OA
ATOM     60  H   UNL     1      11.050  -2.951  24.061  0.00  0.00    +0.292 HD
ENDBRANCH  54  59
ENDBRANCH  50  51
BRANCH  49  61
ATOM     61  O   UNL     1       3.453   5.266  23.933  0.00  0.00    -0.506 OA
ATOM     62  H   UNL     1       3.503   5.300  24.901  0.00  0.00    +0.292 HD
ENDBRANCH  49  61
BRANCH  46  63
ATOM     63  O   UNL     1       7.242   6.763  21.556  0.00  0.00    -0.507 OA
ATOM     64  H   UNL     1       7.063   7.599  22.018  0.00  0.00    +0.292 HD
ENDBRANCH  46  63
ENDBRANCH  39  40
ENDBRANCH   4  39
TORSDOF 20
ENDMDL
MODEL 2
REMARK VINA RESULT:      -7.0      2.402      5.374
REMARK  Name = 
REMARK  21 active torsions:
REMARK  status: ('A' for Active; 'I' for Inactive)
REMARK    1  A    between atoms: C_1  and  C_2
REMARK    2  A    between atoms: C_3  and  O_54
REMARK    3  A    between atoms: C_4  and  O_53
REMARK    4  A    between atoms: C_5  and  O_30
REMARK    5  A    between atoms: C_6  and  O_8
REMARK    6  A    between atoms: O_8  and  C_9
REMARK    7  A    between atoms: C_10  and  C_22
REMARK    8  A    between atoms: C_14  and  O_21
REMARK    9  A    between atoms: C_16  and  O_20
REMARK   10  A    between atoms: C_24  and  O_29
REMARK   11  A    between atoms: C_25  and  O_28
REMARK   12  A    between atoms: O_30  and  C_31
REMARK   13  A    between atoms: C_32  and  O_52
REMARK   14  A    between atoms: C_33  and  O_51
REMARK   15  A    between atoms: C_34  and  O_50
REMARK   16  A    between atoms: C_35  and  C_37
REMARK   17  A    between atoms: C_37  and  O_38
REMARK   18  A    between atoms: O_38  and  C_39
REMARK   19  A    between atoms: C_39  and  C_41
REMARK   20  A    between atoms: C_42  and  C_43
REMARK   21  A    between atoms: C_46  and  O_49
REMARK                            x       y       z     vdW  Elec       q    Type
REMARK                         _______ _______ _______ _____ _____    ______ ____
ROOT
ATOM      1  C   UNL     1       9.733   0.293  21.862  0.00  0.00    +0.041 C 
ATOM      2  C   UNL     1       8.374   0.463  22.546  0.00  0.00    +0.150 C 
ATOM      3  O   UNL     1       8.208   1.599  23.399  0.00  0.00    -0.334 OA
ATOM      4  C   UNL     1       8.533   1.533  24.814  0.00  0.00    +0.340 C 
ATOM      5  C   UNL     1       8.366   0.112  25.547  0.00  0.00    +0.221 C 
ATOM      6  C   UNL     1       8.836  -0.942  24.527  0.00  0.00    +0.180 C 
ATOM      7  C   UNL     1       7.971  -0.806  23.252  0.00  0.00    +0.174 C 
ENDROOT
BRANCH   6   8
ATOM      8  O   UNL     1       8.952  -2.288  24.991  0.00  0.00    -0.386 OA
ATOM      9  H   UNL     1       8.456  -2.390  25.822  0.00  0.00    +0.210 HD
ENDBRANCH   6   8
BRANCH   7  10
ATOM     10  O   UNL     1       8.037  -1.924  22.376  0.00  0.00    -0.387 OA
ATOM     11  H   UNL     1       7.129  -2.145  22.111  0.00  0.00    +0.210 HD
ENDBRANCH   7  10
BRANCH   5  12
ATOM     12  O   UNL     1       7.003  -0.110  26.007  0.00  0.00    -0.337 OA
BRANCH  12  13
ATOM     13  C   UNL     1       6.816  -0.436  27.409  0.00  0.00    +0.282 C 
ATOM     14  O   UNL     1       5.700  -1.331  27.602  0.00  0.00    -0.339 OA
ATOM     15  C   UNL     1       4.502  -0.806  26.989  0.00  0.00    +0.190 C 
ATOM     16  C   UNL     1       4.020   0.509  27.585  0.00  0.00    +0.178 C 
ATOM     17  C   UNL     1       5.217   1.488  27.699  0.00  0.00    +0.179 C 
ATOM     18  C   UNL     1       6.492   0.820  28.246  0.00  0.00    +0.201 C 
BRANCH  17  19
ATOM     19  O   UNL     1       4.871   2.593  28.547  0.00  0.00    -0.386 OA
ATOM     20  H   UNL     1       5.223   2.389  29.434  0.00  0.00    +0.210 HD
ENDBRANCH  17  19
BRANCH  16  21
ATOM     21  O   UNL     1       3.353   0.335  28.829  0.00  0.00    -0.386 OA
ATOM     22  H   UNL     1       2.408   0.180  28.661  0.00  0.00    +0.210 HD
ENDBRANCH  16  21
BRANCH  18  23
ATOM     23  O   UNL     1       7.585   1.744  28.252  0.00  0.00    -0.384 OA
ATOM     24  H   UNL     1       7.305   2.495  27.694  0.00  0.00    +0.210 HD
ENDBRANCH  18  23
BRANCH  15  25
ATOM     25  C   UNL     1       3.507  -1.919  26.649  0.00  0.00    +0.266 C 
BRANCH  25  26
ATOM     26  O   UNL     1       2.973  -2.693  27.707  0.00  0.00    -0.459 OA
BRANCH  26  27
ATOM     27  C   UNL     1       3.389  -3.974  27.637  0.00  0.00    +0.332 C 
ATOM     28  O   UNL     1       3.147  -4.869  28.447  0.00  0.00    -0.246 OA
BRANCH  27  29
ATOM     29  C   UNL     1       4.148  -4.239  26.413  0.00  0.00    +0.092 C 
ATOM     30  C   UNL     1       5.074  -5.181  26.232  0.00  0.00    +0.015 C 
BRANCH  30  31
ATOM     31  C   UNL     1       5.698  -5.354  24.904  0.00  0.00    -0.025 A 
ATOM     32  C   UNL     1       4.928  -5.830  23.827  0.00  0.00    +0.011 A 
ATOM     33  C   UNL     1       5.483  -5.993  22.566  0.00  0.00    +0.046 A 
ATOM     34  C   UNL     1       6.820  -5.709  22.370  0.00  0.00    +0.117 A 
ATOM     35  C   UNL     1       7.624  -5.276  23.429  0.00  0.00    +0.046 A 
ATOM     36  C   UNL     1       7.060  -5.101  24.699  0.00  0.00    +0.011 A 
BRANCH  34  37
ATOM     37  O   UNL     1       7.327  -5.868  21.116  0.00  0.00    -0.507 OA
ATOM     38  H   UNL     1       6.617  -6.151  20.524  0.00  0.00    +0.292 HD
ENDBRANCH  34  37
ENDBRANCH  30  31
ENDBRANCH  27  29
ENDBRANCH  26  27
ENDBRANCH  25  26
ENDBRANCH  15  25
ENDBRANCH  12  13
ENDBRANCH   5  12
BRANCH   4  39
ATOM     39  O   UNL     1       7.707   2.558  25.457  0.00  0.00    -0.453 OA
BRANCH  39  40
ATOM     40  C   UNL     1       7.037   3.479  24.663  0.00  0.00    +0.214 A 
ATOM     41  C   UNL     1       5.644   3.134  24.185  0.00  0.00    +0.238 A 
ATOM     42  O   UNL     1       5.202   2.000  24.337  0.00  0.00    -0.283 OA
ATOM     43  C   UNL     1       4.857   4.155  23.494  0.00  0.00    +0.109 A 
ATOM     44  C   UNL     1       5.525   5.303  23.099  0.00  0.00    +0.147 A 
ATOM     45  C   UNL     1       4.851   6.307  22.391  0.00  0.00    +0.092 A 
ATOM     46  C   UNL     1       3.497   6.155  22.100  0.00  0.00    +0.124 A 
ATOM     47  C   UNL     1       2.812   5.014  22.494  0.00  0.00    +0.091 A 
ATOM     48  O   UNL     1       6.858   5.511  23.353  0.00  0.00    -0.451 OA
ATOM     49  C   UNL     1       3.492   4.014  23.191  0.00  0.00    +0.135 A 
ATOM     50  C   UNL     1       7.596   4.628  24.154  0.00  0.00    +0.181 A 
BRANCH  50  51
ATOM     51  C   UNL     1       9.029   5.143  24.272  0.00  0.00    +0.025 A 
ATOM     52  C   UNL     1       9.284   6.206  25.190  0.00  0.00    +0.015 A 
ATOM     53  C   UNL     1      10.547   6.802  25.359  0.00  0.00    +0.050 A 
ATOM     54  C   UNL     1      11.618   6.321  24.641  0.00  0.00    +0.158 A 
ATOM     55  C   UNL     1      11.436   5.251  23.768  0.00  0.00    +0.159 A 
ATOM     56  C   UNL     1      10.163   4.658  23.576  0.00  0.00    +0.060 A 
BRANCH  55  57
ATOM     57  O   UNL     1      12.559   4.814  23.116  0.00  0.00    -0.503 OA
ATOM     58  H   UNL     1      13.004   5.582  22.722  0.00  0.00    +0.292 HD
ENDBRANCH  55  57
BRANCH  54  59
ATOM     59  O   UNL     1      12.841   6.899  24.819  0.00  0.00    -0.503 OA
ATOM     60  H   UNL     1      13.056   7.315  23.961  0.00  0.00    +0.292 HD
ENDBRANCH  54  59
ENDBRANCH  50  51
BRANCH  49  61
ATOM     61  O   UNL     1       2.787   2.910  23.585  0.00  0.00    -0.506 OA
ATOM     62  H   UNL     1       3.394   2.221  23.899  0.00  0.00    +0.292 HD
ENDBRANCH  49  61
BRANCH  46  63
ATOM     63  O   UNL     1       2.788   7.106  21.431  0.00  0.00    -0.507 OA
ATOM     64  H   UNL     1       1.919   6.752  21.181  0.00  0.00    +0.292 HD
ENDBRANCH  46  63
ENDBRANCH  39  40
ENDBRANCH   4  39
TORSDOF 20
ENDMDL
MODEL 3
REMARK VINA RESULT:      -6.7      2.342      4.928
REMARK  Name = 
REMARK  21 active torsions:
REMARK  status: ('A' for Active; 'I' for Inactive)
REMARK    1  A    between atoms: C_1  and  C_2
REMARK    2  A    between atoms: C_3  and  O_54
REMARK    3  A    between atoms: C_4  and  O_53
REMARK    4  A    between atoms: C_5  and  O_30
REMARK    5  A    between atoms: C_6  and  O_8
REMARK    6  A    between atoms: O_8  and  C_9
REMARK    7  A    between atoms: C_10  and  C_22
REMARK    8  A    between atoms: C_14  and  O_21
REMARK    9  A    between atoms: C_16  and  O_20
REMARK   10  A    between atoms: C_24  and  O_29
REMARK   11  A    between atoms: C_25  and  O_28
REMARK   12  A    between atoms: O_30  and  C_31
REMARK   13  A    between atoms: C_32  and  O_52
REMARK   14  A    between atoms: C_33  and  O_51
REMARK   15  A    between atoms: C_34  and  O_50
REMARK   16  A    between atoms: C_35  and  C_37
REMARK   17  A    between atoms: C_37  and  O_38
REMARK   18  A    between atoms: O_38  and  C_39
REMARK   19  A    between atoms: C_39  and  C_41
REMARK   20  A    between atoms: C_42  and  C_43
REMARK   21  A    between atoms: C_46  and  O_49
REMARK                            x       y       z     vdW  Elec       q    Type
REMARK                         _______ _______ _______ _____ _____    ______ ____
ROOT
ATOM      1  C   UNL     1       9.315  -3.798  26.697  0.00  0.00    +0.041 C 
ATOM      2  C   UNL     1       8.089  -3.643  25.792  0.00  0.00    +0.150 C 
ATOM      3  O   UNL     1       7.511  -2.339  25.691  0.00  0.00    -0.334 OA
ATOM      4  C   UNL     1       6.469  -1.903  26.605  0.00  0.00    +0.340 C 
ATOM      5  C   UNL     1       5.488  -3.029  27.201  0.00  0.00    +0.221 C 
ATOM      6  C   UNL     1       6.376  -4.260  27.464  0.00  0.00    +0.180 C 
ATOM      7  C   UNL     1       7.043  -4.673  26.132  0.00  0.00    +0.174 C 
ENDROOT
BRANCH   6   8
ATOM      8  O   UNL     1       5.780  -5.355  28.161  0.00  0.00    -0.386 OA
ATOM      9  H   UNL     1       6.457  -5.810  28.692  0.00  0.00    +0.210 HD
ENDBRANCH   6   8
BRANCH   7  10
ATOM     10  O   UNL     1       7.595  -5.984  26.132  0.00  0.00    -0.387 OA
ATOM     11  H   UNL     1       7.865  -6.190  27.043  0.00  0.00    +0.210 HD
ENDBRANCH   7  10
BRANCH   5  12
ATOM     12  O   UNL     1       4.373  -3.312  26.310  0.00  0.00    -0.337 OA
BRANCH  12  13
ATOM     13  C   UNL     1       3.549  -4.466  26.617  0.00  0.00    +0.282 C 
ATOM     14  O   UNL     1       3.878  -5.594  25.777  0.00  0.00    -0.339 OA
ATOM     15  C   UNL     1       3.829  -5.231  24.379  0.00  0.00    +0.190 C 
ATOM     16  C   UNL     1       2.450  -4.807  23.893  0.00  0.00    +0.178 C 
ATOM     17  C   UNL     1       1.850  -3.781  24.888  0.00  0.00    +0.179 C 
ATOM     18  C   UNL     1       2.053  -4.181  26.362  0.00  0.00    +0.201 C 
BRANCH  17  19
ATOM     19  O   UNL     1       0.446  -3.616  24.640  0.00  0.00    -0.386 OA
ATOM     20  H   UNL     1       0.140  -2.895  25.223  0.00  0.00    +0.210 HD
ENDBRANCH  17  19
BRANCH  16  21
ATOM     21  O   UNL     1       1.581  -5.911  23.677  0.00  0.00    -0.386 OA
ATOM     22  H   UNL     1       0.677  -5.580  23.549  0.00  0.00    +0.210 HD
ENDBRANCH  16  21
BRANCH  18  23
ATOM     23  O   UNL     1       1.556  -3.162  27.235  0.00  0.00    -0.384 OA
ATOM     24  H   UNL     1       0.809  -2.745  26.765  0.00  0.00    +0.210 HD
ENDBRANCH  18  23
BRANCH  15  25
ATOM     25  C   UNL     1       4.708  -6.149  23.526  0.00  0.00    +0.266 C 
BRANCH  25  26
ATOM     26  O   UNL     1       6.044  -5.759  23.272  0.00  0.00    -0.459 OA
BRANCH  26  27
ATOM     27  C   UNL     1       6.205  -5.361  21.993  0.00  0.00    +0.332 C 
ATOM     28  O   UNL     1       6.008  -6.039  20.984  0.00  0.00    -0.246 OA
BRANCH  27  29
ATOM     29  C   UNL     1       6.597  -3.953  21.900  0.00  0.00    +0.092 C 
ATOM     30  C   UNL     1       7.665  -3.381  22.456  0.00  0.00    +0.015 C 
BRANCH  30  31
ATOM     31  C   UNL     1       7.948  -1.953  22.204  0.00  0.00    -0.025 A 
ATOM     32  C   UNL     1       9.176  -1.574  21.632  0.00  0.00    +0.011 A 
ATOM     33  C   UNL     1       9.466  -0.242  21.375  0.00  0.00    +0.046 A 
ATOM     34  C   UNL     1       8.546   0.732  21.710  0.00  0.00    +0.117 A 
ATOM     35  C   UNL     1       7.335   0.392  22.321  0.00  0.00    +0.046 A 
ATOM     36  C   UNL     1       7.038  -0.953  22.570  0.00  0.00    +0.011 A 
BRANCH  34  37
ATOM     37  O   UNL     1       8.860   2.027  21.430  0.00  0.00    -0.507 OA
ATOM     38  H   UNL     1       9.698   2.050  20.949  0.00  0.00    +0.292 HD
ENDBRANCH  34  37
ENDBRANCH  30  31
ENDBRANCH  27  29
ENDBRANCH  26  27
ENDBRANCH  25  26
ENDBRANCH  15  25
ENDBRANCH  12  13
ENDBRANCH   5  12
BRANCH   4  39
ATOM     39  O   UNL     1       5.715  -0.876  25.883  0.00  0.00    -0.453 OA
BRANCH  39  40
ATOM     40  C   UNL     1       5.401   0.310  26.532  0.00  0.00    +0.214 A 
ATOM     41  C   UNL     1       4.029   0.444  27.155  0.00  0.00    +0.238 A 
ATOM     42  O   UNL     1       3.162  -0.393  26.927  0.00  0.00    -0.283 OA
ATOM     43  C   UNL     1       3.739   1.612  27.987  0.00  0.00    +0.109 A 
ATOM     44  C   UNL     1       4.656   2.650  27.956  0.00  0.00    +0.147 A 
ATOM     45  C   UNL     1       4.425   3.822  28.689  0.00  0.00    +0.092 A 
ATOM     46  C   UNL     1       3.275   3.932  29.467  0.00  0.00    +0.124 A 
ATOM     47  C   UNL     1       2.350   2.899  29.516  0.00  0.00    +0.091 A 
ATOM     48  O   UNL     1       5.805   2.603  27.206  0.00  0.00    -0.451 OA
ATOM     49  C   UNL     1       2.582   1.738  28.775  0.00  0.00    +0.135 A 
ATOM     50  C   UNL     1       6.191   1.436  26.531  0.00  0.00    +0.181 A 
BRANCH  50  51
ATOM     51  C   UNL     1       7.518   1.689  25.819  0.00  0.00    +0.025 A 
ATOM     52  C   UNL     1       7.742   2.985  25.265  0.00  0.00    +0.015 A 
ATOM     53  C   UNL     1       8.899   3.333  24.544  0.00  0.00    +0.050 A 
ATOM     54  C   UNL     1       9.900   2.401  24.388  0.00  0.00    +0.158 A 
ATOM     55  C   UNL     1       9.754   1.135  24.952  0.00  0.00    +0.159 A 
ATOM     56  C   UNL     1       8.583   0.770  25.662  0.00  0.00    +0.060 A 
BRANCH  55  57
ATOM     57  O   UNL     1      10.809   0.278  24.778  0.00  0.00    -0.503 OA
ATOM     58  H   UNL     1      10.492  -0.630  24.915  0.00  0.00    +0.292 HD
ENDBRANCH  55  57
BRANCH  54  59
ATOM     59  O   UNL     1      11.022   2.750  23.696  0.00  0.00    -0.503 OA
ATOM     60  H   UNL     1      11.020   3.727  23.681  0.00  0.00    +0.292 HD
ENDBRANCH  54  59
ENDBRANCH  50  51
BRANCH  49  61
ATOM     61  O   UNL     1       1.664   0.728  28.857  0.00  0.00    -0.506 OA
ATOM     62  H   UNL     1       1.918  -0.002  28.270  0.00  0.00    +0.292 HD
ENDBRANCH  49  61
BRANCH  46  63
ATOM     63  O   UNL     1       3.009   5.040  30.215  0.00  0.00    -0.507 OA
ATOM     64  H   UNL     1       3.807   5.306  30.702  0.00  0.00    +0.292 HD
ENDBRANCH  46  63
ENDBRANCH  39  40
ENDBRANCH   4  39
TORSDOF 20
ENDMDL
MODEL 4
REMARK VINA RESULT:      -6.6      2.845      9.363
REMARK  Name = 
REMARK  21 active torsions:
REMARK  status: ('A' for Active; 'I' for Inactive)
REMARK    1  A    between atoms: C_1  and  C_2
REMARK    2  A    between atoms: C_3  and  O_54
REMARK    3  A    between atoms: C_4  and  O_53
REMARK    4  A    between atoms: C_5  and  O_30
REMARK    5  A    between atoms: C_6  and  O_8
REMARK    6  A    between atoms: O_8  and  C_9
REMARK    7  A    between atoms: C_10  and  C_22
REMARK    8  A    between atoms: C_14  and  O_21
REMARK    9  A    between atoms: C_16  and  O_20
REMARK   10  A    between atoms: C_24  and  O_29
REMARK   11  A    between atoms: C_25  and  O_28
REMARK   12  A    between atoms: O_30  and  C_31
REMARK   13  A    between atoms: C_32  and  O_52
REMARK   14  A    between atoms: C_33  and  O_51
REMARK   15  A    between atoms: C_34  and  O_50
REMARK   16  A    between atoms: C_35  and  C_37
REMARK   17  A    between atoms: C_37  and  O_38
REMARK   18  A    between atoms: O_38  and  C_39
REMARK   19  A    between atoms: C_39  and  C_41
REMARK   20  A    between atoms: C_42  and  C_43
REMARK   21  A    between atoms: C_46  and  O_49
REMARK                            x       y       z     vdW  Elec       q    Type
REMARK                         _______ _______ _______ _____ _____    ______ ____
ROOT
ATOM      1  C   UNL     1       9.809  -1.236  23.252  0.00  0.00    +0.041 C 
ATOM      2  C   UNL     1       8.982  -0.397  24.230  0.00  0.00    +0.150 C 
ATOM      3  O   UNL     1       7.693  -0.898  24.594  0.00  0.00    -0.334 OA
ATOM      4  C   UNL     1       6.507  -0.558  23.826  0.00  0.00    +0.340 C 
ATOM      5  C   UNL     1       6.488   0.868  23.085  0.00  0.00    +0.221 C 
ATOM      6  C   UNL     1       7.920   1.084  22.560  0.00  0.00    +0.180 C 
ATOM      7  C   UNL     1       8.893   1.033  23.760  0.00  0.00    +0.174 C 
ENDROOT
BRANCH   6   8
ATOM      8  O   UNL     1       8.135   2.209  21.705  0.00  0.00    -0.386 OA
ATOM      9  H   UNL     1       7.277   2.572  21.423  0.00  0.00    +0.210 HD
ENDBRANCH   6   8
BRANCH   7  10
ATOM     10  O   UNL     1      10.183   1.566  23.495  0.00  0.00    -0.387 OA
ATOM     11  H   UNL     1      10.166   2.510  23.725  0.00  0.00    +0.210 HD
ENDBRANCH   7  10
BRANCH   5  12
ATOM     12  O   UNL     1       6.037   1.937  23.963  0.00  0.00    -0.337 OA
BRANCH  12  13
ATOM     13  C   UNL     1       4.689   2.436  23.770  0.00  0.00    +0.282 C 
ATOM     14  O   UNL     1       4.690   3.767  23.210  0.00  0.00    -0.339 OA
ATOM     15  C   UNL     1       5.506   4.661  23.999  0.00  0.00    +0.190 C 
ATOM     16  C   UNL     1       5.009   4.867  25.423  0.00  0.00    +0.178 C 
ATOM     17  C   UNL     1       4.692   3.489  26.058  0.00  0.00    +0.179 C 
ATOM     18  C   UNL     1       3.926   2.549  25.107  0.00  0.00    +0.201 C 
BRANCH  17  19
ATOM     19  O   UNL     1       3.923   3.664  27.257  0.00  0.00    -0.386 OA
ATOM     20  H   UNL     1       3.278   4.375  27.077  0.00  0.00    +0.210 HD
ENDBRANCH  17  19
BRANCH  16  21
ATOM     21  O   UNL     1       3.901   5.755  25.493  0.00  0.00    -0.386 OA
ATOM     22  H   UNL     1       3.632   5.849  26.423  0.00  0.00    +0.210 HD
ENDBRANCH  16  21
BRANCH  18  23
ATOM     23  O   UNL     1       3.734   1.266  25.712  0.00  0.00    -0.384 OA
ATOM     24  H   UNL     1       4.592   1.023  26.106  0.00  0.00    +0.210 HD
ENDBRANCH  18  23
BRANCH  15  25
ATOM     25  C   UNL     1       6.010   5.846  23.170  0.00  0.00    +0.266 C 
BRANCH  25  26
ATOM     26  O   UNL     1       6.128   7.108  23.799  0.00  0.00    -0.459 OA
BRANCH  26  27
ATOM     27  C   UNL     1       6.915   7.040  24.893  0.00  0.00    +0.332 C 
ATOM     28  O   UNL     1       6.547   7.108  26.066  0.00  0.00    -0.246 OA
BRANCH  27  29
ATOM     29  C   UNL     1       8.318   6.805  24.547  0.00  0.00    +0.092 C 
ATOM     30  C   UNL     1       9.085   5.794  24.955  0.00  0.00    +0.015 C 
BRANCH  30  31
ATOM     31  C   UNL     1      10.470   5.673  24.454  0.00  0.00    -0.025 A 
ATOM     32  C   UNL     1      10.818   4.601  23.612  0.00  0.00    +0.011 A 
ATOM     33  C   UNL     1      12.107   4.467  23.117  0.00  0.00    +0.046 A 
ATOM     34  C   UNL     1      13.073   5.385  23.479  0.00  0.00    +0.117 A 
ATOM     35  C   UNL     1      12.771   6.437  24.350  0.00  0.00    +0.046 A 
ATOM     36  C   UNL     1      11.467   6.578  24.839  0.00  0.00    +0.011 A 
BRANCH  34  37
ATOM     37  O   UNL     1      14.323   5.229  22.964  0.00  0.00    -0.507 OA
ATOM     38  H   UNL     1      14.966   5.254  23.685  0.00  0.00    +0.292 HD
ENDBRANCH  34  37
ENDBRANCH  30  31
ENDBRANCH  27  29
ENDBRANCH  26  27
ENDBRANCH  25  26
ENDBRANCH  15  25
ENDBRANCH  12  13
ENDBRANCH   5  12
BRANCH   4  39
ATOM     39  O   UNL     1       5.384  -0.682  24.759  0.00  0.00    -0.453 OA
BRANCH  39  40
ATOM     40  C   UNL     1       5.340  -1.770  25.620  0.00  0.00    +0.214 A 
ATOM     41  C   UNL     1       4.997  -3.126  25.043  0.00  0.00    +0.238 A 
ATOM     42  O   UNL     1       4.587  -3.222  23.891  0.00  0.00    -0.283 OA
ATOM     43  C   UNL     1       5.112  -4.310  25.895  0.00  0.00    +0.109 A 
ATOM     44  C   UNL     1       5.292  -4.092  27.252  0.00  0.00    +0.147 A 
ATOM     45  C   UNL     1       5.363  -5.175  28.139  0.00  0.00    +0.092 A 
ATOM     46  C   UNL     1       5.272  -6.475  27.648  0.00  0.00    +0.124 A 
ATOM     47  C   UNL     1       5.100  -6.711  26.291  0.00  0.00    +0.091 A 
ATOM     48  O   UNL     1       5.385  -2.836  27.796  0.00  0.00    -0.451 OA
ATOM     49  C   UNL     1       5.020  -5.627  25.414  0.00  0.00    +0.135 A 
ATOM     50  C   UNL     1       5.444  -1.691  26.989  0.00  0.00    +0.181 A 
BRANCH  50  51
ATOM     51  C   UNL     1       5.574  -0.459  27.881  0.00  0.00    +0.025 A 
ATOM     52  C   UNL     1       4.539  -0.209  28.831  0.00  0.00    +0.015 A 
ATOM     53  C   UNL     1       4.514   0.914  29.678  0.00  0.00    +0.050 A 
ATOM     54  C   UNL     1       5.557   1.812  29.634  0.00  0.00    +0.158 A 
ATOM     55  C   UNL     1       6.619   1.590  28.760  0.00  0.00    +0.159 A 
ATOM     56  C   UNL     1       6.642   0.472  27.888  0.00  0.00    +0.060 A 
BRANCH  55  57
ATOM     57  O   UNL     1       7.630   2.513  28.800  0.00  0.00    -0.503 OA
ATOM     58  H   UNL     1       8.479   2.041  28.771  0.00  0.00    +0.292 HD
ENDBRANCH  55  57
BRANCH  54  59
ATOM     59  O   UNL     1       5.530   2.893  30.465  0.00  0.00    -0.503 OA
ATOM     60  H   UNL     1       4.800   2.717  31.091  0.00  0.00    +0.292 HD
ENDBRANCH  54  59
ENDBRANCH  50  51
BRANCH  49  61
ATOM     61  O   UNL     1       4.870  -5.888  24.080  0.00  0.00    -0.506 OA
ATOM     62  H   UNL     1       4.393  -5.161  23.650  0.00  0.00    +0.292 HD
ENDBRANCH  49  61
BRANCH  46  63
ATOM     63  O   UNL     1       5.355  -7.565  28.462  0.00  0.00    -0.507 OA
ATOM     64  H   UNL     1       5.511  -7.279  29.377  0.00  0.00    +0.292 HD
ENDBRANCH  46  63
ENDBRANCH  39  40
ENDBRANCH   4  39
TORSDOF 20
ENDMDL
MODEL 5
REMARK VINA RESULT:      -6.4      2.602      9.035
REMARK  Name = 
REMARK  21 active torsions:
REMARK  status: ('A' for Active; 'I' for Inactive)
REMARK    1  A    between atoms: C_1  and  C_2
REMARK    2  A    between atoms: C_3  and  O_54
REMARK    3  A    between atoms: C_4  and  O_53
REMARK    4  A    between atoms: C_5  and  O_30
REMARK    5  A    between atoms: C_6  and  O_8
REMARK    6  A    between atoms: O_8  and  C_9
REMARK    7  A    between atoms: C_10  and  C_22
REMARK    8  A    between atoms: C_14  and  O_21
REMARK    9  A    between atoms: C_16  and  O_20
REMARK   10  A    between atoms: C_24  and  O_29
REMARK   11  A    between atoms: C_25  and  O_28
REMARK   12  A    between atoms: O_30  and  C_31
REMARK   13  A    between atoms: C_32  and  O_52
REMARK   14  A    between atoms: C_33  and  O_51
REMARK   15  A    between atoms: C_34  and  O_50
REMARK   16  A    between atoms: C_35  and  C_37
REMARK   17  A    between atoms: C_37  and  O_38
REMARK   18  A    between atoms: O_38  and  C_39
REMARK   19  A    between atoms: C_39  and  C_41
REMARK   20  A    between atoms: C_42  and  C_43
REMARK   21  A    between atoms: C_46  and  O_49
REMARK                            x       y       z     vdW  Elec       q    Type
REMARK                         _______ _______ _______ _____ _____    ______ ____
ROOT
ATOM      1  C   UNL     1      10.166  -2.998  24.109  0.00  0.00    +0.041 C 
ATOM      2  C   UNL     1       9.294  -1.785  24.444  0.00  0.00    +0.150 C 
ATOM      3  O   UNL     1       7.889  -2.009  24.587  0.00  0.00    -0.334 OA
ATOM      4  C   UNL     1       6.991  -1.915  23.448  0.00  0.00    +0.340 C 
ATOM      5  C   UNL     1       7.393  -0.898  22.269  0.00  0.00    +0.221 C 
ATOM      6  C   UNL     1       8.923  -1.009  22.126  0.00  0.00    +0.180 C 
ATOM      7  C   UNL     1       9.566  -0.653  23.487  0.00  0.00    +0.174 C 
ENDROOT
BRANCH   6   8
ATOM      8  O   UNL     1       9.523  -0.330  21.022  0.00  0.00    -0.386 OA
ATOM      9  H   UNL     1      10.224  -0.887  20.640  0.00  0.00    +0.210 HD
ENDBRANCH   6   8
BRANCH   7  10
ATOM     10  O   UNL     1      10.956  -0.361  23.421  0.00  0.00    -0.387 OA
ATOM     11  H   UNL     1      11.100   0.490  23.866  0.00  0.00    +0.210 HD
ENDBRANCH   7  10
BRANCH   5  12
ATOM     12  O   UNL     1       6.944   0.460  22.539  0.00  0.00    -0.337 OA
BRANCH  12  13
ATOM     13  C   UNL     1       7.784   1.285  23.387  0.00  0.00    +0.282 C 
ATOM     14  O   UNL     1       7.079   1.724  24.568  0.00  0.00    -0.339 OA
ATOM     15  C   UNL     1       5.835   2.371  24.218  0.00  0.00    +0.190 C 
ATOM     16  C   UNL     1       6.002   3.644  23.401  0.00  0.00    +0.178 C 
ATOM     17  C   UNL     1       6.987   3.377  22.234  0.00  0.00    +0.179 C 
ATOM     18  C   UNL     1       8.229   2.574  22.665  0.00  0.00    +0.201 C 
BRANCH  17  19
ATOM     19  O   UNL     1       7.414   4.619  21.654  0.00  0.00    -0.386 OA
ATOM     20  H   UNL     1       8.084   4.995  22.257  0.00  0.00    +0.210 HD
ENDBRANCH  17  19
BRANCH  16  21
ATOM     21  O   UNL     1       6.403   4.756  24.193  0.00  0.00    -0.386 OA
ATOM     22  H   UNL     1       7.363   4.710  24.336  0.00  0.00    +0.210 HD
ENDBRANCH  16  21
BRANCH  18  23
ATOM     23  O   UNL     1       9.060   2.285  21.536  0.00  0.00    -0.384 OA
ATOM     24  H   UNL     1       9.784   1.723  21.872  0.00  0.00    +0.210 HD
ENDBRANCH  18  23
BRANCH  15  25
ATOM     25  C   UNL     1       4.824   2.309  25.366  0.00  0.00    +0.266 C 
BRANCH  25  26
ATOM     26  O   UNL     1       3.469   2.040  25.059  0.00  0.00    -0.459 OA
BRANCH  26  27
ATOM     27  C   UNL     1       2.796   3.174  24.774  0.00  0.00    +0.332 C 
ATOM     28  O   UNL     1       2.488   4.063  25.568  0.00  0.00    -0.246 OA
BRANCH  27  29
ATOM     29  C   UNL     1       2.498   3.293  23.345  0.00  0.00    +0.092 C 
ATOM     30  C   UNL     1       2.307   4.419  22.657  0.00  0.00    +0.015 C 
BRANCH  30  31
ATOM     31  C   UNL     1       2.079   4.359  21.199  0.00  0.00    -0.025 A 
ATOM     32  C   UNL     1       2.041   5.548  20.448  0.00  0.00    +0.011 A 
ATOM     33  C   UNL     1       1.839   5.523  19.076  0.00  0.00    +0.046 A 
ATOM     34  C   UNL     1       1.644   4.314  18.439  0.00  0.00    +0.117 A 
ATOM     35  C   UNL     1       1.631   3.117  19.162  0.00  0.00    +0.046 A 
ATOM     36  C   UNL     1       1.847   3.142  20.546  0.00  0.00    +0.011 A 
BRANCH  34  37
ATOM     37  O   UNL     1       1.462   4.327  17.090  0.00  0.00    -0.507 OA
ATOM     38  H   UNL     1       1.479   3.419  16.761  0.00  0.00    +0.292 HD
ENDBRANCH  34  37
ENDBRANCH  30  31
ENDBRANCH  27  29
ENDBRANCH  26  27
ENDBRANCH  25  26
ENDBRANCH  15  25
ENDBRANCH  12  13
ENDBRANCH   5  12
BRANCH   4  39
ATOM     39  O   UNL     1       5.678  -1.581  24.007  0.00  0.00    -0.453 OA
BRANCH  39  40
ATOM     40  C   UNL     1       5.010  -2.528  24.769  0.00  0.00    +0.214 A 
ATOM     41  C   UNL     1       4.434  -3.737  24.066  0.00  0.00    +0.238 A 
ATOM     42  O   UNL     1       4.394  -3.779  22.841  0.00  0.00    -0.283 OA
ATOM     43  C   UNL     1       3.878  -4.827  24.868  0.00  0.00    +0.109 A 
ATOM     44  C   UNL     1       3.688  -4.580  26.218  0.00  0.00    +0.147 A 
ATOM     45  C   UNL     1       3.116  -5.558  27.043  0.00  0.00    +0.092 A 
ATOM     46  C   UNL     1       2.755  -6.790  26.503  0.00  0.00    +0.124 A 
ATOM     47  C   UNL     1       2.946  -7.057  25.154  0.00  0.00    +0.091 A 
ATOM     48  O   UNL     1       4.019  -3.386  26.808  0.00  0.00    -0.451 OA
ATOM     49  C   UNL     1       3.507  -6.074  24.336  0.00  0.00    +0.135 A 
ATOM     50  C   UNL     1       4.703  -2.386  26.102  0.00  0.00    +0.181 A 
BRANCH  50  51
ATOM     51  C   UNL     1       4.951  -1.201  27.033  0.00  0.00    +0.025 A 
ATOM     52  C   UNL     1       3.835  -0.661  27.739  0.00  0.00    +0.015 A 
ATOM     53  C   UNL     1       3.919   0.458  28.589  0.00  0.00    +0.050 A 
ATOM     54  C   UNL     1       5.143   1.053  28.797  0.00  0.00    +0.158 A 
ATOM     55  C   UNL     1       6.274   0.534  28.172  0.00  0.00    +0.159 A 
ATOM     56  C   UNL     1       6.195  -0.579  27.298  0.00  0.00    +0.060 A 
BRANCH  55  57
ATOM     57  O   UNL     1       7.457   1.165  28.457  0.00  0.00    -0.503 OA
ATOM     58  H   UNL     1       7.256   2.029  28.855  0.00  0.00    +0.292 HD
ENDBRANCH  55  57
BRANCH  54  59
ATOM     59  O   UNL     1       5.216   2.130  29.630  0.00  0.00    -0.503 OA
ATOM     60  H   UNL     1       6.111   2.498  29.496  0.00  0.00    +0.292 HD
ENDBRANCH  54  59
ENDBRANCH  50  51
BRANCH  49  61
ATOM     61  O   UNL     1       3.702  -6.370  23.015  0.00  0.00    -0.506 OA
ATOM     62  H   UNL     1       4.651  -6.426  22.823  0.00  0.00    +0.292 HD
ENDBRANCH  49  61
BRANCH  46  63
ATOM     63  O   UNL     1       2.214  -7.784  27.262  0.00  0.00    -0.507 OA
ATOM     64  H   UNL     1       2.860  -8.079  27.925  0.00  0.00    +0.292 HD
ENDBRANCH  46  63
ENDBRANCH  39  40
ENDBRANCH   4  39
TORSDOF 20
ENDMDL
MODEL 6
REMARK VINA RESULT:      -6.2      3.470      7.194
REMARK  Name = 
REMARK  21 active torsions:
REMARK  status: ('A' for Active; 'I' for Inactive)
REMARK    1  A    between atoms: C_1  and  C_2
REMARK    2  A    between atoms: C_3  and  O_54
REMARK    3  A    between atoms: C_4  and  O_53
REMARK    4  A    between atoms: C_5  and  O_30
REMARK    5  A    between atoms: C_6  and  O_8
REMARK    6  A    between atoms: O_8  and  C_9
REMARK    7  A    between atoms: C_10  and  C_22
REMARK    8  A    between atoms: C_14  and  O_21
REMARK    9  A    between atoms: C_16  and  O_20
REMARK   10  A    between atoms: C_24  and  O_29
REMARK   11  A    between atoms: C_25  and  O_28
REMARK   12  A    between atoms: O_30  and  C_31
REMARK   13  A    between atoms: C_32  and  O_52
REMARK   14  A    between atoms: C_33  and  O_51
REMARK   15  A    between atoms: C_34  and  O_50
REMARK   16  A    between atoms: C_35  and  C_37
REMARK   17  A    between atoms: C_37  and  O_38
REMARK   18  A    between atoms: O_38  and  C_39
REMARK   19  A    between atoms: C_39  and  C_41
REMARK   20  A    between atoms: C_42  and  C_43
REMARK   21  A    between atoms: C_46  and  O_49
REMARK                            x       y       z     vdW  Elec       q    Type
REMARK                         _______ _______ _______ _____ _____    ______ ____
ROOT
ATOM      1  C   UNL     1       6.082  -1.924  26.731  0.00  0.00    +0.041 C 
ATOM      2  C   UNL     1       5.356  -0.740  26.085  0.00  0.00    +0.150 C 
ATOM      3  O   UNL     1       6.138   0.149  25.284  0.00  0.00    -0.334 OA
ATOM      4  C   UNL     1       6.795   1.307  25.867  0.00  0.00    +0.340 C 
ATOM      5  C   UNL     1       6.097   1.990  27.145  0.00  0.00    +0.221 C 
ATOM      6  C   UNL     1       5.541   0.827  27.988  0.00  0.00    +0.180 C 
ATOM      7  C   UNL     1       4.555   0.019  27.112  0.00  0.00    +0.174 C 
ENDROOT
BRANCH   6   8
ATOM      8  O   UNL     1       5.017   1.151  29.276  0.00  0.00    -0.386 OA
ATOM      9  H   UNL     1       4.879   2.113  29.339  0.00  0.00    +0.210 HD
ENDBRANCH   6   8
BRANCH   7  10
ATOM     10  O   UNL     1       3.700  -0.852  27.841  0.00  0.00    -0.387 OA
ATOM     11  H   UNL     1       3.569  -1.653  27.307  0.00  0.00    +0.210 HD
ENDBRANCH   7  10
BRANCH   5  12
ATOM     12  O   UNL     1       5.077   2.954  26.762  0.00  0.00    -0.337 OA
BRANCH  12  13
ATOM     13  C   UNL     1       4.852   4.077  27.653  0.00  0.00    +0.282 C 
ATOM     14  O   UNL     1       3.443   4.351  27.817  0.00  0.00    -0.339 OA
ATOM     15  C   UNL     1       2.795   4.518  26.536  0.00  0.00    +0.190 C 
ATOM     16  C   UNL     1       3.304   5.704  25.729  0.00  0.00    +0.178 C 
ATOM     17  C   UNL     1       4.854   5.685  25.714  0.00  0.00    +0.179 C 
ATOM     18  C   UNL     1       5.466   5.378  27.094  0.00  0.00    +0.201 C 
BRANCH  17  19
ATOM     19  O   UNL     1       5.358   6.947  25.252  0.00  0.00    -0.386 OA
ATOM     20  H   UNL     1       4.873   7.161  24.432  0.00  0.00    +0.210 HD
ENDBRANCH  17  19
BRANCH  16  21
ATOM     21  O   UNL     1       2.789   6.945  26.194  0.00  0.00    -0.386 OA
ATOM     22  H   UNL     1       3.129   7.111  27.090  0.00  0.00    +0.210 HD
ENDBRANCH  16  21
BRANCH  18  23
ATOM     23  O   UNL     1       6.892   5.291  27.006  0.00  0.00    -0.384 OA
ATOM     24  H   UNL     1       7.079   4.622  26.320  0.00  0.00    +0.210 HD
ENDBRANCH  18  23
BRANCH  15  25
ATOM     25  C   UNL     1       1.296   4.217  26.619  0.00  0.00    +0.266 C 
BRANCH  25  26
ATOM     26  O   UNL     1       0.554   4.147  25.416  0.00  0.00    -0.459 OA
BRANCH  26  27
ATOM     27  C   UNL     1       0.785   2.990  24.763  0.00  0.00    +0.332 C 
ATOM     28  O   UNL     1       0.802   1.861  25.255  0.00  0.00    -0.246 OA
BRANCH  27  29
ATOM     29  C   UNL     1       0.963   3.196  23.324  0.00  0.00    +0.092 C 
ATOM     30  C   UNL     1       1.433   4.291  22.724  0.00  0.00    +0.015 C 
BRANCH  30  31
ATOM     31  C   UNL     1       1.611   4.305  21.258  0.00  0.00    -0.025 A 
ATOM     32  C   UNL     1       1.764   5.531  20.584  0.00  0.00    +0.011 A 
ATOM     33  C   UNL     1       1.943   5.576  19.209  0.00  0.00    +0.046 A 
ATOM     34  C   UNL     1       1.943   4.400  18.485  0.00  0.00    +0.117 A 
ATOM     35  C   UNL     1       1.748   3.169  19.118  0.00  0.00    +0.046 A 
ATOM     36  C   UNL     1       1.580   3.124  20.507  0.00  0.00    +0.011 A 
BRANCH  34  37
ATOM     37  O   UNL     1       2.134   4.483  17.139  0.00  0.00    -0.507 OA
ATOM     38  H   UNL     1       2.319   3.600  16.793  0.00  0.00    +0.292 HD
ENDBRANCH  34  37
ENDBRANCH  30  31
ENDBRANCH  27  29
ENDBRANCH  26  27
ENDBRANCH  25  26
ENDBRANCH  15  25
ENDBRANCH  12  13
ENDBRANCH   5  12
BRANCH   4  39
ATOM     39  O   UNL     1       6.945   2.269  24.772  0.00  0.00    -0.453 OA
BRANCH  39  40
ATOM     40  C   UNL     1       8.220   2.591  24.328  0.00  0.00    +0.214 A 
ATOM     41  C   UNL     1       8.614   4.050  24.279  0.00  0.00    +0.238 A 
ATOM     42  O   UNL     1       7.770   4.924  24.445  0.00  0.00    -0.283 OA
ATOM     43  C   UNL     1      10.002   4.401  23.979  0.00  0.00    +0.109 A 
ATOM     44  C   UNL     1      10.821   3.384  23.514  0.00  0.00    +0.147 A 
ATOM     45  C   UNL     1      12.151   3.651  23.160  0.00  0.00    +0.092 A 
ATOM     46  C   UNL     1      12.653   4.943  23.295  0.00  0.00    +0.124 A 
ATOM     47  C   UNL     1      11.849   5.971  23.767  0.00  0.00    +0.091 A 
ATOM     48  O   UNL     1      10.383   2.092  23.356  0.00  0.00    -0.451 OA
ATOM     49  C   UNL     1      10.523   5.700  24.108  0.00  0.00    +0.135 A 
ATOM     50  C   UNL     1       9.111   1.693  23.789  0.00  0.00    +0.181 A 
BRANCH  50  51
ATOM     51  C   UNL     1       8.933   0.203  23.503  0.00  0.00    +0.025 A 
ATOM     52  C   UNL     1       7.867  -0.188  22.639  0.00  0.00    +0.015 A 
ATOM     53  C   UNL     1       7.566  -1.528  22.332  0.00  0.00    +0.050 A 
ATOM     54  C   UNL     1       8.356  -2.530  22.851  0.00  0.00    +0.158 A 
ATOM     55  C   UNL     1       9.440  -2.201  23.661  0.00  0.00    +0.159 A 
ATOM     56  C   UNL     1       9.738  -0.854  23.991  0.00  0.00    +0.060 A 
BRANCH  55  57
ATOM     57  O   UNL     1      10.193  -3.254  24.110  0.00  0.00    -0.503 OA
ATOM     58  H   UNL     1       9.797  -4.077  23.780  0.00  0.00    +0.292 HD
ENDBRANCH  55  57
BRANCH  54  59
ATOM     59  O   UNL     1       8.062  -3.825  22.541  0.00  0.00    -0.503 OA
ATOM     60  H   UNL     1       7.780  -3.808  21.606  0.00  0.00    +0.292 HD
ENDBRANCH  54  59
ENDBRANCH  50  51
BRANCH  49  61
ATOM     61  O   UNL     1       9.759   6.727  24.589  0.00  0.00    -0.506 OA
ATOM     62  H   UNL     1      10.126   7.053  25.426  0.00  0.00    +0.292 HD
ENDBRANCH  49  61
BRANCH  46  63
ATOM     63  O   UNL     1      13.943   5.255  22.985  0.00  0.00    -0.507 OA
ATOM     64  H   UNL     1      14.008   5.476  22.042  0.00  0.00    +0.292 HD
ENDBRANCH  46  63
ENDBRANCH  39  40
ENDBRANCH   4  39
TORSDOF 20
ENDMDL
MODEL 7
REMARK VINA RESULT:      -6.2      2.350      5.335
REMARK  Name = 
REMARK  21 active torsions:
REMARK  status: ('A' for Active; 'I' for Inactive)
REMARK    1  A    between atoms: C_1  and  C_2
REMARK    2  A    between atoms: C_3  and  O_54
REMARK    3  A    between atoms: C_4  and  O_53
REMARK    4  A    between atoms: C_5  and  O_30
REMARK    5  A    between atoms: C_6  and  O_8
REMARK    6  A    between atoms: O_8  and  C_9
REMARK    7  A    between atoms: C_10  and  C_22
REMARK    8  A    between atoms: C_14  and  O_21
REMARK    9  A    between atoms: C_16  and  O_20
REMARK   10  A    between atoms: C_24  and  O_29
REMARK   11  A    between atoms: C_25  and  O_28
REMARK   12  A    between atoms: O_30  and  C_31
REMARK   13  A    between atoms: C_32  and  O_52
REMARK   14  A    between atoms: C_33  and  O_51
REMARK   15  A    between atoms: C_34  and  O_50
REMARK   16  A    between atoms: C_35  and  C_37
REMARK   17  A    between atoms: C_37  and  O_38
REMARK   18  A    between atoms: O_38  and  C_39
REMARK   19  A    between atoms: C_39  and  C_41
REMARK   20  A    between atoms: C_42  and  C_43
REMARK   21  A    between atoms: C_46  and  O_49
REMARK                            x       y       z     vdW  Elec       q    Type
REMARK                         _______ _______ _______ _____ _____    ______ ____
ROOT
ATOM      1  C   UNL     1       8.924   0.726  21.947  0.00  0.00    +0.041 C 
ATOM      2  C   UNL     1       7.706   0.124  22.655  0.00  0.00    +0.150 C 
ATOM      3  O   UNL     1       6.591   0.988  22.886  0.00  0.00    -0.334 OA
ATOM      4  C   UNL     1       6.486   1.774  24.104  0.00  0.00    +0.340 C 
ATOM      5  C   UNL     1       7.157   1.171  25.435  0.00  0.00    +0.221 C 
ATOM      6  C   UNL     1       8.466   0.502  24.976  0.00  0.00    +0.180 C 
ATOM      7  C   UNL     1       8.120  -0.576  23.924  0.00  0.00    +0.174 C 
ENDROOT
BRANCH   6   8
ATOM      8  O   UNL     1       9.349   0.033  25.997  0.00  0.00    -0.386 OA
ATOM      9  H   UNL     1       9.928  -0.660  25.633  0.00  0.00    +0.210 HD
ENDBRANCH   6   8
BRANCH   7  10
ATOM     10  O   UNL     1       9.162  -1.512  23.676  0.00  0.00    -0.387 OA
ATOM     11  H   UNL     1       9.969  -1.009  23.478  0.00  0.00    +0.210 HD
ENDBRANCH   7  10
BRANCH   5  12
ATOM     12  O   UNL     1       6.265   0.256  26.132  0.00  0.00    -0.337 OA
BRANCH  12  13
ATOM     13  C   UNL     1       6.553  -0.024  27.527  0.00  0.00    +0.282 C 
ATOM     14  O   UNL     1       6.354  -1.420  27.840  0.00  0.00    -0.339 OA
ATOM     15  C   UNL     1       5.035  -1.857  27.445  0.00  0.00    +0.190 C 
ATOM     16  C   UNL     1       3.900  -1.155  28.177  0.00  0.00    +0.178 C 
ATOM     17  C   UNL     1       4.147   0.375  28.159  0.00  0.00    +0.179 C 
ATOM     18  C   UNL     1       5.608   0.752  28.469  0.00  0.00    +0.201 C 
BRANCH  17  19
ATOM     19  O   UNL     1       3.288   1.025  29.107  0.00  0.00    -0.386 OA
ATOM     20  H   UNL     1       2.685   1.598  28.594  0.00  0.00    +0.210 HD
ENDBRANCH  17  19
BRANCH  16  21
ATOM     21  O   UNL     1       3.710  -1.650  29.497  0.00  0.00    -0.386 OA
ATOM     22  H   UNL     1       2.798  -1.461  29.776  0.00  0.00    +0.210 HD
ENDBRANCH  16  21
BRANCH  18  23
ATOM     23  O   UNL     1       5.800   2.166  28.357  0.00  0.00    -0.384 OA
ATOM     24  H   UNL     1       4.936   2.572  28.562  0.00  0.00    +0.210 HD
ENDBRANCH  18  23
BRANCH  15  25
ATOM     25  C   UNL     1       4.990  -3.368  27.203  0.00  0.00    +0.266 C 
BRANCH  25  26
ATOM     26  O   UNL     1       5.792  -4.206  28.013  0.00  0.00    -0.459 OA
BRANCH  26  27
ATOM     27  C   UNL     1       6.650  -4.934  27.269  0.00  0.00    +0.332 C 
ATOM     28  O   UNL     1       7.476  -5.745  27.687  0.00  0.00    -0.246 OA
BRANCH  27  29
ATOM     29  C   UNL     1       6.462  -4.708  25.835  0.00  0.00    +0.092 C 
ATOM     30  C   UNL     1       7.146  -5.271  24.838  0.00  0.00    +0.015 C 
BRANCH  30  31
ATOM     31  C   UNL     1       6.779  -4.978  23.438  0.00  0.00    -0.025 A 
ATOM     32  C   UNL     1       6.331  -3.692  23.087  0.00  0.00    +0.011 A 
ATOM     33  C   UNL     1       5.989  -3.384  21.778  0.00  0.00    +0.046 A 
ATOM     34  C   UNL     1       6.063  -4.364  20.807  0.00  0.00    +0.117 A 
ATOM     35  C   UNL     1       6.462  -5.664  21.131  0.00  0.00    +0.046 A 
ATOM     36  C   UNL     1       6.818  -5.971  22.450  0.00  0.00    +0.011 A 
BRANCH  34  37
ATOM     37  O   UNL     1       5.732  -4.022  19.532  0.00  0.00    -0.507 OA
ATOM     38  H   UNL     1       4.881  -3.564  19.540  0.00  0.00    +0.292 HD
ENDBRANCH  34  37
ENDBRANCH  30  31
ENDBRANCH  27  29
ENDBRANCH  26  27
ENDBRANCH  25  26
ENDBRANCH  15  25
ENDBRANCH  12  13
ENDBRANCH   5  12
BRANCH   4  39
ATOM     39  O   UNL     1       5.054   2.013  24.298  0.00  0.00    -0.453 OA
BRANCH  39  40
ATOM     40  C   UNL     1       4.650   3.022  25.162  0.00  0.00    +0.214 A 
ATOM     41  C   UNL     1       3.318   2.873  25.864  0.00  0.00    +0.238 A 
ATOM     42  O   UNL     1       2.541   1.984  25.533  0.00  0.00    -0.283 OA
ATOM     43  C   UNL     1       2.953   3.835  26.903  0.00  0.00    +0.109 A 
ATOM     44  C   UNL     1       3.739   4.971  27.013  0.00  0.00    +0.147 A 
ATOM     45  C   UNL     1       3.424   5.962  27.953  0.00  0.00    +0.092 A 
ATOM     46  C   UNL     1       2.326   5.791  28.793  0.00  0.00    +0.124 A 
ATOM     47  C   UNL     1       1.533   4.656  28.701  0.00  0.00    +0.091 A 
ATOM     48  O   UNL     1       4.831   5.198  26.213  0.00  0.00    -0.451 OA
ATOM     49  C   UNL     1       1.846   3.678  27.756  0.00  0.00    +0.135 A 
ATOM     50  C   UNL     1       5.302   4.222  25.323  0.00  0.00    +0.181 A 
BRANCH  50  51
ATOM     51  C   UNL     1       6.537   4.759  24.604  0.00  0.00    +0.025 A 
ATOM     52  C   UNL     1       7.776   4.757  25.313  0.00  0.00    +0.015 A 
ATOM     53  C   UNL     1       8.976   5.266  24.783  0.00  0.00    +0.050 A 
ATOM     54  C   UNL     1       8.987   5.760  23.498  0.00  0.00    +0.158 A 
ATOM     55  C   UNL     1       7.816   5.739  22.743  0.00  0.00    +0.159 A 
ATOM     56  C   UNL     1       6.598   5.247  23.276  0.00  0.00    +0.060 A 
BRANCH  55  57
ATOM     57  O   UNL     1       7.920   6.220  21.465  0.00  0.00    -0.503 OA
ATOM     58  H   UNL     1       7.141   5.929  20.963  0.00  0.00    +0.292 HD
ENDBRANCH  55  57
BRANCH  54  59
ATOM     59  O   UNL     1      10.157   6.243  22.989  0.00  0.00    -0.503 OA
ATOM     60  H   UNL     1      10.152   7.198  23.195  0.00  0.00    +0.292 HD
ENDBRANCH  54  59
ENDBRANCH  50  51
BRANCH  49  61
ATOM     61  O   UNL     1       1.060   2.560  27.701  0.00  0.00    -0.506 OA
ATOM     62  H   UNL     1       1.321   1.934  28.395  0.00  0.00    +0.292 HD
ENDBRANCH  49  61
BRANCH  46  63
ATOM     63  O   UNL     1       1.986   6.712  29.738  0.00  0.00    -0.507 OA
ATOM     64  H   UNL     1       2.732   7.315  29.891  0.00  0.00    +0.292 HD
ENDBRANCH  46  63
ENDBRANCH  39  40
ENDBRANCH   4  39
TORSDOF 20
ENDMDL
MODEL 8
REMARK VINA RESULT:      -6.1      2.154      5.267
REMARK  Name = 
REMARK  21 active torsions:
REMARK  status: ('A' for Active; 'I' for Inactive)
REMARK    1  A    between atoms: C_1  and  C_2
REMARK    2  A    between atoms: C_3  and  O_54
REMARK    3  A    between atoms: C_4  and  O_53
REMARK    4  A    between atoms: C_5  and  O_30
REMARK    5  A    between atoms: C_6  and  O_8
REMARK    6  A    between atoms: O_8  and  C_9
REMARK    7  A    between atoms: C_10  and  C_22
REMARK    8  A    between atoms: C_14  and  O_21
REMARK    9  A    between atoms: C_16  and  O_20
REMARK   10  A    between atoms: C_24  and  O_29
REMARK   11  A    between atoms: C_25  and  O_28
REMARK   12  A    between atoms: O_30  and  C_31
REMARK   13  A    between atoms: C_32  and  O_52
REMARK   14  A    between atoms: C_33  and  O_51
REMARK   15  A    between atoms: C_34  and  O_50
REMARK   16  A    between atoms: C_35  and  C_37
REMARK   17  A    between atoms: C_37  and  O_38
REMARK   18  A    between atoms: O_38  and  C_39
REMARK   19  A    between atoms: C_39  and  C_41
REMARK   20  A    between atoms: C_42  and  C_43
REMARK   21  A    between atoms: C_46  and  O_49
REMARK                            x       y       z     vdW  Elec       q    Type
REMARK                         _______ _______ _______ _____ _____    ______ ____
ROOT
ATOM      1  C   UNL     1       7.569  -4.499  21.732  0.00  0.00    +0.041 C 
ATOM      2  C   UNL     1       6.133  -3.985  21.863  0.00  0.00    +0.150 C 
ATOM      3  O   UNL     1       5.946  -2.724  22.511  0.00  0.00    -0.334 OA
ATOM      4  C   UNL     1       5.749  -2.637  23.948  0.00  0.00    +0.340 C 
ATOM      5  C   UNL     1       5.031  -3.879  24.675  0.00  0.00    +0.221 C 
ATOM      6  C   UNL     1       5.572  -5.140  23.975  0.00  0.00    +0.180 C 
ATOM      7  C   UNL     1       5.243  -5.041  22.468  0.00  0.00    +0.174 C 
ENDROOT
BRANCH   6   8
ATOM      8  O   UNL     1       5.222  -6.401  24.549  0.00  0.00    -0.386 OA
ATOM      9  H   UNL     1       5.992  -6.772  25.014  0.00  0.00    +0.210 HD
ENDBRANCH   6   8
BRANCH   7  10
ATOM     10  O   UNL     1       5.351  -6.270  21.760  0.00  0.00    -0.387 OA
ATOM     11  H   UNL     1       5.247  -6.075  20.814  0.00  0.00    +0.210 HD
ENDBRANCH   7  10
BRANCH   5  12
ATOM     12  O   UNL     1       3.580  -3.779  24.625  0.00  0.00    -0.337 OA
BRANCH  12  13
ATOM     13  C   UNL     1       2.898  -3.365  25.837  0.00  0.00    +0.282 C 
ATOM     14  O   UNL     1       3.642  -3.734  27.019  0.00  0.00    -0.339 OA
ATOM     15  C   UNL     1       3.960  -5.143  27.012  0.00  0.00    +0.190 C 
ATOM     16  C   UNL     1       2.743  -6.057  27.050  0.00  0.00    +0.178 C 
ATOM     17  C   UNL     1       1.714  -5.583  25.992  0.00  0.00    +0.179 C 
ATOM     18  C   UNL     1       1.524  -4.055  25.980  0.00  0.00    +0.201 C 
BRANCH  17  19
ATOM     19  O   UNL     1       0.443  -6.208  26.226  0.00  0.00    -0.386 OA
ATOM     20  H   UNL     1       0.461  -7.066  25.761  0.00  0.00    +0.210 HD
ENDBRANCH  17  19
BRANCH  16  21
ATOM     21  O   UNL     1       2.169  -6.153  28.348  0.00  0.00    -0.386 OA
ATOM     22  H   UNL     1       2.631  -5.538  28.942  0.00  0.00    +0.210 HD
ENDBRANCH  16  21
BRANCH  18  23
ATOM     23  O   UNL     1       0.629  -3.665  24.932  0.00  0.00    -0.384 OA
ATOM     24  H   UNL     1       0.591  -4.421  24.317  0.00  0.00    +0.210 HD
ENDBRANCH  18  23
BRANCH  15  25
ATOM     25  C   UNL     1       5.191  -5.448  27.870  0.00  0.00    +0.266 C 
BRANCH  25  26
ATOM     26  O   UNL     1       6.239  -4.498  27.908  0.00  0.00    -0.459 OA
BRANCH  26  27
ATOM     27  C   UNL     1       7.277  -4.881  27.137  0.00  0.00    +0.332 C 
ATOM     28  O   UNL     1       7.566  -6.034  26.816  0.00  0.00    -0.246 OA
BRANCH  27  29
ATOM     29  C   UNL     1       8.042  -3.737  26.637  0.00  0.00    +0.092 C 
ATOM     30  C   UNL     1       8.507  -3.564  25.399  0.00  0.00    +0.015 C 
BRANCH  30  31
ATOM     31  C   UNL     1       9.207  -2.311  25.045  0.00  0.00    -0.025 A 
ATOM     32  C   UNL     1       9.189  -1.224  25.939  0.00  0.00    +0.011 A 
ATOM     33  C   UNL     1       9.844  -0.039  25.639  0.00  0.00    +0.046 A 
ATOM     34  C   UNL     1      10.504   0.087  24.432  0.00  0.00    +0.117 A 
ATOM     35  C   UNL     1      10.503  -0.958  23.503  0.00  0.00    +0.046 A 
ATOM     36  C   UNL     1       9.850  -2.158  23.811  0.00  0.00    +0.011 A 
BRANCH  34  37
ATOM     37  O   UNL     1      11.147   1.259  24.178  0.00  0.00    -0.507 OA
ATOM     38  H   UNL     1      10.730   1.689  23.420  0.00  0.00    +0.292 HD
ENDBRANCH  34  37
ENDBRANCH  30  31
ENDBRANCH  27  29
ENDBRANCH  26  27
ENDBRANCH  25  26
ENDBRANCH  15  25
ENDBRANCH  12  13
ENDBRANCH   5  12
BRANCH   4  39
ATOM     39  O   UNL     1       5.004  -1.395  24.170  0.00  0.00    -0.453 OA
BRANCH  39  40
ATOM     40  C   UNL     1       5.703  -0.237  24.483  0.00  0.00    +0.214 A 
ATOM     41  C   UNL     1       6.724   0.274  23.491  0.00  0.00    +0.238 A 
ATOM     42  O   UNL     1       7.055  -0.418  22.534  0.00  0.00    -0.283 OA
ATOM     43  C   UNL     1       7.346   1.578  23.720  0.00  0.00    +0.109 A 
ATOM     44  C   UNL     1       7.146   2.160  24.962  0.00  0.00    +0.147 A 
ATOM     45  C   UNL     1       7.748   3.387  25.274  0.00  0.00    +0.092 A 
ATOM     46  C   UNL     1       8.535   4.030  24.323  0.00  0.00    +0.124 A 
ATOM     47  C   UNL     1       8.739   3.465  23.071  0.00  0.00    +0.091 A 
ATOM     48  O   UNL     1       6.384   1.574  25.942  0.00  0.00    -0.451 OA
ATOM     49  C   UNL     1       8.145   2.238  22.770  0.00  0.00    +0.135 A 
ATOM     50  C   UNL     1       5.644   0.409  25.695  0.00  0.00    +0.181 A 
BRANCH  50  51
ATOM     51  C   UNL     1       4.884   0.025  26.963  0.00  0.00    +0.025 A 
ATOM     52  C   UNL     1       3.884   0.925  27.441  0.00  0.00    +0.015 A 
ATOM     53  C   UNL     1       3.147   0.713  28.621  0.00  0.00    +0.050 A 
ATOM     54  C   UNL     1       3.356  -0.439  29.345  0.00  0.00    +0.158 A 
ATOM     55  C   UNL     1       4.284  -1.376  28.896  0.00  0.00    +0.159 A 
ATOM     56  C   UNL     1       5.046  -1.160  27.720  0.00  0.00    +0.060 A 
BRANCH  55  57
ATOM     57  O   UNL     1       4.408  -2.508  29.658  0.00  0.00    -0.503 OA
ATOM     58  H   UNL     1       5.001  -2.313  30.403  0.00  0.00    +0.292 HD
ENDBRANCH  55  57
BRANCH  54  59
ATOM     59  O   UNL     1       2.629  -0.641  30.482  0.00  0.00    -0.503 OA
ATOM     60  H   UNL     1       1.746  -0.270  30.292  0.00  0.00    +0.292 HD
ENDBRANCH  54  59
ENDBRANCH  50  51
BRANCH  49  61
ATOM     61  O   UNL     1       8.346   1.713  21.524  0.00  0.00    -0.506 OA
ATOM     62  H   UNL     1       8.309   2.417  20.856  0.00  0.00    +0.292 HD
ENDBRANCH  49  61
BRANCH  46  63
ATOM     63  O   UNL     1       9.128   5.233  24.565  0.00  0.00    -0.507 OA
ATOM     64  H   UNL     1       8.447   5.917  24.676  0.00  0.00    +0.292 HD
ENDBRANCH  46  63
ENDBRANCH  39  40
ENDBRANCH   4  39
TORSDOF 20
ENDMDL
MODEL 9
REMARK VINA RESULT:      -6.1      2.730      5.238
REMARK  Name = 
REMARK  21 active torsions:
REMARK  status: ('A' for Active; 'I' for Inactive)
REMARK    1  A    between atoms: C_1  and  C_2
REMARK    2  A    between atoms: C_3  and  O_54
REMARK    3  A    between atoms: C_4  and  O_53
REMARK    4  A    between atoms: C_5  and  O_30
REMARK    5  A    between atoms: C_6  and  O_8
REMARK    6  A    between atoms: O_8  and  C_9
REMARK    7  A    between atoms: C_10  and  C_22
REMARK    8  A    between atoms: C_14  and  O_21
REMARK    9  A    between atoms: C_16  and  O_20
REMARK   10  A    between atoms: C_24  and  O_29
REMARK   11  A    between atoms: C_25  and  O_28
REMARK   12  A    between atoms: O_30  and  C_31
REMARK   13  A    between atoms: C_32  and  O_52
REMARK   14  A    between atoms: C_33  and  O_51
REMARK   15  A    between atoms: C_34  and  O_50
REMARK   16  A    between atoms: C_35  and  C_37
REMARK   17  A    between atoms: C_37  and  O_38
REMARK   18  A    between atoms: O_38  and  C_39
REMARK   19  A    between atoms: C_39  and  C_41
REMARK   20  A    between atoms: C_42  and  C_43
REMARK   21  A    between atoms: C_46  and  O_49
REMARK                            x       y       z     vdW  Elec       q    Type
REMARK                         _______ _______ _______ _____ _____    ______ ____
ROOT
ATOM      1  C   UNL     1       9.662  -3.577  25.236  0.00  0.00    +0.041 C 
ATOM      2  C   UNL     1       8.239  -4.030  24.901  0.00  0.00    +0.150 C 
ATOM      3  O   UNL     1       7.190  -3.074  25.074  0.00  0.00    -0.334 OA
ATOM      4  C   UNL     1       6.488  -2.945  26.340  0.00  0.00    +0.340 C 
ATOM      5  C   UNL     1       6.352  -4.264  27.249  0.00  0.00    +0.221 C 
ATOM      6  C   UNL     1       7.690  -5.013  27.102  0.00  0.00    +0.180 C 
ATOM      7  C   UNL     1       7.913  -5.323  25.604  0.00  0.00    +0.174 C 
ENDROOT
BRANCH   6   8
ATOM      8  O   UNL     1       7.899  -6.142  27.951  0.00  0.00    -0.386 OA
ATOM      9  H   UNL     1       8.380  -6.832  27.461  0.00  0.00    +0.210 HD
ENDBRANCH   6   8
BRANCH   7  10
ATOM     10  O   UNL     1       8.905  -6.309  25.349  0.00  0.00    -0.387 OA
ATOM     11  H   UNL     1       9.762  -5.943  25.624  0.00  0.00    +0.210 HD
ENDBRANCH   7  10
BRANCH   5  12
ATOM     12  O   UNL     1       5.203  -5.074  26.872  0.00  0.00    -0.337 OA
BRANCH  12  13
ATOM     13  C   UNL     1       4.865  -6.196  27.728  0.00  0.00    +0.282 C 
ATOM     14  O   UNL     1       3.689  -6.889  27.258  0.00  0.00    -0.339 OA
ATOM     15  C   UNL     1       2.585  -5.973  27.079  0.00  0.00    +0.190 C 
ATOM     16  C   UNL     1       2.121  -5.298  28.361  0.00  0.00    +0.178 C 
ATOM     17  C   UNL     1       3.352  -4.745  29.124  0.00  0.00    +0.179 C 
ATOM     18  C   UNL     1       4.531  -5.735  29.163  0.00  0.00    +0.201 C 
BRANCH  17  19
ATOM     19  O   UNL     1       2.987  -4.403  30.469  0.00  0.00    -0.386 OA
ATOM     20  H   UNL     1       2.899  -5.244  30.959  0.00  0.00    +0.210 HD
ENDBRANCH  17  19
BRANCH  16  21
ATOM     21  O   UNL     1       1.329  -6.154  29.176  0.00  0.00    -0.386 OA
ATOM     22  H   UNL     1       0.892  -6.811  28.609  0.00  0.00    +0.210 HD
ENDBRANCH  16  21
BRANCH  18  23
ATOM     23  O   UNL     1       5.666  -5.144  29.803  0.00  0.00    -0.384 OA
ATOM     24  H   UNL     1       6.224  -5.887  30.101  0.00  0.00    +0.210 HD
ENDBRANCH  18  23
BRANCH  15  25
ATOM     25  C   UNL     1       1.569  -6.506  26.066  0.00  0.00    +0.266 C 
BRANCH  25  26
ATOM     26  O   UNL     1       1.728  -7.826  25.581  0.00  0.00    -0.459 OA
BRANCH  26  27
ATOM     27  C   UNL     1       1.805  -7.848  24.234  0.00  0.00    +0.332 C 
ATOM     28  O   UNL     1       1.145  -8.557  23.473  0.00  0.00    -0.246 OA
BRANCH  27  29
ATOM     29  C   UNL     1       2.754  -6.858  23.721  0.00  0.00    +0.092 C 
ATOM     30  C   UNL     1       4.085  -6.925  23.767  0.00  0.00    +0.015 C 
BRANCH  30  31
ATOM     31  C   UNL     1       4.896  -5.861  23.139  0.00  0.00    -0.025 A 
ATOM     32  C   UNL     1       4.465  -4.523  23.204  0.00  0.00    +0.011 A 
ATOM     33  C   UNL     1       5.210  -3.502  22.632  0.00  0.00    +0.046 A 
ATOM     34  C   UNL     1       6.380  -3.806  21.964  0.00  0.00    +0.117 A 
ATOM     35  C   UNL     1       6.813  -5.130  21.843  0.00  0.00    +0.046 A 
ATOM     36  C   UNL     1       6.066  -6.159  22.431  0.00  0.00    +0.011 A 
BRANCH  34  37
ATOM     37  O   UNL     1       7.091  -2.776  21.428  0.00  0.00    -0.507 OA
ATOM     38  H   UNL     1       6.881  -1.965  21.909  0.00  0.00    +0.292 HD
ENDBRANCH  34  37
ENDBRANCH  30  31
ENDBRANCH  27  29
ENDBRANCH  26  27
ENDBRANCH  25  26
ENDBRANCH  15  25
ENDBRANCH  12  13
ENDBRANCH   5  12
BRANCH   4  39
ATOM     39  O   UNL     1       5.171  -2.396  26.007  0.00  0.00    -0.453 OA
BRANCH  39  40
ATOM     40  C   UNL     1       4.837  -1.127  26.459  0.00  0.00    +0.214 A 
ATOM     41  C   UNL     1       3.513  -0.944  27.168  0.00  0.00    +0.238 A 
ATOM     42  O   UNL     1       2.685  -1.848  27.172  0.00  0.00    -0.283 OA
ATOM     43  C   UNL     1       3.218   0.342  27.800  0.00  0.00    +0.109 A 
ATOM     44  C   UNL     1       4.065   1.398  27.501  0.00  0.00    +0.147 A 
ATOM     45  C   UNL     1       3.820   2.673  28.031  0.00  0.00    +0.092 A 
ATOM     46  C   UNL     1       2.731   2.871  28.876  0.00  0.00    +0.124 A 
ATOM     47  C   UNL     1       1.878   1.822  29.191  0.00  0.00    +0.091 A 
ATOM     48  O   UNL     1       5.151   1.267  26.673  0.00  0.00    -0.451 OA
ATOM     49  C   UNL     1       2.122   0.557  28.653  0.00  0.00    +0.135 A 
ATOM     50  C   UNL     1       5.553   0.015  26.186  0.00  0.00    +0.181 A 
BRANCH  50  51
ATOM     51  C   UNL     1       6.801   0.194  25.324  0.00  0.00    +0.025 A 
ATOM     52  C   UNL     1       6.635   0.227  23.907  0.00  0.00    +0.015 A 
ATOM     53  C   UNL     1       7.706   0.338  23.000  0.00  0.00    +0.050 A 
ATOM     54  C   UNL     1       8.987   0.466  23.487  0.00  0.00    +0.158 A 
ATOM     55  C   UNL     1       9.201   0.490  24.863  0.00  0.00    +0.159 A 
ATOM     56  C   UNL     1       8.131   0.358  25.783  0.00  0.00    +0.060 A 
BRANCH  55  57
ATOM     57  O   UNL     1      10.502   0.652  25.264  0.00  0.00    -0.503 OA
ATOM     58  H   UNL     1      10.503   0.953  26.187  0.00  0.00    +0.292 HD
ENDBRANCH  55  57
BRANCH  54  59
ATOM     59  O   UNL     1      10.018   0.583  22.601  0.00  0.00    -0.503 OA
ATOM     60  H   UNL     1      10.360  -0.324  22.484  0.00  0.00    +0.292 HD
ENDBRANCH  54  59
ENDBRANCH  50  51
BRANCH  49  61
ATOM     61  O   UNL     1       1.278  -0.462  28.996  0.00  0.00    -0.506 OA
ATOM     62  H   UNL     1       0.369  -0.130  29.077  0.00  0.00    +0.292 HD
ENDBRANCH  49  61
BRANCH  46  63
ATOM     63  O   UNL     1       2.458   4.083  29.434  0.00  0.00    -0.507 OA
ATOM     64  H   UNL     1       3.279   4.485  29.763  0.00  0.00    +0.292 HD
ENDBRANCH  46  63
ENDBRANCH  39  40
ENDBRANCH   4  39
TORSDOF 20
ENDMDL
