MODEL 1
REMARK VINA RESULT:      -7.5      0.000      0.000
REMARK  Name = 
REMARK  7 active torsions:
REMARK  status: ('A' for Active; 'I' for Inactive)
REMARK    1  A    between atoms: C_1  and  O_2
REMARK    2  A    between atoms: O_2  and  C_3
REMARK    3  A    between atoms: C_5  and  O_23
REMARK    4  A    between atoms: C_10  and  C_15
REMARK    5  A    between atoms: C_11  and  O_14
REMARK    6  A    between atoms: C_17  and  O_22
REMARK    7  A    between atoms: C_18  and  O_21
REMARK                            x       y       z     vdW  Elec       q    Type
REMARK                         _______ _______ _______ _____ _____    ______ ____
ROOT
ATOM      1  C   UNL     1       9.602  -2.076  23.792  0.00  0.00    +0.127 A 
ATOM      2  C   UNL     1      10.207  -0.825  23.871  0.00  0.00    +0.092 A 
ATOM      3  C   UNL     1       9.482   0.327  23.534  0.00  0.00    +0.147 A 
ATOM      4  O   UNL     1      10.169   1.508  23.637  0.00  0.00    -0.451 OA
ATOM      5  C   UNL     1       9.495   2.689  23.405  0.00  0.00    +0.181 A 
ATOM      6  C   UNL     1       8.204   2.780  23.038  0.00  0.00    +0.208 A 
ATOM      7  C   UNL     1       7.441   1.512  22.811  0.00  0.00    +0.238 A 
ATOM      8  O   UNL     1       6.289   1.547  22.395  0.00  0.00    -0.283 OA
ATOM      9  C   UNL     1       8.151   0.247  23.122  0.00  0.00    +0.109 A 
ATOM     10  C   UNL     1       7.555  -1.017  23.030  0.00  0.00    +0.135 A 
ATOM     11  C   UNL     1       8.275  -2.168  23.365  0.00  0.00    +0.092 A 
ENDROOT
BRANCH   5  12
ATOM     12  C   UNL     1      10.362   3.862  23.597  0.00  0.00    +0.025 A 
ATOM     13  C   UNL     1       9.850   5.019  24.207  0.00  0.00    +0.015 A 
ATOM     14  C   UNL     1      10.687   6.101  24.483  0.00  0.00    +0.050 A 
ATOM     15  C   UNL     1      12.031   6.022  24.148  0.00  0.00    +0.158 A 
ATOM     16  C   UNL     1      12.542   4.894  23.509  0.00  0.00    +0.159 A 
ATOM     17  C   UNL     1      11.716   3.810  23.227  0.00  0.00    +0.060 A 
BRANCH  15  18
ATOM     18  O   UNL     1      12.858   7.060  24.467  0.00  0.00    -0.503 OA
ATOM     19  H   UNL     1      13.673   6.895  23.953  0.00  0.00    +0.292 HD
ENDBRANCH  15  18
BRANCH  16  20
ATOM     20  O   UNL     1      13.873   4.896  23.194  0.00  0.00    -0.503 OA
ATOM     21  H   UNL     1      13.994   4.409  22.360  0.00  0.00    +0.292 HD
ENDBRANCH  16  20
ENDBRANCH   5  12
BRANCH   1  23
ATOM     22  C   UNL     1       9.444  -4.165  24.920  0.00  0.00    +0.277 C 
ATOM     23  O   UNL     1      10.189  -3.273  24.098  0.00  0.00    -0.495 OA
ENDBRANCH   1  23
BRANCH   6  24
ATOM     24  O   UNL     1       7.533   3.976  22.844  0.00  0.00    -0.501 OA
ATOM     25  H   UNL     1       6.925   3.887  22.092  0.00  0.00    +0.292 HD
ENDBRANCH   6  24
BRANCH  10  26
ATOM     26  O   UNL     1       6.258  -1.157  22.625  0.00  0.00    -0.506 OA
ATOM     27  H   UNL     1       5.950  -0.353  22.177  0.00  0.00    +0.292 HD
ENDBRANCH  10  26
TORSDOF 6
ENDMDL
MODEL 2
REMARK VINA RESULT:      -7.4      3.330      5.961
REMARK  Name = 
REMARK  7 active torsions:
REMARK  status: ('A' for Active; 'I' for Inactive)
REMARK    1  A    between atoms: C_1  and  O_2
REMARK    2  A    between atoms: O_2  and  C_3
REMARK    3  A    between atoms: C_5  and  O_23
REMARK    4  A    between atoms: C_10  and  C_15
REMARK    5  A    between atoms: C_11  and  O_14
REMARK    6  A    between atoms: C_17  and  O_22
REMARK    7  A    between atoms: C_18  and  O_21
REMARK                            x       y       z     vdW  Elec       q    Type
REMARK                         _______ _______ _______ _____ _____    ______ ____
ROOT
ATOM      1  C   UNL     1       5.276  -3.329  27.715  0.00  0.00    +0.127 A 
ATOM      2  C   UNL     1       5.883  -2.345  26.940  0.00  0.00    +0.092 A 
ATOM      3  C   UNL     1       7.069  -2.630  26.248  0.00  0.00    +0.147 A 
ATOM      4  O   UNL     1       7.592  -1.592  25.521  0.00  0.00    -0.451 OA
ATOM      5  C   UNL     1       8.709  -1.823  24.745  0.00  0.00    +0.181 A 
ATOM      6  C   UNL     1       9.368  -2.994  24.673  0.00  0.00    +0.208 A 
ATOM      7  C   UNL     1       8.896  -4.127  25.531  0.00  0.00    +0.238 A 
ATOM      8  O   UNL     1       9.516  -5.183  25.560  0.00  0.00    -0.283 OA
ATOM      9  C   UNL     1       7.657  -3.893  26.315  0.00  0.00    +0.109 A 
ATOM     10  C   UNL     1       7.049  -4.872  27.109  0.00  0.00    +0.135 A 
ATOM     11  C   UNL     1       5.867  -4.592  27.802  0.00  0.00    +0.092 A 
ENDROOT
BRANCH   5  12
ATOM     12  C   UNL     1       9.115  -0.623  23.998  0.00  0.00    +0.025 A 
ATOM     13  C   UNL     1      10.057   0.260  24.552  0.00  0.00    +0.015 A 
ATOM     14  C   UNL     1      10.524   1.348  23.813  0.00  0.00    +0.050 A 
ATOM     15  C   UNL     1      10.046   1.550  22.526  0.00  0.00    +0.158 A 
ATOM     16  C   UNL     1       9.083   0.702  21.981  0.00  0.00    +0.159 A 
ATOM     17  C   UNL     1       8.609  -0.384  22.710  0.00  0.00    +0.060 A 
BRANCH  15  18
ATOM     18  O   UNL     1      10.543   2.584  21.787  0.00  0.00    -0.503 OA
ATOM     19  H   UNL     1       9.909   3.316  21.925  0.00  0.00    +0.292 HD
ENDBRANCH  15  18
BRANCH  16  20
ATOM     20  O   UNL     1       8.647   0.975  20.714  0.00  0.00    -0.503 OA
ATOM     21  H   UNL     1       8.852   0.213  20.145  0.00  0.00    +0.292 HD
ENDBRANCH  16  20
ENDBRANCH   5  12
BRANCH   1  23
ATOM     22  C   UNL     1       4.061  -3.834  29.698  0.00  0.00    +0.277 C 
ATOM     23  O   UNL     1       4.119  -3.188  28.431  0.00  0.00    -0.495 OA
ENDBRANCH   1  23
BRANCH   6  24
ATOM     24  O   UNL     1      10.467  -3.219  23.861  0.00  0.00    -0.501 OA
ATOM     25  H   UNL     1      11.129  -2.526  24.015  0.00  0.00    +0.292 HD
ENDBRANCH   6  24
BRANCH  10  26
ATOM     26  O   UNL     1       7.585  -6.124  27.219  0.00  0.00    -0.506 OA
ATOM     27  H   UNL     1       7.905  -6.436  26.357  0.00  0.00    +0.292 HD
ENDBRANCH  10  26
TORSDOF 6
ENDMDL
MODEL 3
REMARK VINA RESULT:      -7.3      4.170      7.401
REMARK  Name = 
REMARK  7 active torsions:
REMARK  status: ('A' for Active; 'I' for Inactive)
REMARK    1  A    between atoms: C_1  and  O_2
REMARK    2  A    between atoms: O_2  and  C_3
REMARK    3  A    between atoms: C_5  and  O_23
REMARK    4  A    between atoms: C_10  and  C_15
REMARK    5  A    between atoms: C_11  and  O_14
REMARK    6  A    between atoms: C_17  and  O_22
REMARK    7  A    between atoms: C_18  and  O_21
REMARK                            x       y       z     vdW  Elec       q    Type
REMARK                         _______ _______ _______ _____ _____    ______ ____
ROOT
ATOM      1  C   UNL     1       3.641  -6.066  24.436  0.00  0.00    +0.127 A 
ATOM      2  C   UNL     1       4.551  -5.053  24.151  0.00  0.00    +0.092 A 
ATOM      3  C   UNL     1       5.660  -4.852  24.984  0.00  0.00    +0.147 A 
ATOM      4  O   UNL     1       6.492  -3.823  24.623  0.00  0.00    -0.451 OA
ATOM      5  C   UNL     1       7.649  -3.622  25.346  0.00  0.00    +0.181 A 
ATOM      6  C   UNL     1       8.018  -4.337  26.425  0.00  0.00    +0.208 A 
ATOM      7  C   UNL     1       7.090  -5.402  26.921  0.00  0.00    +0.238 A 
ATOM      8  O   UNL     1       7.346  -6.019  27.947  0.00  0.00    -0.283 OA
ATOM      9  C   UNL     1       5.877  -5.657  26.103  0.00  0.00    +0.109 A 
ATOM     10  C   UNL     1       4.949  -6.664  26.392  0.00  0.00    +0.135 A 
ATOM     11  C   UNL     1       3.840  -6.867  25.563  0.00  0.00    +0.092 A 
ENDROOT
BRANCH   5  12
ATOM     12  C   UNL     1       8.447  -2.511  24.805  0.00  0.00    +0.025 A 
ATOM     13  C   UNL     1       8.546  -1.307  25.520  0.00  0.00    +0.015 A 
ATOM     14  C   UNL     1       9.378  -0.282  25.066  0.00  0.00    +0.050 A 
ATOM     15  C   UNL     1      10.106  -0.466  23.899  0.00  0.00    +0.158 A 
ATOM     16  C   UNL     1       9.987  -1.642  23.162  0.00  0.00    +0.159 A 
ATOM     17  C   UNL     1       9.159  -2.669  23.603  0.00  0.00    +0.060 A 
BRANCH  15  18
ATOM     18  O   UNL     1      10.958   0.517  23.486  0.00  0.00    -0.503 OA
ATOM     19  H   UNL     1      10.390   1.303  23.363  0.00  0.00    +0.292 HD
ENDBRANCH  15  18
BRANCH  16  20
ATOM     20  O   UNL     1      10.722  -1.744  22.013  0.00  0.00    -0.503 OA
ATOM     21  H   UNL     1      10.958  -0.848  21.716  0.00  0.00    +0.292 HD
ENDBRANCH  16  20
ENDBRANCH   5  12
BRANCH   1  23
ATOM     22  C   UNL     1       1.712  -5.289  23.279  0.00  0.00    +0.277 C 
ATOM     23  O   UNL     1       2.527  -6.375  23.705  0.00  0.00    -0.495 OA
ENDBRANCH   1  23
BRANCH   6  24
ATOM     24  O   UNL     1       9.201  -4.144  27.118  0.00  0.00    -0.501 OA
ATOM     25  H   UNL     1       9.698  -4.978  27.147  0.00  0.00    +0.292 HD
ENDBRANCH   6  24
BRANCH  10  26
ATOM     26  O   UNL     1       5.105  -7.478  27.478  0.00  0.00    -0.506 OA
ATOM     27  H   UNL     1       4.808  -8.379  27.276  0.00  0.00    +0.292 HD
ENDBRANCH  10  26
TORSDOF 6
ENDMDL
MODEL 4
REMARK VINA RESULT:      -7.3      3.700      6.323
REMARK  Name = 
REMARK  7 active torsions:
REMARK  status: ('A' for Active; 'I' for Inactive)
REMARK    1  A    between atoms: C_1  and  O_2
REMARK    2  A    between atoms: O_2  and  C_3
REMARK    3  A    between atoms: C_5  and  O_23
REMARK    4  A    between atoms: C_10  and  C_15
REMARK    5  A    between atoms: C_11  and  O_14
REMARK    6  A    between atoms: C_17  and  O_22
REMARK    7  A    between atoms: C_18  and  O_21
REMARK                            x       y       z     vdW  Elec       q    Type
REMARK                         _______ _______ _______ _____ _____    ______ ____
ROOT
ATOM      1  C   UNL     1       6.564  -5.565  27.103  0.00  0.00    +0.127 A 
ATOM      2  C   UNL     1       7.114  -4.480  26.427  0.00  0.00    +0.092 A 
ATOM      3  C   UNL     1       6.679  -4.166  25.132  0.00  0.00    +0.147 A 
ATOM      4  O   UNL     1       7.289  -3.085  24.551  0.00  0.00    -0.451 OA
ATOM      5  C   UNL     1       6.851  -2.664  23.312  0.00  0.00    +0.181 A 
ATOM      6  C   UNL     1       5.884  -3.262  22.592  0.00  0.00    +0.208 A 
ATOM      7  C   UNL     1       5.262  -4.509  23.140  0.00  0.00    +0.238 A 
ATOM      8  O   UNL     1       4.439  -5.133  22.481  0.00  0.00    -0.283 OA
ATOM      9  C   UNL     1       5.692  -4.921  24.500  0.00  0.00    +0.109 A 
ATOM     10  C   UNL     1       5.154  -6.021  25.179  0.00  0.00    +0.135 A 
ATOM     11  C   UNL     1       5.586  -6.338  26.472  0.00  0.00    +0.092 A 
ENDROOT
BRANCH   5  12
ATOM     12  C   UNL     1       7.578  -1.471  22.850  0.00  0.00    +0.025 A 
ATOM     13  C   UNL     1       8.722  -1.616  22.049  0.00  0.00    +0.015 A 
ATOM     14  C   UNL     1       9.363  -0.492  21.524  0.00  0.00    +0.050 A 
ATOM     15  C   UNL     1       8.857   0.769  21.802  0.00  0.00    +0.158 A 
ATOM     16  C   UNL     1       7.745   0.926  22.626  0.00  0.00    +0.159 A 
ATOM     17  C   UNL     1       7.099  -0.186  23.157  0.00  0.00    +0.060 A 
BRANCH  15  18
ATOM     18  O   UNL     1       9.455   1.862  21.244  0.00  0.00    -0.503 OA
ATOM     19  H   UNL     1       8.881   2.614  21.494  0.00  0.00    +0.292 HD
ENDBRANCH  15  18
BRANCH  16  20
ATOM     20  O   UNL     1       7.315   2.201  22.870  0.00  0.00    -0.503 OA
ATOM     21  H   UNL     1       8.054   2.813  22.710  0.00  0.00    +0.292 HD
ENDBRANCH  16  20
ENDBRANCH   5  12
BRANCH   1  23
ATOM     22  C   UNL     1       5.825  -6.442  29.187  0.00  0.00    +0.277 C 
ATOM     23  O   UNL     1       6.889  -5.975  28.366  0.00  0.00    -0.495 OA
ENDBRANCH   1  23
BRANCH   6  24
ATOM     24  O   UNL     1       5.432  -2.805  21.366  0.00  0.00    -0.501 OA
ATOM     25  H   UNL     1       5.146  -1.881  21.451  0.00  0.00    +0.292 HD
ENDBRANCH   6  24
BRANCH  10  26
ATOM     26  O   UNL     1       4.190  -6.802  24.607  0.00  0.00    -0.506 OA
ATOM     27  H   UNL     1       3.874  -6.404  23.780  0.00  0.00    +0.292 HD
ENDBRANCH  10  26
TORSDOF 6
ENDMDL
MODEL 5
REMARK VINA RESULT:      -7.0      3.401      8.543
REMARK  Name = 
REMARK  7 active torsions:
REMARK  status: ('A' for Active; 'I' for Inactive)
REMARK    1  A    between atoms: C_1  and  O_2
REMARK    2  A    between atoms: O_2  and  C_3
REMARK    3  A    between atoms: C_5  and  O_23
REMARK    4  A    between atoms: C_10  and  C_15
REMARK    5  A    between atoms: C_11  and  O_14
REMARK    6  A    between atoms: C_17  and  O_22
REMARK    7  A    between atoms: C_18  and  O_21
REMARK                            x       y       z     vdW  Elec       q    Type
REMARK                         _______ _______ _______ _____ _____    ______ ____
ROOT
ATOM      1  C   UNL     1       6.794   1.468  22.674  0.00  0.00    +0.127 A 
ATOM      2  C   UNL     1       6.388   0.322  23.351  0.00  0.00    +0.092 A 
ATOM      3  C   UNL     1       7.263  -0.766  23.478  0.00  0.00    +0.147 A 
ATOM      4  O   UNL     1       6.764  -1.849  24.153  0.00  0.00    -0.451 OA
ATOM      5  C   UNL     1       7.598  -2.922  24.392  0.00  0.00    +0.181 A 
ATOM      6  C   UNL     1       8.873  -3.016  23.973  0.00  0.00    +0.208 A 
ATOM      7  C   UNL     1       9.428  -1.902  23.140  0.00  0.00    +0.238 A 
ATOM      8  O   UNL     1      10.556  -1.984  22.667  0.00  0.00    -0.283 OA
ATOM      9  C   UNL     1       8.549  -0.723  22.940  0.00  0.00    +0.109 A 
ATOM     10  C   UNL     1       8.946   0.427  22.247  0.00  0.00    +0.135 A 
ATOM     11  C   UNL     1       8.075   1.515  22.118  0.00  0.00    +0.092 A 
ENDROOT
BRANCH   5  12
ATOM     12  C   UNL     1       6.924  -3.979  25.162  0.00  0.00    +0.025 A 
ATOM     13  C   UNL     1       5.726  -4.536  24.686  0.00  0.00    +0.015 A 
ATOM     14  C   UNL     1       5.129  -5.605  25.356  0.00  0.00    +0.050 A 
ATOM     15  C   UNL     1       5.731  -6.112  26.498  0.00  0.00    +0.158 A 
ATOM     16  C   UNL     1       6.900  -5.543  27.001  0.00  0.00    +0.159 A 
ATOM     17  C   UNL     1       7.502  -4.475  26.343  0.00  0.00    +0.060 A 
BRANCH  15  18
ATOM     18  O   UNL     1       5.174  -7.191  27.120  0.00  0.00    -0.503 OA
ATOM     19  H   UNL     1       5.603  -7.966  26.705  0.00  0.00    +0.292 HD
ENDBRANCH  15  18
BRANCH  16  20
ATOM     20  O   UNL     1       7.426  -6.084  28.141  0.00  0.00    -0.503 OA
ATOM     21  H   UNL     1       7.232  -7.037  28.150  0.00  0.00    +0.292 HD
ENDBRANCH  16  20
ENDBRANCH   5  12
BRANCH   1  23
ATOM     22  C   UNL     1       6.756   3.828  22.376  0.00  0.00    +0.277 C 
ATOM     23  O   UNL     1       6.048   2.599  22.486  0.00  0.00    -0.495 OA
ENDBRANCH   1  23
BRANCH   6  24
ATOM     24  O   UNL     1       9.707  -4.085  24.252  0.00  0.00    -0.501 OA
ATOM     25  H   UNL     1      10.630  -3.786  24.240  0.00  0.00    +0.292 HD
ENDBRANCH   6  24
BRANCH  10  26
ATOM     26  O   UNL     1      10.191   0.523  21.693  0.00  0.00    -0.506 OA
ATOM     27  H   UNL     1      10.169   0.271  20.756  0.00  0.00    +0.292 HD
ENDBRANCH  10  26
TORSDOF 6
ENDMDL
MODEL 6
REMARK VINA RESULT:      -7.0      2.611      7.868
REMARK  Name = 
REMARK  7 active torsions:
REMARK  status: ('A' for Active; 'I' for Inactive)
REMARK    1  A    between atoms: C_1  and  O_2
REMARK    2  A    between atoms: O_2  and  C_3
REMARK    3  A    between atoms: C_5  and  O_23
REMARK    4  A    between atoms: C_10  and  C_15
REMARK    5  A    between atoms: C_11  and  O_14
REMARK    6  A    between atoms: C_17  and  O_22
REMARK    7  A    between atoms: C_18  and  O_21
REMARK                            x       y       z     vdW  Elec       q    Type
REMARK                         _______ _______ _______ _____ _____    ______ ____
ROOT
ATOM      1  C   UNL     1       8.463   2.962  24.857  0.00  0.00    +0.127 A 
ATOM      2  C   UNL     1       8.011   1.715  25.278  0.00  0.00    +0.092 A 
ATOM      3  C   UNL     1       8.147   0.600  24.440  0.00  0.00    +0.147 A 
ATOM      4  O   UNL     1       7.663  -0.580  24.943  0.00  0.00    -0.451 OA
ATOM      5  C   UNL     1       7.841  -1.735  24.210  0.00  0.00    +0.181 A 
ATOM      6  C   UNL     1       8.423  -1.797  22.998  0.00  0.00    +0.208 A 
ATOM      7  C   UNL     1       8.873  -0.519  22.362  0.00  0.00    +0.238 A 
ATOM      8  O   UNL     1       9.331  -0.519  21.226  0.00  0.00    -0.283 OA
ATOM      9  C   UNL     1       8.737   0.712  23.180  0.00  0.00    +0.109 A 
ATOM     10  C   UNL     1       9.174   1.973  22.758  0.00  0.00    +0.135 A 
ATOM     11  C   UNL     1       9.040   3.088  23.591  0.00  0.00    +0.092 A 
ENDROOT
BRANCH   5  12
ATOM     12  C   UNL     1       7.304  -2.914  24.907  0.00  0.00    +0.025 A 
ATOM     13  C   UNL     1       5.985  -3.329  24.665  0.00  0.00    +0.015 A 
ATOM     14  C   UNL     1       5.496  -4.502  25.244  0.00  0.00    +0.050 A 
ATOM     15  C   UNL     1       6.327  -5.252  26.063  0.00  0.00    +0.158 A 
ATOM     16  C   UNL     1       7.626  -4.830  26.339  0.00  0.00    +0.159 A 
ATOM     17  C   UNL     1       8.123  -3.661  25.770  0.00  0.00    +0.060 A 
BRANCH  15  18
ATOM     18  O   UNL     1       5.864  -6.425  26.585  0.00  0.00    -0.503 OA
ATOM     19  H   UNL     1       5.300  -6.804  25.882  0.00  0.00    +0.292 HD
ENDBRANCH  15  18
BRANCH  16  20
ATOM     20  O   UNL     1       8.381  -5.612  27.169  0.00  0.00    -0.503 OA
ATOM     21  H   UNL     1       7.825  -6.337  27.502  0.00  0.00    +0.292 HD
ENDBRANCH  16  20
ENDBRANCH   5  12
BRANCH   1  23
ATOM     22  C   UNL     1       9.016   5.272  25.001  0.00  0.00    +0.277 C 
ATOM     23  O   UNL     1       8.400   4.124  25.575  0.00  0.00    -0.495 OA
ENDBRANCH   1  23
BRANCH   6  24
ATOM     24  O   UNL     1       8.625  -2.971  22.292  0.00  0.00    -0.501 OA
ATOM     25  H   UNL     1       9.266  -3.526  22.765  0.00  0.00    +0.292 HD
ENDBRANCH   6  24
BRANCH  10  26
ATOM     26  O   UNL     1       9.752   2.145  21.532  0.00  0.00    -0.506 OA
ATOM     27  H   UNL     1      10.228   2.990  21.493  0.00  0.00    +0.292 HD
ENDBRANCH  10  26
TORSDOF 6
ENDMDL
MODEL 7
REMARK VINA RESULT:      -7.0      1.726      7.097
REMARK  Name = 
REMARK  7 active torsions:
REMARK  status: ('A' for Active; 'I' for Inactive)
REMARK    1  A    between atoms: C_1  and  O_2
REMARK    2  A    between atoms: O_2  and  C_3
REMARK    3  A    between atoms: C_5  and  O_23
REMARK    4  A    between atoms: C_10  and  C_15
REMARK    5  A    between atoms: C_11  and  O_14
REMARK    6  A    between atoms: C_17  and  O_22
REMARK    7  A    between atoms: C_18  and  O_21
REMARK                            x       y       z     vdW  Elec       q    Type
REMARK                         _______ _______ _______ _____ _____    ______ ____
ROOT
ATOM      1  C   UNL     1      10.917   2.975  23.527  0.00  0.00    +0.127 A 
ATOM      2  C   UNL     1      10.728   1.721  24.101  0.00  0.00    +0.092 A 
ATOM      3  C   UNL     1       9.504   1.056  23.945  0.00  0.00    +0.147 A 
ATOM      4  O   UNL     1       9.415  -0.168  24.556  0.00  0.00    -0.451 OA
ATOM      5  C   UNL     1       8.272  -0.919  24.373  0.00  0.00    +0.181 A 
ATOM      6  C   UNL     1       7.196  -0.524  23.667  0.00  0.00    +0.208 A 
ATOM      7  C   UNL     1       7.205   0.849  23.070  0.00  0.00    +0.238 A 
ATOM      8  O   UNL     1       6.215   1.280  22.491  0.00  0.00    -0.283 OA
ATOM      9  C   UNL     1       8.461   1.626  23.215  0.00  0.00    +0.109 A 
ATOM     10  C   UNL     1       8.653   2.895  22.655  0.00  0.00    +0.135 A 
ATOM     11  C   UNL     1       9.873   3.562  22.808  0.00  0.00    +0.092 A 
ENDROOT
BRANCH   5  12
ATOM     12  C   UNL     1       8.354  -2.218  25.057  0.00  0.00    +0.025 A 
ATOM     13  C   UNL     1       7.504  -2.494  26.140  0.00  0.00    +0.015 A 
ATOM     14  C   UNL     1       7.505  -3.757  26.734  0.00  0.00    +0.050 A 
ATOM     15  C   UNL     1       8.355  -4.738  26.243  0.00  0.00    +0.158 A 
ATOM     16  C   UNL     1       9.229  -4.464  25.193  0.00  0.00    +0.159 A 
ATOM     17  C   UNL     1       9.239  -3.207  24.595  0.00  0.00    +0.060 A 
BRANCH  15  18
ATOM     18  O   UNL     1       8.315  -5.987  26.791  0.00  0.00    -0.503 OA
ATOM     19  H   UNL     1       7.367  -6.150  26.971  0.00  0.00    +0.292 HD
ENDBRANCH  15  18
BRANCH  16  20
ATOM     20  O   UNL     1      10.049  -5.475  24.775  0.00  0.00    -0.503 OA
ATOM     21  H   UNL     1      10.516  -5.183  23.973  0.00  0.00    +0.292 HD
ENDBRANCH  16  20
ENDBRANCH   5  12
BRANCH   1  23
ATOM     22  C   UNL     1      11.934   5.115  23.314  0.00  0.00    +0.277 C 
ATOM     23  O   UNL     1      12.058   3.725  23.593  0.00  0.00    -0.495 OA
ENDBRANCH   1  23
BRANCH   6  24
ATOM     24  O   UNL     1       6.071  -1.305  23.464  0.00  0.00    -0.501 OA
ATOM     25  H   UNL     1       5.287  -0.834  23.791  0.00  0.00    +0.292 HD
ENDBRANCH   6  24
BRANCH  10  26
ATOM     26  O   UNL     1       7.665   3.506  21.937  0.00  0.00    -0.506 OA
ATOM     27  H   UNL     1       7.966   3.699  21.034  0.00  0.00    +0.292 HD
ENDBRANCH  10  26
TORSDOF 6
ENDMDL
MODEL 8
REMARK VINA RESULT:      -7.0      3.290      6.177
REMARK  Name = 
REMARK  7 active torsions:
REMARK  status: ('A' for Active; 'I' for Inactive)
REMARK    1  A    between atoms: C_1  and  O_2
REMARK    2  A    between atoms: O_2  and  C_3
REMARK    3  A    between atoms: C_5  and  O_23
REMARK    4  A    between atoms: C_10  and  C_15
REMARK    5  A    between atoms: C_11  and  O_14
REMARK    6  A    between atoms: C_17  and  O_22
REMARK    7  A    between atoms: C_18  and  O_21
REMARK                            x       y       z     vdW  Elec       q    Type
REMARK                         _______ _______ _______ _____ _____    ______ ____
ROOT
ATOM      1  C   UNL     1       3.870  -3.643  25.806  0.00  0.00    +0.127 A 
ATOM      2  C   UNL     1       4.711  -2.719  25.192  0.00  0.00    +0.092 A 
ATOM      3  C   UNL     1       6.075  -3.003  25.043  0.00  0.00    +0.147 A 
ATOM      4  O   UNL     1       6.819  -2.025  24.435  0.00  0.00    -0.451 OA
ATOM      5  C   UNL     1       8.152  -2.271  24.176  0.00  0.00    +0.181 A 
ATOM      6  C   UNL     1       8.809  -3.395  24.516  0.00  0.00    +0.208 A 
ATOM      7  C   UNL     1       8.064  -4.448  25.277  0.00  0.00    +0.238 A 
ATOM      8  O   UNL     1       8.644  -5.449  25.680  0.00  0.00    -0.283 OA
ATOM      9  C   UNL     1       6.616  -4.207  25.497  0.00  0.00    +0.109 A 
ATOM     10  C   UNL     1       5.767  -5.124  26.128  0.00  0.00    +0.135 A 
ATOM     11  C   UNL     1       4.405  -4.844  26.278  0.00  0.00    +0.092 A 
ENDROOT
BRANCH   5  12
ATOM     12  C   UNL     1       8.792  -1.142  23.483  0.00  0.00    +0.025 A 
ATOM     13  C   UNL     1       8.874  -1.137  22.081  0.00  0.00    +0.015 A 
ATOM     14  C   UNL     1       9.390  -0.028  21.408  0.00  0.00    +0.050 A 
ATOM     15  C   UNL     1       9.823   1.068  22.139  0.00  0.00    +0.158 A 
ATOM     16  C   UNL     1       9.782   1.059  23.532  0.00  0.00    +0.159 A 
ATOM     17  C   UNL     1       9.272  -0.042  24.213  0.00  0.00    +0.060 A 
BRANCH  15  18
ATOM     18  O   UNL     1      10.279   2.171  21.476  0.00  0.00    -0.503 OA
ATOM     19  H   UNL     1       9.552   2.413  20.867  0.00  0.00    +0.292 HD
ENDBRANCH  15  18
BRANCH  16  20
ATOM     20  O   UNL     1      10.244   2.168  24.184  0.00  0.00    -0.503 OA
ATOM     21  H   UNL     1      11.204   2.234  24.043  0.00  0.00    +0.292 HD
ENDBRANCH  16  20
ENDBRANCH   5  12
BRANCH   1  23
ATOM     22  C   UNL     1       1.665  -3.958  24.971  0.00  0.00    +0.277 C 
ATOM     23  O   UNL     1       2.526  -3.498  26.007  0.00  0.00    -0.495 OA
ENDBRANCH   1  23
BRANCH   6  24
ATOM     24  O   UNL     1      10.138  -3.639  24.217  0.00  0.00    -0.501 OA
ATOM     25  H   UNL     1      10.384  -3.151  23.415  0.00  0.00    +0.292 HD
ENDBRANCH   6  24
BRANCH  10  26
ATOM     26  O   UNL     1       6.241  -6.315  26.599  0.00  0.00    -0.506 OA
ATOM     27  H   UNL     1       5.863  -7.056  26.098  0.00  0.00    +0.292 HD
ENDBRANCH  10  26
TORSDOF 6
ENDMDL
MODEL 9
REMARK VINA RESULT:      -6.9      2.823      4.914
REMARK  Name = 
REMARK  7 active torsions:
REMARK  status: ('A' for Active; 'I' for Inactive)
REMARK    1  A    between atoms: C_1  and  O_2
REMARK    2  A    between atoms: O_2  and  C_3
REMARK    3  A    between atoms: C_5  and  O_23
REMARK    4  A    between atoms: C_10  and  C_15
REMARK    5  A    between atoms: C_11  and  O_14
REMARK    6  A    between atoms: C_17  and  O_22
REMARK    7  A    between atoms: C_18  and  O_21
REMARK                            x       y       z     vdW  Elec       q    Type
REMARK                         _______ _______ _______ _____ _____    ______ ____
ROOT
ATOM      1  C   UNL     1       5.354  -4.391  22.891  0.00  0.00    +0.127 A 
ATOM      2  C   UNL     1       5.576  -3.018  22.867  0.00  0.00    +0.092 A 
ATOM      3  C   UNL     1       6.846  -2.507  23.169  0.00  0.00    +0.147 A 
ATOM      4  O   UNL     1       6.958  -1.141  23.127  0.00  0.00    -0.451 OA
ATOM      5  C   UNL     1       8.199  -0.572  23.327  0.00  0.00    +0.181 A 
ATOM      6  C   UNL     1       9.324  -1.255  23.610  0.00  0.00    +0.208 A 
ATOM      7  C   UNL     1       9.229  -2.741  23.771  0.00  0.00    +0.238 A 
ATOM      8  O   UNL     1      10.209  -3.392  24.110  0.00  0.00    -0.283 OA
ATOM      9  C   UNL     1       7.906  -3.354  23.492  0.00  0.00    +0.109 A 
ATOM     10  C   UNL     1       7.671  -4.734  23.529  0.00  0.00    +0.135 A 
ATOM     11  C   UNL     1       6.405  -5.248  23.229  0.00  0.00    +0.092 A 
ENDROOT
BRANCH   5  12
ATOM     12  C   UNL     1       8.156   0.893  23.207  0.00  0.00    +0.025 A 
ATOM     13  C   UNL     1       7.870   1.485  21.966  0.00  0.00    +0.015 A 
ATOM     14  C   UNL     1       7.729   2.870  21.860  0.00  0.00    +0.050 A 
ATOM     15  C   UNL     1       7.876   3.656  22.994  0.00  0.00    +0.158 A 
ATOM     16  C   UNL     1       8.196   3.082  24.223  0.00  0.00    +0.159 A 
ATOM     17  C   UNL     1       8.342   1.703  24.340  0.00  0.00    +0.060 A 
BRANCH  15  18
ATOM     18  O   UNL     1       7.685   5.004  22.898  0.00  0.00    -0.503 OA
ATOM     19  H   UNL     1       8.306   5.389  23.548  0.00  0.00    +0.292 HD
ENDBRANCH  15  18
BRANCH  16  20
ATOM     20  O   UNL     1       8.343   3.922  25.292  0.00  0.00    -0.503 OA
ATOM     21  H   UNL     1       9.285   3.958  25.531  0.00  0.00    +0.292 HD
ENDBRANCH  16  20
ENDBRANCH   5  12
BRANCH   1  23
ATOM     22  C   UNL     1       3.239  -5.148  23.677  0.00  0.00    +0.277 C 
ATOM     23  O   UNL     1       4.173  -5.020  22.610  0.00  0.00    -0.495 OA
ENDBRANCH   1  23
BRANCH   6  24
ATOM     24  O   UNL     1      10.568  -0.670  23.773  0.00  0.00    -0.501 OA
ATOM     25  H   UNL     1      10.947  -0.468  22.902  0.00  0.00    +0.292 HD
ENDBRANCH   6  24
BRANCH  10  26
ATOM     26  O   UNL     1       8.669  -5.611  23.846  0.00  0.00    -0.506 OA
ATOM     27  H   UNL     1       8.654  -5.820  24.794  0.00  0.00    +0.292 HD
ENDBRANCH  10  26
TORSDOF 6
ENDMDL
