MODEL 1
REMARK VINA RESULT:      -7.4      0.000      0.000
REMARK  Name = 
REMARK  11 active torsions:
REMARK  status: ('A' for Active; 'I' for Inactive)
REMARK    1  A    between atoms: C_1  and  C_2
REMARK    2  A    between atoms: C_4  and  O_37
REMARK    3  A    between atoms: C_6  and  O_36
REMARK    4  A    between atoms: C_8  and  O_35
REMARK    5  A    between atoms: C_10  and  O_13
REMARK    6  A    between atoms: O_13  and  C_14
REMARK    7  A    between atoms: C_15  and  C_27
REMARK    8  A    between atoms: C_19  and  O_26
REMARK    9  A    between atoms: C_21  and  O_25
REMARK   10  A    between atoms: C_29  and  O_34
REMARK   11  A    between atoms: C_30  and  O_33
REMARK                            x       y       z     vdW  Elec       q    Type
REMARK                         _______ _______ _______ _____ _____    ______ ____
ROOT
ATOM      1  C   UNL     1       7.923  -2.624  25.171  0.00  0.00    +0.214 A 
ATOM      2  C   UNL     1       8.806  -1.465  25.500  0.00  0.00    +0.238 A 
ATOM      3  O   UNL     1       9.150  -1.226  26.654  0.00  0.00    -0.283 OA
ATOM      4  C   UNL     1       9.170  -0.563  24.401  0.00  0.00    +0.109 A 
ATOM      5  C   UNL     1       8.504  -0.717  23.186  0.00  0.00    +0.147 A 
ATOM      6  C   UNL     1       8.750   0.177  22.138  0.00  0.00    +0.092 A 
ATOM      7  C   UNL     1       9.662   1.215  22.322  0.00  0.00    +0.124 A 
ATOM      8  C   UNL     1      10.348   1.365  23.519  0.00  0.00    +0.091 A 
ATOM      9  O   UNL     1       7.578  -1.707  22.957  0.00  0.00    -0.451 OA
ATOM     10  C   UNL     1      10.108   0.470  24.558  0.00  0.00    +0.135 A 
ATOM     11  C   UNL     1       7.331  -2.643  23.956  0.00  0.00    +0.181 A 
ENDROOT
BRANCH  11  12
ATOM     12  C   UNL     1       6.338  -3.693  23.562  0.00  0.00    +0.025 A 
ATOM     13  C   UNL     1       4.954  -3.480  23.727  0.00  0.00    +0.015 A 
ATOM     14  C   UNL     1       4.017  -4.444  23.319  0.00  0.00    +0.050 A 
ATOM     15  C   UNL     1       4.455  -5.620  22.734  0.00  0.00    +0.158 A 
ATOM     16  C   UNL     1       5.811  -5.866  22.584  0.00  0.00    +0.159 A 
ATOM     17  C   UNL     1       6.746  -4.931  23.019  0.00  0.00    +0.060 A 
BRANCH  15  18
ATOM     18  O   UNL     1       3.543  -6.536  22.296  0.00  0.00    -0.503 OA
ATOM     19  H   UNL     1       3.198  -6.949  23.116  0.00  0.00    +0.292 HD
ENDBRANCH  15  18
BRANCH  16  20
ATOM     20  O   UNL     1       6.187  -7.039  21.988  0.00  0.00    -0.503 OA
ATOM     21  H   UNL     1       7.120  -6.952  21.717  0.00  0.00    +0.292 HD
ENDBRANCH  16  20
ENDBRANCH  11  12
BRANCH   7  22
ATOM     22  O   UNL     1       9.922   2.125  21.343  0.00  0.00    -0.507 OA
ATOM     23  H   UNL     1       9.566   1.798  20.500  0.00  0.00    +0.292 HD
ENDBRANCH   7  22
BRANCH  10  24
ATOM     24  O   UNL     1      10.813   0.610  25.716  0.00  0.00    -0.506 OA
ATOM     25  H   UNL     1      10.804  -0.219  26.221  0.00  0.00    +0.292 HD
ENDBRANCH  10  24
BRANCH   1  26
ATOM     26  O   UNL     1       7.630  -3.593  26.114  0.00  0.00    -0.453 OA
BRANCH  26  30
ATOM     27  C   UNL     1       3.537  -2.300  26.879  0.00  0.00    +0.041 C 
ATOM     28  C   UNL     1       4.631  -2.548  27.917  0.00  0.00    +0.150 C 
ATOM     29  O   UNL     1       5.935  -2.516  27.332  0.00  0.00    -0.334 OA
ATOM     30  C   UNL     1       6.295  -3.698  26.610  0.00  0.00    +0.339 C 
ATOM     31  C   UNL     1       6.268  -4.944  27.520  0.00  0.00    +0.214 C 
ATOM     32  C   UNL     1       4.877  -5.100  28.136  0.00  0.00    +0.180 C 
ATOM     33  C   UNL     1       4.449  -3.789  28.813  0.00  0.00    +0.174 C 
BRANCH  31  34
ATOM     34  O   UNL     1       6.600  -6.135  26.784  0.00  0.00    -0.383 OA
ATOM     35  H   UNL     1       6.024  -6.127  25.992  0.00  0.00    +0.210 HD
ENDBRANCH  31  34
BRANCH  32  36
ATOM     36  O   UNL     1       3.975  -5.592  27.127  0.00  0.00    -0.386 OA
ATOM     37  H   UNL     1       3.409  -6.292  27.490  0.00  0.00    +0.210 HD
ENDBRANCH  32  36
BRANCH  33  38
ATOM     38  O   UNL     1       3.130  -3.885  29.334  0.00  0.00    -0.387 OA
ATOM     39  H   UNL     1       2.512  -3.878  28.582  0.00  0.00    +0.210 HD
ENDBRANCH  33  38
ENDBRANCH  26  30
ENDBRANCH   1  26
TORSDOF 10
ENDMDL
MODEL 2
REMARK VINA RESULT:      -7.4      1.904      4.704
REMARK  Name = 
REMARK  11 active torsions:
REMARK  status: ('A' for Active; 'I' for Inactive)
REMARK    1  A    between atoms: C_1  and  C_2
REMARK    2  A    between atoms: C_4  and  O_37
REMARK    3  A    between atoms: C_6  and  O_36
REMARK    4  A    between atoms: C_8  and  O_35
REMARK    5  A    between atoms: C_10  and  O_13
REMARK    6  A    between atoms: O_13  and  C_14
REMARK    7  A    between atoms: C_15  and  C_27
REMARK    8  A    between atoms: C_19  and  O_26
REMARK    9  A    between atoms: C_21  and  O_25
REMARK   10  A    between atoms: C_29  and  O_34
REMARK   11  A    between atoms: C_30  and  O_33
REMARK                            x       y       z     vdW  Elec       q    Type
REMARK                         _______ _______ _______ _____ _____    ______ ____
ROOT
ATOM      1  C   UNL     1       6.904  -4.395  24.894  0.00  0.00    +0.214 A 
ATOM      2  C   UNL     1       7.614  -3.639  23.819  0.00  0.00    +0.238 A 
ATOM      3  O   UNL     1       7.876  -4.156  22.737  0.00  0.00    -0.283 OA
ATOM      4  C   UNL     1       8.075  -2.283  24.141  0.00  0.00    +0.109 A 
ATOM      5  C   UNL     1       8.016  -1.876  25.472  0.00  0.00    +0.147 A 
ATOM      6  C   UNL     1       8.528  -0.628  25.843  0.00  0.00    +0.092 A 
ATOM      7  C   UNL     1       9.095   0.196  24.873  0.00  0.00    +0.124 A 
ATOM      8  C   UNL     1       9.139  -0.189  23.539  0.00  0.00    +0.091 A 
ATOM      9  O   UNL     1       7.490  -2.657  26.474  0.00  0.00    -0.451 OA
ATOM     10  C   UNL     1       8.622  -1.427  23.171  0.00  0.00    +0.135 A 
ATOM     11  C   UNL     1       6.932  -3.889  26.147  0.00  0.00    +0.181 A 
ENDROOT
BRANCH  11  12
ATOM     12  C   UNL     1       6.354  -4.617  27.322  0.00  0.00    +0.025 A 
ATOM     13  C   UNL     1       5.206  -4.133  27.980  0.00  0.00    +0.015 A 
ATOM     14  C   UNL     1       4.635  -4.834  29.055  0.00  0.00    +0.050 A 
ATOM     15  C   UNL     1       5.200  -6.028  29.471  0.00  0.00    +0.158 A 
ATOM     16  C   UNL     1       6.344  -6.513  28.857  0.00  0.00    +0.159 A 
ATOM     17  C   UNL     1       6.936  -5.805  27.815  0.00  0.00    +0.060 A 
BRANCH  15  18
ATOM     18  O   UNL     1       4.619  -6.733  30.485  0.00  0.00    -0.503 OA
ATOM     19  H   UNL     1       4.125  -7.450  30.033  0.00  0.00    +0.292 HD
ENDBRANCH  15  18
BRANCH  16  20
ATOM     20  O   UNL     1       6.852  -7.705  29.299  0.00  0.00    -0.503 OA
ATOM     21  H   UNL     1       7.812  -7.591  29.432  0.00  0.00    +0.292 HD
ENDBRANCH  16  20
ENDBRANCH  11  12
BRANCH   7  22
ATOM     22  O   UNL     1       9.627   1.411  25.182  0.00  0.00    -0.507 OA
ATOM     23  H   UNL     1       8.941   1.965  25.590  0.00  0.00    +0.292 HD
ENDBRANCH   7  22
BRANCH  10  24
ATOM     24  O   UNL     1       8.643  -1.778  21.854  0.00  0.00    -0.506 OA
ATOM     25  H   UNL     1       9.430  -1.413  21.419  0.00  0.00    +0.292 HD
ENDBRANCH  10  24
BRANCH   1  26
ATOM     26  O   UNL     1       6.326  -5.627  24.644  0.00  0.00    -0.453 OA
BRANCH  26  30
ATOM     27  C   UNL     1       2.285  -5.846  26.264  0.00  0.00    +0.041 C 
ATOM     28  C   UNL     1       3.034  -6.947  25.513  0.00  0.00    +0.150 C 
ATOM     29  O   UNL     1       4.447  -6.728  25.522  0.00  0.00    -0.334 OA
ATOM     30  C   UNL     1       4.903  -5.731  24.602  0.00  0.00    +0.339 C 
ATOM     31  C   UNL     1       4.540  -6.099  23.148  0.00  0.00    +0.214 C 
ATOM     32  C   UNL     1       3.026  -6.281  23.027  0.00  0.00    +0.180 C 
ATOM     33  C   UNL     1       2.526  -7.267  24.093  0.00  0.00    +0.174 C 
BRANCH  31  34
ATOM     34  O   UNL     1       4.971  -5.081  22.228  0.00  0.00    -0.383 OA
ATOM     35  H   UNL     1       5.552  -4.484  22.744  0.00  0.00    +0.210 HD
ENDBRANCH  31  34
BRANCH  32  36
ATOM     36  O   UNL     1       2.399  -4.985  23.049  0.00  0.00    -0.386 OA
ATOM     37  H   UNL     1       1.668  -4.972  23.687  0.00  0.00    +0.210 HD
ENDBRANCH  32  36
BRANCH  33  38
ATOM     38  O   UNL     1       1.111  -7.402  24.048  0.00  0.00    -0.387 OA
ATOM     39  H   UNL     1       0.736  -6.828  24.740  0.00  0.00    +0.210 HD
ENDBRANCH  33  38
ENDBRANCH  26  30
ENDBRANCH   1  26
TORSDOF 10
ENDMDL
MODEL 3
REMARK VINA RESULT:      -7.3      1.998      6.433
REMARK  Name = 
REMARK  11 active torsions:
REMARK  status: ('A' for Active; 'I' for Inactive)
REMARK    1  A    between atoms: C_1  and  C_2
REMARK    2  A    between atoms: C_4  and  O_37
REMARK    3  A    between atoms: C_6  and  O_36
REMARK    4  A    between atoms: C_8  and  O_35
REMARK    5  A    between atoms: C_10  and  O_13
REMARK    6  A    between atoms: O_13  and  C_14
REMARK    7  A    between atoms: C_15  and  C_27
REMARK    8  A    between atoms: C_19  and  O_26
REMARK    9  A    between atoms: C_21  and  O_25
REMARK   10  A    between atoms: C_29  and  O_34
REMARK   11  A    between atoms: C_30  and  O_33
REMARK                            x       y       z     vdW  Elec       q    Type
REMARK                         _______ _______ _______ _____ _____    ______ ____
ROOT
ATOM      1  C   UNL     1       7.024  -1.547  25.628  0.00  0.00    +0.214 A 
ATOM      2  C   UNL     1       6.761  -0.761  26.870  0.00  0.00    +0.238 A 
ATOM      3  O   UNL     1       7.653  -0.135  27.436  0.00  0.00    -0.283 OA
ATOM      4  C   UNL     1       5.413  -0.842  27.446  0.00  0.00    +0.109 A 
ATOM      5  C   UNL     1       4.544  -1.802  26.931  0.00  0.00    +0.147 A 
ATOM      6  C   UNL     1       3.282  -1.979  27.508  0.00  0.00    +0.092 A 
ATOM      7  C   UNL     1       2.907  -1.191  28.595  0.00  0.00    +0.124 A 
ATOM      8  C   UNL     1       3.755  -0.216  29.102  0.00  0.00    +0.091 A 
ATOM      9  O   UNL     1       4.869  -2.622  25.877  0.00  0.00    -0.451 OA
ATOM     10  C   UNL     1       5.008  -0.036  28.522  0.00  0.00    +0.135 A 
ATOM     11  C   UNL     1       6.097  -2.454  25.246  0.00  0.00    +0.181 A 
ENDROOT
BRANCH  11  12
ATOM     12  C   UNL     1       6.307  -3.377  24.085  0.00  0.00    +0.025 A 
ATOM     13  C   UNL     1       6.900  -4.643  24.264  0.00  0.00    +0.015 A 
ATOM     14  C   UNL     1       7.060  -5.530  23.187  0.00  0.00    +0.050 A 
ATOM     15  C   UNL     1       6.617  -5.163  21.927  0.00  0.00    +0.158 A 
ATOM     16  C   UNL     1       6.053  -3.914  21.719  0.00  0.00    +0.159 A 
ATOM     17  C   UNL     1       5.926  -3.017  22.774  0.00  0.00    +0.060 A 
BRANCH  15  18
ATOM     18  O   UNL     1       6.730  -6.043  20.890  0.00  0.00    -0.503 OA
ATOM     19  H   UNL     1       6.212  -6.825  21.175  0.00  0.00    +0.292 HD
ENDBRANCH  15  18
BRANCH  16  20
ATOM     20  O   UNL     1       5.621  -3.610  20.456  0.00  0.00    -0.503 OA
ATOM     21  H   UNL     1       5.087  -2.795  20.510  0.00  0.00    +0.292 HD
ENDBRANCH  16  20
ENDBRANCH  11  12
BRANCH   7  22
ATOM     22  O   UNL     1       1.700  -1.337  29.207  0.00  0.00    -0.507 OA
ATOM     23  H   UNL     1       1.717  -2.137  29.760  0.00  0.00    +0.292 HD
ENDBRANCH   7  22
BRANCH  10  24
ATOM     24  O   UNL     1       5.817   0.947  29.010  0.00  0.00    -0.506 OA
ATOM     25  H   UNL     1       5.301   1.586  29.527  0.00  0.00    +0.292 HD
ENDBRANCH  10  24
BRANCH   1  26
ATOM     26  O   UNL     1       8.224  -1.435  24.948  0.00  0.00    -0.453 OA
BRANCH  26  30
ATOM     27  C   UNL     1       7.459   1.744  22.065  0.00  0.00    +0.041 C 
ATOM     28  C   UNL     1       8.550   0.676  21.986  0.00  0.00    +0.150 C 
ATOM     29  O   UNL     1       8.252  -0.448  22.817  0.00  0.00    -0.334 OA
ATOM     30  C   UNL     1       8.495  -0.242  24.212  0.00  0.00    +0.339 C 
ATOM     31  C   UNL     1       9.975   0.103  24.480  0.00  0.00    +0.214 C 
ATOM     32  C   UNL     1      10.365   1.349  23.682  0.00  0.00    +0.180 C 
ATOM     33  C   UNL     1       9.995   1.165  22.202  0.00  0.00    +0.174 C 
BRANCH  31  34
ATOM     34  O   UNL     1      10.211   0.341  25.879  0.00  0.00    -0.383 OA
ATOM     35  H   UNL     1      10.134   1.310  26.000  0.00  0.00    +0.210 HD
ENDBRANCH  31  34
BRANCH  32  36
ATOM     36  O   UNL     1       9.789   2.507  24.318  0.00  0.00    -0.386 OA
ATOM     37  H   UNL     1      10.177   2.639  25.197  0.00  0.00    +0.210 HD
ENDBRANCH  32  36
BRANCH  33  38
ATOM     38  O   UNL     1      10.283   2.337  21.450  0.00  0.00    -0.387 OA
ATOM     39  H   UNL     1      10.686   2.057  20.608  0.00  0.00    +0.210 HD
ENDBRANCH  33  38
ENDBRANCH  26  30
ENDBRANCH   1  26
TORSDOF 10
ENDMDL
MODEL 4
REMARK VINA RESULT:      -7.1      3.300      7.204
REMARK  Name = 
REMARK  11 active torsions:
REMARK  status: ('A' for Active; 'I' for Inactive)
REMARK    1  A    between atoms: C_1  and  C_2
REMARK    2  A    between atoms: C_4  and  O_37
REMARK    3  A    between atoms: C_6  and  O_36
REMARK    4  A    between atoms: C_8  and  O_35
REMARK    5  A    between atoms: C_10  and  O_13
REMARK    6  A    between atoms: O_13  and  C_14
REMARK    7  A    between atoms: C_15  and  C_27
REMARK    8  A    between atoms: C_19  and  O_26
REMARK    9  A    between atoms: C_21  and  O_25
REMARK   10  A    between atoms: C_29  and  O_34
REMARK   11  A    between atoms: C_30  and  O_33
REMARK                            x       y       z     vdW  Elec       q    Type
REMARK                         _______ _______ _______ _____ _____    ______ ____
ROOT
ATOM      1  C   UNL     1       6.179  -0.913  24.728  0.00  0.00    +0.214 A 
ATOM      2  C   UNL     1       5.178  -2.017  24.831  0.00  0.00    +0.238 A 
ATOM      3  O   UNL     1       4.321  -2.027  25.709  0.00  0.00    -0.283 OA
ATOM      4  C   UNL     1       5.320  -3.143  23.900  0.00  0.00    +0.109 A 
ATOM      5  C   UNL     1       6.485  -3.215  23.140  0.00  0.00    +0.147 A 
ATOM      6  C   UNL     1       6.707  -4.317  22.307  0.00  0.00    +0.092 A 
ATOM      7  C   UNL     1       5.757  -5.335  22.247  0.00  0.00    +0.124 A 
ATOM      8  C   UNL     1       4.581  -5.264  22.983  0.00  0.00    +0.091 A 
ATOM      9  O   UNL     1       7.467  -2.253  23.176  0.00  0.00    -0.451 OA
ATOM     10  C   UNL     1       4.358  -4.163  23.805  0.00  0.00    +0.135 A 
ATOM     11  C   UNL     1       7.271  -1.120  23.959  0.00  0.00    +0.181 A 
ENDROOT
BRANCH  11  12
ATOM     12  C   UNL     1       8.394  -0.131  23.874  0.00  0.00    +0.025 A 
ATOM     13  C   UNL     1       9.285   0.049  24.951  0.00  0.00    +0.015 A 
ATOM     14  C   UNL     1      10.363   0.944  24.859  0.00  0.00    +0.050 A 
ATOM     15  C   UNL     1      10.566   1.655  23.688  0.00  0.00    +0.158 A 
ATOM     16  C   UNL     1       9.689   1.516  22.623  0.00  0.00    +0.159 A 
ATOM     17  C   UNL     1       8.597   0.659  22.721  0.00  0.00    +0.060 A 
BRANCH  15  18
ATOM     18  O   UNL     1      11.641   2.490  23.583  0.00  0.00    -0.503 OA
ATOM     19  H   UNL     1      12.112   2.391  24.437  0.00  0.00    +0.292 HD
ENDBRANCH  15  18
BRANCH  16  20
ATOM     20  O   UNL     1       9.945   2.233  21.486  0.00  0.00    -0.503 OA
ATOM     21  H   UNL     1      10.281   3.109  21.753  0.00  0.00    +0.292 HD
ENDBRANCH  16  20
ENDBRANCH  11  12
BRANCH   7  22
ATOM     22  O   UNL     1       5.932  -6.439  21.471  0.00  0.00    -0.507 OA
ATOM     23  H   UNL     1       5.179  -7.040  21.596  0.00  0.00    +0.292 HD
ENDBRANCH   7  22
BRANCH  10  24
ATOM     24  O   UNL     1       3.186  -4.091  24.496  0.00  0.00    -0.506 OA
ATOM     25  H   UNL     1       3.213  -3.359  25.134  0.00  0.00    +0.292 HD
ENDBRANCH  10  24
BRANCH   1  26
ATOM     26  O   UNL     1       6.052   0.243  25.478  0.00  0.00    -0.453 OA
BRANCH  26  30
ATOM     27  C   UNL     1       5.169   3.404  22.609  0.00  0.00    +0.041 C 
ATOM     28  C   UNL     1       5.615   3.580  24.060  0.00  0.00    +0.150 C 
ATOM     29  O   UNL     1       6.242   2.400  24.568  0.00  0.00    -0.334 OA
ATOM     30  C   UNL     1       5.338   1.351  24.929  0.00  0.00    +0.339 C 
ATOM     31  C   UNL     1       4.349   1.810  26.021  0.00  0.00    +0.214 C 
ATOM     32  C   UNL     1       3.574   3.035  25.531  0.00  0.00    +0.180 C 
ATOM     33  C   UNL     1       4.550   4.114  25.038  0.00  0.00    +0.174 C 
BRANCH  31  34
ATOM     34  O   UNL     1       3.421   0.765  26.360  0.00  0.00    -0.383 OA
ATOM     35  H   UNL     1       3.824   0.286  27.114  0.00  0.00    +0.210 HD
ENDBRANCH  31  34
BRANCH  32  36
ATOM     36  O   UNL     1       2.594   2.608  24.566  0.00  0.00    -0.386 OA
ATOM     37  H   UNL     1       1.700   2.825  24.872  0.00  0.00    +0.210 HD
ENDBRANCH  32  36
BRANCH  33  38
ATOM     38  O   UNL     1       3.854   5.237  24.512  0.00  0.00    -0.387 OA
ATOM     39  H   UNL     1       3.097   4.902  23.998  0.00  0.00    +0.210 HD
ENDBRANCH  33  38
ENDBRANCH  26  30
ENDBRANCH   1  26
TORSDOF 10
ENDMDL
MODEL 5
REMARK VINA RESULT:      -7.1      2.351      7.699
REMARK  Name = 
REMARK  11 active torsions:
REMARK  status: ('A' for Active; 'I' for Inactive)
REMARK    1  A    between atoms: C_1  and  C_2
REMARK    2  A    between atoms: C_4  and  O_37
REMARK    3  A    between atoms: C_6  and  O_36
REMARK    4  A    between atoms: C_8  and  O_35
REMARK    5  A    between atoms: C_10  and  O_13
REMARK    6  A    between atoms: O_13  and  C_14
REMARK    7  A    between atoms: C_15  and  C_27
REMARK    8  A    between atoms: C_19  and  O_26
REMARK    9  A    between atoms: C_21  and  O_25
REMARK   10  A    between atoms: C_29  and  O_34
REMARK   11  A    between atoms: C_30  and  O_33
REMARK                            x       y       z     vdW  Elec       q    Type
REMARK                         _______ _______ _______ _____ _____    ______ ____
ROOT
ATOM      1  C   UNL     1       7.092  -2.422  24.237  0.00  0.00    +0.214 A 
ATOM      2  C   UNL     1       6.685  -3.576  23.382  0.00  0.00    +0.238 A 
ATOM      3  O   UNL     1       7.414  -4.005  22.493  0.00  0.00    -0.283 OA
ATOM      4  C   UNL     1       5.335  -4.117  23.580  0.00  0.00    +0.109 A 
ATOM      5  C   UNL     1       4.457  -3.395  24.386  0.00  0.00    +0.147 A 
ATOM      6  C   UNL     1       3.133  -3.822  24.531  0.00  0.00    +0.092 A 
ATOM      7  C   UNL     1       2.705  -4.969  23.865  0.00  0.00    +0.124 A 
ATOM      8  C   UNL     1       3.576  -5.710  23.078  0.00  0.00    +0.091 A 
ATOM      9  O   UNL     1       4.818  -2.244  25.047  0.00  0.00    -0.451 OA
ATOM     10  C   UNL     1       4.896  -5.288  22.941  0.00  0.00    +0.135 A 
ATOM     11  C   UNL     1       6.135  -1.804  24.965  0.00  0.00    +0.181 A 
ENDROOT
BRANCH  11  12
ATOM     12  C   UNL     1       6.406  -0.568  25.767  0.00  0.00    +0.025 A 
ATOM     13  C   UNL     1       6.822  -0.654  27.111  0.00  0.00    +0.015 A 
ATOM     14  C   UNL     1       7.117   0.501  27.855  0.00  0.00    +0.050 A 
ATOM     15  C   UNL     1       7.011   1.745  27.258  0.00  0.00    +0.158 A 
ATOM     16  C   UNL     1       6.580   1.859  25.945  0.00  0.00    +0.159 A 
ATOM     17  C   UNL     1       6.250   0.721  25.214  0.00  0.00    +0.060 A 
BRANCH  15  18
ATOM     18  O   UNL     1       7.343   2.864  27.966  0.00  0.00    -0.503 OA
ATOM     19  H   UNL     1       8.227   3.116  27.625  0.00  0.00    +0.292 HD
ENDBRANCH  15  18
BRANCH  16  20
ATOM     20  O   UNL     1       6.506   3.112  25.402  0.00  0.00    -0.503 OA
ATOM     21  H   UNL     1       6.676   3.758  26.112  0.00  0.00    +0.292 HD
ENDBRANCH  16  20
ENDBRANCH  11  12
BRANCH   7  22
ATOM     22  O   UNL     1       1.422  -5.416  23.954  0.00  0.00    -0.507 OA
ATOM     23  H   UNL     1       0.963  -5.236  23.117  0.00  0.00    +0.292 HD
ENDBRANCH   7  22
BRANCH  10  24
ATOM     24  O   UNL     1       5.748  -6.043  22.192  0.00  0.00    -0.506 OA
ATOM     25  H   UNL     1       6.656  -5.708  22.270  0.00  0.00    +0.292 HD
ENDBRANCH  10  24
BRANCH   1  26
ATOM     26  O   UNL     1       8.384  -1.927  24.207  0.00  0.00    -0.453 OA
BRANCH  26  30
ATOM     27  C   UNL     1       7.709   1.538  21.649  0.00  0.00    +0.041 C 
ATOM     28  C   UNL     1       8.935   0.625  21.654  0.00  0.00    +0.150 C 
ATOM     29  O   UNL     1       8.654  -0.637  22.264  0.00  0.00    -0.334 OA
ATOM     30  C   UNL     1       8.613  -0.614  23.694  0.00  0.00    +0.339 C 
ATOM     31  C   UNL     1       9.957  -0.146  24.288  0.00  0.00    +0.214 C 
ATOM     32  C   UNL     1      10.304   1.241  23.744  0.00  0.00    +0.180 C 
ATOM     33  C   UNL     1      10.235   1.239  22.210  0.00  0.00    +0.174 C 
BRANCH  31  34
ATOM     34  O   UNL     1       9.904  -0.093  25.725  0.00  0.00    -0.383 OA
ATOM     35  H   UNL     1      10.342   0.746  25.977  0.00  0.00    +0.210 HD
ENDBRANCH  31  34
BRANCH  32  36
ATOM     36  O   UNL     1       9.468   2.218  24.394  0.00  0.00    -0.386 OA
ATOM     37  H   UNL     1       9.663   2.253  25.343  0.00  0.00    +0.210 HD
ENDBRANCH  32  36
BRANCH  33  38
ATOM     38  O   UNL     1      10.486   2.534  21.680  0.00  0.00    -0.387 OA
ATOM     39  H   UNL     1       9.925   3.166  22.164  0.00  0.00    +0.210 HD
ENDBRANCH  33  38
ENDBRANCH  26  30
ENDBRANCH   1  26
TORSDOF 10
ENDMDL
MODEL 6
REMARK VINA RESULT:      -7.0      1.909      2.298
REMARK  Name = 
REMARK  11 active torsions:
REMARK  status: ('A' for Active; 'I' for Inactive)
REMARK    1  A    between atoms: C_1  and  C_2
REMARK    2  A    between atoms: C_4  and  O_37
REMARK    3  A    between atoms: C_6  and  O_36
REMARK    4  A    between atoms: C_8  and  O_35
REMARK    5  A    between atoms: C_10  and  O_13
REMARK    6  A    between atoms: O_13  and  C_14
REMARK    7  A    between atoms: C_15  and  C_27
REMARK    8  A    between atoms: C_19  and  O_26
REMARK    9  A    between atoms: C_21  and  O_25
REMARK   10  A    between atoms: C_29  and  O_34
REMARK   11  A    between atoms: C_30  and  O_33
REMARK                            x       y       z     vdW  Elec       q    Type
REMARK                         _______ _______ _______ _____ _____    ______ ____
ROOT
ATOM      1  C   UNL     1       7.591  -1.372  24.936  0.00  0.00    +0.214 A 
ATOM      2  C   UNL     1       7.737   0.029  25.431  0.00  0.00    +0.238 A 
ATOM      3  O   UNL     1       7.980   0.273  26.609  0.00  0.00    -0.283 OA
ATOM      4  C   UNL     1       7.482   1.112  24.472  0.00  0.00    +0.109 A 
ATOM      5  C   UNL     1       6.918   0.772  23.244  0.00  0.00    +0.147 A 
ATOM      6  C   UNL     1       6.572   1.778  22.335  0.00  0.00    +0.092 A 
ATOM      7  C   UNL     1       6.796   3.112  22.669  0.00  0.00    +0.124 A 
ATOM      8  C   UNL     1       7.379   3.461  23.880  0.00  0.00    +0.091 A 
ATOM      9  O   UNL     1       6.653  -0.524  22.872  0.00  0.00    -0.451 OA
ATOM     10  C   UNL     1       7.729   2.459  24.780  0.00  0.00    +0.135 A 
ATOM     11  C   UNL     1       7.017  -1.560  23.727  0.00  0.00    +0.181 A 
ENDROOT
BRANCH  11  12
ATOM     12  C   UNL     1       6.716  -2.922  23.182  0.00  0.00    +0.025 A 
ATOM     13  C   UNL     1       7.745  -3.748  22.687  0.00  0.00    +0.015 A 
ATOM     14  C   UNL     1       7.473  -5.043  22.214  0.00  0.00    +0.050 A 
ATOM     15  C   UNL     1       6.175  -5.524  22.244  0.00  0.00    +0.158 A 
ATOM     16  C   UNL     1       5.140  -4.722  22.701  0.00  0.00    +0.159 A 
ATOM     17  C   UNL     1       5.398  -3.425  23.136  0.00  0.00    +0.060 A 
BRANCH  15  18
ATOM     18  O   UNL     1       5.918  -6.798  21.827  0.00  0.00    -0.503 OA
ATOM     19  H   UNL     1       6.518  -6.932  21.064  0.00  0.00    +0.292 HD
ENDBRANCH  15  18
BRANCH  16  20
ATOM     20  O   UNL     1       3.879  -5.253  22.720  0.00  0.00    -0.503 OA
ATOM     21  H   UNL     1       3.458  -4.997  23.562  0.00  0.00    +0.292 HD
ENDBRANCH  16  20
ENDBRANCH  11  12
BRANCH   7  22
ATOM     22  O   UNL     1       6.458   4.130  21.831  0.00  0.00    -0.507 OA
ATOM     23  H   UNL     1       6.204   4.906  22.358  0.00  0.00    +0.292 HD
ENDBRANCH   7  22
BRANCH  10  24
ATOM     24  O   UNL     1       8.330   2.815  25.951  0.00  0.00    -0.506 OA
ATOM     25  H   UNL     1       8.196   3.760  26.127  0.00  0.00    +0.292 HD
ENDBRANCH  10  24
BRANCH   1  26
ATOM     26  O   UNL     1       7.930  -2.453  25.731  0.00  0.00    -0.453 OA
BRANCH  26  30
ATOM     27  C   UNL     1       3.859  -3.666  26.708  0.00  0.00    +0.041 C 
ATOM     28  C   UNL     1       5.018  -3.469  27.685  0.00  0.00    +0.150 C 
ATOM     29  O   UNL     1       6.051  -2.656  27.125  0.00  0.00    -0.334 OA
ATOM     30  C   UNL     1       6.899  -3.328  26.188  0.00  0.00    +0.339 C 
ATOM     31  C   UNL     1       7.612  -4.532  26.838  0.00  0.00    +0.214 C 
ATOM     32  C   UNL     1       6.572  -5.501  27.404  0.00  0.00    +0.180 C 
ATOM     33  C   UNL     1       5.595  -4.749  28.321  0.00  0.00    +0.174 C 
BRANCH  31  34
ATOM     34  O   UNL     1       8.440  -5.226  25.887  0.00  0.00    -0.383 OA
ATOM     35  H   UNL     1       8.825  -4.531  25.315  0.00  0.00    +0.210 HD
ENDBRANCH  31  34
BRANCH  32  36
ATOM     36  O   UNL     1       5.962  -6.218  26.314  0.00  0.00    -0.386 OA
ATOM     37  H   UNL     1       5.271  -5.679  25.899  0.00  0.00    +0.210 HD
ENDBRANCH  32  36
BRANCH  33  38
ATOM     38  O   UNL     1       4.575  -5.613  28.806  0.00  0.00    -0.387 OA
ATOM     39  H   UNL     1       3.956  -5.782  28.074  0.00  0.00    +0.210 HD
ENDBRANCH  33  38
ENDBRANCH  26  30
ENDBRANCH   1  26
TORSDOF 10
ENDMDL
MODEL 7
REMARK VINA RESULT:      -7.0      2.242      6.329
REMARK  Name = 
REMARK  11 active torsions:
REMARK  status: ('A' for Active; 'I' for Inactive)
REMARK    1  A    between atoms: C_1  and  C_2
REMARK    2  A    between atoms: C_4  and  O_37
REMARK    3  A    between atoms: C_6  and  O_36
REMARK    4  A    between atoms: C_8  and  O_35
REMARK    5  A    between atoms: C_10  and  O_13
REMARK    6  A    between atoms: O_13  and  C_14
REMARK    7  A    between atoms: C_15  and  C_27
REMARK    8  A    between atoms: C_19  and  O_26
REMARK    9  A    between atoms: C_21  and  O_25
REMARK   10  A    between atoms: C_29  and  O_34
REMARK   11  A    between atoms: C_30  and  O_33
REMARK                            x       y       z     vdW  Elec       q    Type
REMARK                         _______ _______ _______ _____ _____    ______ ____
ROOT
ATOM      1  C   UNL     1       7.633  -1.998  25.306  0.00  0.00    +0.214 A 
ATOM      2  C   UNL     1       7.025  -3.347  25.505  0.00  0.00    +0.238 A 
ATOM      3  O   UNL     1       6.907  -3.840  26.624  0.00  0.00    -0.283 OA
ATOM      4  C   UNL     1       6.661  -4.107  24.303  0.00  0.00    +0.109 A 
ATOM      5  C   UNL     1       7.099  -3.622  23.072  0.00  0.00    +0.147 A 
ATOM      6  C   UNL     1       6.856  -4.358  21.907  0.00  0.00    +0.092 A 
ATOM      7  C   UNL     1       6.177  -5.572  21.992  0.00  0.00    +0.124 A 
ATOM      8  C   UNL     1       5.716  -6.054  23.210  0.00  0.00    +0.091 A 
ATOM      9  O   UNL     1       7.793  -2.444  22.932  0.00  0.00    -0.451 OA
ATOM     10  C   UNL     1       5.951  -5.317  24.366  0.00  0.00    +0.135 A 
ATOM     11  C   UNL     1       8.022  -1.658  24.057  0.00  0.00    +0.181 A 
ENDROOT
BRANCH  11  12
ATOM     12  C   UNL     1       8.747  -0.381  23.760  0.00  0.00    +0.025 A 
ATOM     13  C   UNL     1       9.953  -0.063  24.416  0.00  0.00    +0.015 A 
ATOM     14  C   UNL     1      10.658   1.113  24.110  0.00  0.00    +0.050 A 
ATOM     15  C   UNL     1      10.170   1.971  23.139  0.00  0.00    +0.158 A 
ATOM     16  C   UNL     1       8.973   1.694  22.496  0.00  0.00    +0.159 A 
ATOM     17  C   UNL     1       8.251   0.549  22.821  0.00  0.00    +0.060 A 
BRANCH  15  18
ATOM     18  O   UNL     1      10.879   3.089  22.809  0.00  0.00    -0.503 OA
ATOM     19  H   UNL     1      10.643   3.741  23.502  0.00  0.00    +0.292 HD
ENDBRANCH  15  18
BRANCH  16  20
ATOM     20  O   UNL     1       8.545   2.569  21.536  0.00  0.00    -0.503 OA
ATOM     21  H   UNL     1       9.312   2.807  20.983  0.00  0.00    +0.292 HD
ENDBRANCH  16  20
ENDBRANCH  11  12
BRANCH   7  22
ATOM     22  O   UNL     1       5.933  -6.339  20.893  0.00  0.00    -0.507 OA
ATOM     23  H   UNL     1       6.058  -7.275  21.124  0.00  0.00    +0.292 HD
ENDBRANCH   7  22
BRANCH  10  24
ATOM     24  O   UNL     1       5.465  -5.786  25.550  0.00  0.00    -0.506 OA
ATOM     25  H   UNL     1       4.604  -5.381  25.747  0.00  0.00    +0.292 HD
ENDBRANCH  10  24
BRANCH   1  26
ATOM     26  O   UNL     1       7.893  -1.162  26.378  0.00  0.00    -0.453 OA
BRANCH  26  30
ATOM     27  C   UNL     1       3.723  -0.322  27.331  0.00  0.00    +0.041 C 
ATOM     28  C   UNL     1       4.697   0.591  26.587  0.00  0.00    +0.150 C 
ATOM     29  O   UNL     1       5.805  -0.138  26.054  0.00  0.00    -0.334 OA
ATOM     30  C   UNL     1       6.806  -0.491  27.014  0.00  0.00    +0.339 C 
ATOM     31  C   UNL     1       7.405   0.760  27.689  0.00  0.00    +0.214 C 
ATOM     32  C   UNL     1       6.291   1.568  28.356  0.00  0.00    +0.180 C 
ATOM     33  C   UNL     1       5.166   1.847  27.347  0.00  0.00    +0.174 C 
BRANCH  31  34
ATOM     34  O   UNL     1       8.388   0.401  28.677  0.00  0.00    -0.383 OA
ATOM     35  H   UNL     1       8.287   1.052  29.401  0.00  0.00    +0.210 HD
ENDBRANCH  31  34
BRANCH  32  36
ATOM     36  O   UNL     1       5.881   0.891  29.559  0.00  0.00    -0.386 OA
ATOM     37  H   UNL     1       6.648   0.712  30.125  0.00  0.00    +0.210 HD
ENDBRANCH  32  36
BRANCH  33  38
ATOM     38  O   UNL     1       4.085   2.538  27.960  0.00  0.00    -0.387 OA
ATOM     39  H   UNL     1       3.408   1.879  28.197  0.00  0.00    +0.210 HD
ENDBRANCH  33  38
ENDBRANCH  26  30
ENDBRANCH   1  26
TORSDOF 10
ENDMDL
MODEL 8
REMARK VINA RESULT:      -7.0      1.905      4.278
REMARK  Name = 
REMARK  11 active torsions:
REMARK  status: ('A' for Active; 'I' for Inactive)
REMARK    1  A    between atoms: C_1  and  C_2
REMARK    2  A    between atoms: C_4  and  O_37
REMARK    3  A    between atoms: C_6  and  O_36
REMARK    4  A    between atoms: C_8  and  O_35
REMARK    5  A    between atoms: C_10  and  O_13
REMARK    6  A    between atoms: O_13  and  C_14
REMARK    7  A    between atoms: C_15  and  C_27
REMARK    8  A    between atoms: C_19  and  O_26
REMARK    9  A    between atoms: C_21  and  O_25
REMARK   10  A    between atoms: C_29  and  O_34
REMARK   11  A    between atoms: C_30  and  O_33
REMARK                            x       y       z     vdW  Elec       q    Type
REMARK                         _______ _______ _______ _____ _____    ______ ____
ROOT
ATOM      1  C   UNL     1       7.394  -2.659  24.718  0.00  0.00    +0.214 A 
ATOM      2  C   UNL     1       8.592  -2.430  23.856  0.00  0.00    +0.238 A 
ATOM      3  O   UNL     1       9.452  -3.292  23.708  0.00  0.00    -0.283 OA
ATOM      4  C   UNL     1       8.751  -1.095  23.267  0.00  0.00    +0.109 A 
ATOM      5  C   UNL     1       7.909  -0.081  23.718  0.00  0.00    +0.147 A 
ATOM      6  C   UNL     1       8.082   1.228  23.254  0.00  0.00    +0.092 A 
ATOM      7  C   UNL     1       9.101   1.504  22.344  0.00  0.00    +0.124 A 
ATOM      8  C   UNL     1       9.933   0.498  21.870  0.00  0.00    +0.091 A 
ATOM      9  O   UNL     1       6.903  -0.290  24.632  0.00  0.00    -0.451 OA
ATOM     10  C   UNL     1       9.753  -0.805  22.326  0.00  0.00    +0.135 A 
ATOM     11  C   UNL     1       6.667  -1.583  25.090  0.00  0.00    +0.181 A 
ENDROOT
BRANCH  11  12
ATOM     12  C   UNL     1       5.516  -1.679  26.044  0.00  0.00    +0.025 A 
ATOM     13  C   UNL     1       5.675  -1.353  27.406  0.00  0.00    +0.015 A 
ATOM     14  C   UNL     1       4.589  -1.402  28.296  0.00  0.00    +0.050 A 
ATOM     15  C   UNL     1       3.337  -1.764  27.830  0.00  0.00    +0.158 A 
ATOM     16  C   UNL     1       3.159  -2.114  26.500  0.00  0.00    +0.159 A 
ATOM     17  C   UNL     1       4.238  -2.104  25.621  0.00  0.00    +0.060 A 
BRANCH  15  18
ATOM     18  O   UNL     1       2.273  -1.766  28.685  0.00  0.00    -0.503 OA
ATOM     19  H   UNL     1       2.531  -1.143  29.397  0.00  0.00    +0.292 HD
ENDBRANCH  15  18
BRANCH  16  20
ATOM     20  O   UNL     1       1.897  -2.451  26.091  0.00  0.00    -0.503 OA
ATOM     21  H   UNL     1       1.391  -1.626  25.968  0.00  0.00    +0.292 HD
ENDBRANCH  16  20
ENDBRANCH  11  12
BRANCH   7  22
ATOM     22  O   UNL     1       9.328   2.762  21.877  0.00  0.00    -0.507 OA
ATOM     23  H   UNL     1       9.763   2.707  21.010  0.00  0.00    +0.292 HD
ENDBRANCH   7  22
BRANCH  10  24
ATOM     24  O   UNL     1      10.556  -1.787  21.828  0.00  0.00    -0.506 OA
ATOM     25  H   UNL     1      10.505  -1.807  20.858  0.00  0.00    +0.292 HD
ENDBRANCH  10  24
BRANCH   1  26
ATOM     26  O   UNL     1       7.097  -3.917  25.213  0.00  0.00    -0.453 OA
BRANCH  26  30
ATOM     27  C   UNL     1       5.894  -5.947  21.548  0.00  0.00    +0.041 C 
ATOM     28  C   UNL     1       5.056  -4.972  22.375  0.00  0.00    +0.150 C 
ATOM     29  O   UNL     1       5.871  -4.162  23.225  0.00  0.00    -0.334 OA
ATOM     30  C   UNL     1       6.344  -4.821  24.404  0.00  0.00    +0.339 C 
ATOM     31  C   UNL     1       5.175  -5.314  25.282  0.00  0.00    +0.214 C 
ATOM     32  C   UNL     1       4.283  -6.255  24.468  0.00  0.00    +0.180 C 
ATOM     33  C   UNL     1       3.871  -5.583  23.150  0.00  0.00    +0.174 C 
BRANCH  31  34
ATOM     34  O   UNL     1       5.652  -6.004  26.450  0.00  0.00    -0.383 OA
ATOM     35  H   UNL     1       6.304  -6.659  26.124  0.00  0.00    +0.210 HD
ENDBRANCH  31  34
BRANCH  32  36
ATOM     36  O   UNL     1       4.953  -7.523  24.327  0.00  0.00    -0.386 OA
ATOM     37  H   UNL     1       4.822  -7.877  23.434  0.00  0.00    +0.210 HD
ENDBRANCH  32  36
BRANCH  33  38
ATOM     38  O   UNL     1       3.099  -6.462  22.343  0.00  0.00    -0.387 OA
ATOM     39  H   UNL     1       2.483  -5.920  21.818  0.00  0.00    +0.210 HD
ENDBRANCH  33  38
ENDBRANCH  26  30
ENDBRANCH   1  26
TORSDOF 10
ENDMDL
MODEL 9
REMARK VINA RESULT:      -6.9      3.250      8.017
REMARK  Name = 
REMARK  11 active torsions:
REMARK  status: ('A' for Active; 'I' for Inactive)
REMARK    1  A    between atoms: C_1  and  C_2
REMARK    2  A    between atoms: C_4  and  O_37
REMARK    3  A    between atoms: C_6  and  O_36
REMARK    4  A    between atoms: C_8  and  O_35
REMARK    5  A    between atoms: C_10  and  O_13
REMARK    6  A    between atoms: O_13  and  C_14
REMARK    7  A    between atoms: C_15  and  C_27
REMARK    8  A    between atoms: C_19  and  O_26
REMARK    9  A    between atoms: C_21  and  O_25
REMARK   10  A    between atoms: C_29  and  O_34
REMARK   11  A    between atoms: C_30  and  O_33
REMARK                            x       y       z     vdW  Elec       q    Type
REMARK                         _______ _______ _______ _____ _____    ______ ____
ROOT
ATOM      1  C   UNL     1       6.405  -0.351  24.631  0.00  0.00    +0.214 A 
ATOM      2  C   UNL     1       6.675  -1.618  23.887  0.00  0.00    +0.238 A 
ATOM      3  O   UNL     1       6.459  -1.714  22.682  0.00  0.00    -0.283 OA
ATOM      4  C   UNL     1       7.118  -2.777  24.670  0.00  0.00    +0.109 A 
ATOM      5  C   UNL     1       7.050  -2.688  26.059  0.00  0.00    +0.147 A 
ATOM      6  C   UNL     1       7.374  -3.798  26.846  0.00  0.00    +0.092 A 
ATOM      7  C   UNL     1       7.763  -4.986  26.229  0.00  0.00    +0.124 A 
ATOM      8  C   UNL     1       7.857  -5.081  24.847  0.00  0.00    +0.091 A 
ATOM      9  O   UNL     1       6.651  -1.550  26.720  0.00  0.00    -0.451 OA
ATOM     10  C   UNL     1       7.541  -3.973  24.066  0.00  0.00    +0.135 A 
ATOM     11  C   UNL     1       6.358  -0.408  25.980  0.00  0.00    +0.181 A 
ENDROOT
BRANCH  11  12
ATOM     12  C   UNL     1       5.982   0.772  26.823  0.00  0.00    +0.025 A 
ATOM     13  C   UNL     1       4.630   1.075  27.084  0.00  0.00    +0.015 A 
ATOM     14  C   UNL     1       4.274   2.155  27.908  0.00  0.00    +0.050 A 
ATOM     15  C   UNL     1       5.264   2.931  28.486  0.00  0.00    +0.158 A 
ATOM     16  C   UNL     1       6.601   2.670  28.226  0.00  0.00    +0.159 A 
ATOM     17  C   UNL     1       6.960   1.624  27.381  0.00  0.00    +0.060 A 
BRANCH  15  18
ATOM     18  O   UNL     1       4.919   3.951  29.324  0.00  0.00    -0.503 OA
ATOM     19  H   UNL     1       3.940   3.977  29.288  0.00  0.00    +0.292 HD
ENDBRANCH  15  18
BRANCH  16  20
ATOM     20  O   UNL     1       7.538   3.460  28.835  0.00  0.00    -0.503 OA
ATOM     21  H   UNL     1       7.171   3.758  29.688  0.00  0.00    +0.292 HD
ENDBRANCH  16  20
ENDBRANCH  11  12
BRANCH   7  22
ATOM     22  O   UNL     1       8.068  -6.103  26.946  0.00  0.00    -0.507 OA
ATOM     23  H   UNL     1       8.672  -6.660  26.426  0.00  0.00    +0.292 HD
ENDBRANCH   7  22
BRANCH  10  24
ATOM     24  O   UNL     1       7.670  -4.070  22.713  0.00  0.00    -0.506 OA
ATOM     25  H   UNL     1       7.105  -4.781  22.369  0.00  0.00    +0.292 HD
ENDBRANCH  10  24
BRANCH   1  26
ATOM     26  O   UNL     1       6.104   0.823  23.964  0.00  0.00    -0.453 OA
BRANCH  26  30
ATOM     27  C   UNL     1       9.921   1.578  21.998  0.00  0.00    +0.041 C 
ATOM     28  C   UNL     1       9.561   1.880  23.452  0.00  0.00    +0.150 C 
ATOM     29  O   UNL     1       8.432   1.120  23.888  0.00  0.00    -0.334 OA
ATOM     30  C   UNL     1       7.168   1.611  23.430  0.00  0.00    +0.339 C 
ATOM     31  C   UNL     1       6.918   3.056  23.910  0.00  0.00    +0.214 C 
ATOM     32  C   UNL     1       8.049   3.963  23.421  0.00  0.00    +0.180 C 
ATOM     33  C   UNL     1       9.410   3.370  23.819  0.00  0.00    +0.174 C 
BRANCH  31  34
ATOM     34  O   UNL     1       5.661   3.559  23.422  0.00  0.00    -0.383 OA
ATOM     35  H   UNL     1       5.136   2.769  23.178  0.00  0.00    +0.210 HD
ENDBRANCH  31  34
BRANCH  32  36
ATOM     36  O   UNL     1       7.875   4.206  22.013  0.00  0.00    -0.386 OA
ATOM     37  H   UNL     1       8.043   5.138  21.806  0.00  0.00    +0.210 HD
ENDBRANCH  32  36
BRANCH  33  38
ATOM     38  O   UNL     1      10.482   4.157  23.317  0.00  0.00    -0.387 OA
ATOM     39  H   UNL     1      10.314   5.083  23.569  0.00  0.00    +0.210 HD
ENDBRANCH  33  38
ENDBRANCH  26  30
ENDBRANCH   1  26
TORSDOF 10
ENDMDL
