MODEL 1
REMARK VINA RESULT:      -6.8      0.000      0.000
REMARK  Name = 
REMARK  13 active torsions:
REMARK  status: ('A' for Active; 'I' for Inactive)
REMARK    1  A    between atoms: C_1  and  C_2
REMARK    2  A    between atoms: C_2  and  O_4
REMARK    3  A    between atoms: O_4  and  C_5
REMARK    4  A    between atoms: C_7  and  C_37
REMARK    5  A    between atoms: C_10  and  O_15
REMARK    6  A    between atoms: C_12  and  O_14
REMARK    7  A    between atoms: O_15  and  C_16
REMARK    8  A    between atoms: C_17  and  C_29
REMARK    9  A    between atoms: C_21  and  O_28
REMARK   10  A    between atoms: C_23  and  O_27
REMARK   11  A    between atoms: C_31  and  O_36
REMARK   12  A    between atoms: C_32  and  O_35
REMARK   13  A    between atoms: C_37  and  O_38
REMARK                            x       y       z     vdW  Elec       q    Type
REMARK                         _______ _______ _______ _____ _____    ______ ____
ROOT
ATOM      1  C   UNL     1       7.612  -1.939  25.379  0.00  0.00    +0.214 A 
ATOM      2  C   UNL     1       7.061  -3.328  25.604  0.00  0.00    +0.238 A 
ATOM      3  O   UNL     1       6.971  -3.769  26.747  0.00  0.00    -0.283 OA
ATOM      4  C   UNL     1       6.708  -4.126  24.415  0.00  0.00    +0.109 A 
ATOM      5  C   UNL     1       7.056  -3.617  23.167  0.00  0.00    +0.147 A 
ATOM      6  C   UNL     1       6.798  -4.339  21.994  0.00  0.00    +0.092 A 
ATOM      7  C   UNL     1       6.169  -5.571  22.076  0.00  0.00    +0.124 A 
ATOM      8  C   UNL     1       5.794  -6.094  23.307  0.00  0.00    +0.091 A 
ATOM      9  O   UNL     1       7.688  -2.425  23.005  0.00  0.00    -0.451 OA
ATOM     10  C   UNL     1       6.062  -5.370  24.478  0.00  0.00    +0.135 A 
ATOM     11  C   UNL     1       7.948  -1.615  24.105  0.00  0.00    +0.181 A 
ENDROOT
BRANCH  11  12
ATOM     12  C   UNL     1       8.717  -0.406  23.685  0.00  0.00    +0.025 A 
ATOM     13  C   UNL     1       9.891  -0.063  24.402  0.00  0.00    +0.015 A 
ATOM     14  C   UNL     1      10.633   1.083  24.104  0.00  0.00    +0.050 A 
ATOM     15  C   UNL     1      10.188   1.917  23.097  0.00  0.00    +0.158 A 
ATOM     16  C   UNL     1       9.051   1.594  22.363  0.00  0.00    +0.159 A 
ATOM     17  C   UNL     1       8.337   0.423  22.622  0.00  0.00    +0.060 A 
BRANCH  15  18
ATOM     18  O   UNL     1      10.859   3.078  22.849  0.00  0.00    -0.503 OA
ATOM     19  H   UNL     1      11.800   2.813  22.812  0.00  0.00    +0.292 HD
ENDBRANCH  15  18
BRANCH  16  20
ATOM     20  O   UNL     1       8.640   2.487  21.411  0.00  0.00    -0.503 OA
ATOM     21  H   UNL     1       8.947   2.157  20.548  0.00  0.00    +0.292 HD
ENDBRANCH  16  20
ENDBRANCH  11  12
BRANCH   7  22
ATOM     22  O   UNL     1       5.894  -6.308  20.964  0.00  0.00    -0.507 OA
ATOM     23  H   UNL     1       6.693  -6.791  20.689  0.00  0.00    +0.292 HD
ENDBRANCH   7  22
BRANCH  10  24
ATOM     24  O   UNL     1       5.671  -5.898  25.674  0.00  0.00    -0.506 OA
ATOM     25  H   UNL     1       6.448  -6.081  26.229  0.00  0.00    +0.292 HD
ENDBRANCH  10  24
BRANCH   1  26
ATOM     26  O   UNL     1       7.886  -1.105  26.468  0.00  0.00    -0.453 OA
BRANCH  26  29
ATOM     27  C   UNL     1       6.806   2.034  26.523  0.00  0.00    +0.242 C 
ATOM     28  C   UNL     1       7.231   0.997  27.553  0.00  0.00    +0.226 C 
ATOM     29  C   UNL     1       6.770  -0.360  26.993  0.00  0.00    +0.341 C 
ATOM     30  O   UNL     1       5.809  -0.099  25.949  0.00  0.00    -0.330 OA
ATOM     31  C   UNL     1       5.913   1.278  25.548  0.00  0.00    +0.191 C 
BRANCH  28  32
ATOM     32  O   UNL     1       6.518   1.275  28.772  0.00  0.00    -0.382 OA
ATOM     33  H   UNL     1       6.322   2.236  28.754  0.00  0.00    +0.210 HD
ENDBRANCH  28  32
BRANCH  27  34
ATOM     34  O   UNL     1       7.900   2.591  25.761  0.00  0.00    -0.456 OA
BRANCH  34  36
ATOM     35  C   UNL     1       7.642   4.390  24.270  0.00  0.00    +0.136 C 
ATOM     36  C   UNL     1       7.914   3.950  25.676  0.00  0.00    +0.304 C 
ATOM     37  O   UNL     1       8.037   4.714  26.622  0.00  0.00    -0.251 OA
ENDBRANCH  34  36
ENDBRANCH  27  34
BRANCH  31  38
ATOM     38  C   UNL     1       4.511   1.895  25.486  0.00  0.00    +0.191 C 
BRANCH  38  39
ATOM     39  O   UNL     1       4.163   2.186  24.134  0.00  0.00    -0.392 OA
ATOM     40  H   UNL     1       3.447   2.849  24.178  0.00  0.00    +0.210 HD
ENDBRANCH  38  39
ENDBRANCH  31  38
ENDBRANCH  26  29
ENDBRANCH   1  26
TORSDOF 12
ENDMDL
MODEL 2
REMARK VINA RESULT:      -6.7      2.245      7.584
REMARK  Name = 
REMARK  13 active torsions:
REMARK  status: ('A' for Active; 'I' for Inactive)
REMARK    1  A    between atoms: C_1  and  C_2
REMARK    2  A    between atoms: C_2  and  O_4
REMARK    3  A    between atoms: O_4  and  C_5
REMARK    4  A    between atoms: C_7  and  C_37
REMARK    5  A    between atoms: C_10  and  O_15
REMARK    6  A    between atoms: C_12  and  O_14
REMARK    7  A    between atoms: O_15  and  C_16
REMARK    8  A    between atoms: C_17  and  C_29
REMARK    9  A    between atoms: C_21  and  O_28
REMARK   10  A    between atoms: C_23  and  O_27
REMARK   11  A    between atoms: C_31  and  O_36
REMARK   12  A    between atoms: C_32  and  O_35
REMARK   13  A    between atoms: C_37  and  O_38
REMARK                            x       y       z     vdW  Elec       q    Type
REMARK                         _______ _______ _______ _____ _____    ______ ____
ROOT
ATOM      1  C   UNL     1       7.999  -1.299  24.709  0.00  0.00    +0.214 A 
ATOM      2  C   UNL     1       8.895  -0.247  24.097  0.00  0.00    +0.238 A 
ATOM      3  O   UNL     1      10.114  -0.349  24.206  0.00  0.00    -0.283 OA
ATOM      4  C   UNL     1       8.250   0.905  23.440  0.00  0.00    +0.109 A 
ATOM      5  C   UNL     1       6.869   1.033  23.568  0.00  0.00    +0.147 A 
ATOM      6  C   UNL     1       6.190   2.127  23.013  0.00  0.00    +0.092 A 
ATOM      7  C   UNL     1       6.902   3.086  22.310  0.00  0.00    +0.124 A 
ATOM      8  C   UNL     1       8.277   2.971  22.151  0.00  0.00    +0.091 A 
ATOM      9  O   UNL     1       6.105   0.145  24.255  0.00  0.00    -0.451 OA
ATOM     10  C   UNL     1       8.952   1.879  22.716  0.00  0.00    +0.135 A 
ATOM     11  C   UNL     1       6.679  -0.996  24.804  0.00  0.00    +0.181 A 
ENDROOT
BRANCH  11  12
ATOM     12  C   UNL     1       5.659  -1.769  25.573  0.00  0.00    +0.025 A 
ATOM     13  C   UNL     1       5.829  -1.917  26.973  0.00  0.00    +0.015 A 
ATOM     14  C   UNL     1       4.947  -2.672  27.751  0.00  0.00    +0.050 A 
ATOM     15  C   UNL     1       3.895  -3.312  27.126  0.00  0.00    +0.158 A 
ATOM     16  C   UNL     1       3.693  -3.168  25.758  0.00  0.00    +0.159 A 
ATOM     17  C   UNL     1       4.539  -2.372  24.985  0.00  0.00    +0.060 A 
BRANCH  15  18
ATOM     18  O   UNL     1       3.074  -4.115  27.862  0.00  0.00    -0.503 OA
ATOM     19  H   UNL     1       2.859  -3.583  28.655  0.00  0.00    +0.292 HD
ENDBRANCH  15  18
BRANCH  16  20
ATOM     20  O   UNL     1       2.659  -3.867  25.196  0.00  0.00    -0.503 OA
ATOM     21  H   UNL     1       1.839  -3.373  25.377  0.00  0.00    +0.292 HD
ENDBRANCH  16  20
ENDBRANCH  11  12
BRANCH   7  22
ATOM     22  O   UNL     1       6.286   4.164  21.750  0.00  0.00    -0.507 OA
ATOM     23  H   UNL     1       5.385   3.917  21.477  0.00  0.00    +0.292 HD
ENDBRANCH   7  22
BRANCH  10  24
ATOM     24  O   UNL     1      10.300   1.782  22.533  0.00  0.00    -0.506 OA
ATOM     25  H   UNL     1      10.767   2.005  23.357  0.00  0.00    +0.292 HD
ENDBRANCH  10  24
BRANCH   1  26
ATOM     26  O   UNL     1       8.552  -2.454  25.272  0.00  0.00    -0.453 OA
BRANCH  26  29
ATOM     27  C   UNL     1       7.282  -5.374  24.331  0.00  0.00    +0.242 C 
ATOM     28  C   UNL     1       8.570  -4.892  24.982  0.00  0.00    +0.226 C 
ATOM     29  C   UNL     1       8.867  -3.518  24.353  0.00  0.00    +0.341 C 
ATOM     30  O   UNL     1       8.064  -3.402  23.160  0.00  0.00    -0.330 OA
ATOM     31  C   UNL     1       7.025  -4.394  23.193  0.00  0.00    +0.191 C 
BRANCH  28  32
ATOM     32  O   UNL     1       9.614  -5.815  24.622  0.00  0.00    -0.382 OA
ATOM     33  H   UNL     1       9.909  -5.549  23.726  0.00  0.00    +0.210 HD
ENDBRANCH  28  32
BRANCH  27  34
ATOM     34  O   UNL     1       6.130  -5.333  25.202  0.00  0.00    -0.456 OA
BRANCH  34  36
ATOM     35  C   UNL     1       4.801  -6.853  26.408  0.00  0.00    +0.136 C 
ATOM     36  C   UNL     1       5.263  -6.375  25.064  0.00  0.00    +0.304 C 
ATOM     37  O   UNL     1       4.843  -6.807  24.001  0.00  0.00    -0.251 OA
ENDBRANCH  34  36
ENDBRANCH  27  34
BRANCH  31  38
ATOM     38  C   UNL     1       6.971  -5.116  21.841  0.00  0.00    +0.191 C 
BRANCH  38  39
ATOM     39  O   UNL     1       5.615  -5.369  21.475  0.00  0.00    -0.392 OA
ATOM     40  H   UNL     1       5.333  -4.600  20.944  0.00  0.00    +0.210 HD
ENDBRANCH  38  39
ENDBRANCH  31  38
ENDBRANCH  26  29
ENDBRANCH   1  26
TORSDOF 12
ENDMDL
MODEL 3
REMARK VINA RESULT:      -6.6      1.656      7.252
REMARK  Name = 
REMARK  13 active torsions:
REMARK  status: ('A' for Active; 'I' for Inactive)
REMARK    1  A    between atoms: C_1  and  C_2
REMARK    2  A    between atoms: C_2  and  O_4
REMARK    3  A    between atoms: O_4  and  C_5
REMARK    4  A    between atoms: C_7  and  C_37
REMARK    5  A    between atoms: C_10  and  O_15
REMARK    6  A    between atoms: C_12  and  O_14
REMARK    7  A    between atoms: O_15  and  C_16
REMARK    8  A    between atoms: C_17  and  C_29
REMARK    9  A    between atoms: C_21  and  O_28
REMARK   10  A    between atoms: C_23  and  O_27
REMARK   11  A    between atoms: C_31  and  O_36
REMARK   12  A    between atoms: C_32  and  O_35
REMARK   13  A    between atoms: C_37  and  O_38
REMARK                            x       y       z     vdW  Elec       q    Type
REMARK                         _______ _______ _______ _____ _____    ______ ____
ROOT
ATOM      1  C   UNL     1       6.526  -0.915  24.774  0.00  0.00    +0.214 A 
ATOM      2  C   UNL     1       6.785   0.520  25.171  0.00  0.00    +0.238 A 
ATOM      3  O   UNL     1       6.054   1.065  25.994  0.00  0.00    -0.283 OA
ATOM      4  C   UNL     1       7.885   1.230  24.493  0.00  0.00    +0.109 A 
ATOM      5  C   UNL     1       8.505   0.591  23.422  0.00  0.00    +0.147 A 
ATOM      6  C   UNL     1       9.526   1.221  22.697  0.00  0.00    +0.092 A 
ATOM      7  C   UNL     1       9.938   2.493  23.063  0.00  0.00    +0.124 A 
ATOM      8  C   UNL     1       9.349   3.144  24.140  0.00  0.00    +0.091 A 
ATOM      9  O   UNL     1       8.147  -0.647  22.992  0.00  0.00    -0.451 OA
ATOM     10  C   UNL     1       8.323   2.512  24.856  0.00  0.00    +0.135 A 
ATOM     11  C   UNL     1       7.176  -1.371  23.674  0.00  0.00    +0.181 A 
ENDROOT
BRANCH  11  12
ATOM     12  C   UNL     1       6.902  -2.658  22.968  0.00  0.00    +0.025 A 
ATOM     13  C   UNL     1       5.682  -2.799  22.259  0.00  0.00    +0.015 A 
ATOM     14  C   UNL     1       5.330  -3.992  21.621  0.00  0.00    +0.050 A 
ATOM     15  C   UNL     1       6.189  -5.069  21.710  0.00  0.00    +0.158 A 
ATOM     16  C   UNL     1       7.402  -4.952  22.381  0.00  0.00    +0.159 A 
ATOM     17  C   UNL     1       7.782  -3.748  22.974  0.00  0.00    +0.060 A 
BRANCH  15  18
ATOM     18  O   UNL     1       5.821  -6.261  21.158  0.00  0.00    -0.503 OA
ATOM     19  H   UNL     1       4.887  -6.130  20.895  0.00  0.00    +0.292 HD
ENDBRANCH  15  18
BRANCH  16  20
ATOM     20  O   UNL     1       8.184  -6.071  22.470  0.00  0.00    -0.503 OA
ATOM     21  H   UNL     1       8.424  -6.334  21.563  0.00  0.00    +0.292 HD
ENDBRANCH  16  20
ENDBRANCH  11  12
BRANCH   7  22
ATOM     22  O   UNL     1      10.928   3.144  22.392  0.00  0.00    -0.507 OA
ATOM     23  H   UNL     1      10.546   3.883  21.888  0.00  0.00    +0.292 HD
ENDBRANCH   7  22
BRANCH  10  24
ATOM     24  O   UNL     1       7.771   3.167  25.919  0.00  0.00    -0.506 OA
ATOM     25  H   UNL     1       7.258   2.546  26.465  0.00  0.00    +0.292 HD
ENDBRANCH  10  24
BRANCH   1  26
ATOM     26  O   UNL     1       5.550  -1.665  25.441  0.00  0.00    -0.453 OA
BRANCH  26  29
ATOM     27  C   UNL     1       5.906  -4.833  26.367  0.00  0.00    +0.242 C 
ATOM     28  C   UNL     1       5.101  -3.631  26.840  0.00  0.00    +0.226 C 
ATOM     29  C   UNL     1       5.998  -2.405  26.593  0.00  0.00    +0.341 C 
ATOM     30  O   UNL     1       7.344  -2.883  26.388  0.00  0.00    -0.330 OA
ATOM     31  C   UNL     1       7.305  -4.291  26.104  0.00  0.00    +0.191 C 
BRANCH  28  32
ATOM     32  O   UNL     1       4.880  -3.782  28.254  0.00  0.00    -0.382 OA
ATOM     33  H   UNL     1       4.025  -4.254  28.342  0.00  0.00    +0.210 HD
ENDBRANCH  28  32
BRANCH  27  34
ATOM     34  O   UNL     1       5.430  -5.413  25.132  0.00  0.00    -0.456 OA
BRANCH  34  36
ATOM     35  C   UNL     1       3.353  -5.967  24.180  0.00  0.00    +0.136 C 
ATOM     36  C   UNL     1       4.357  -6.243  25.258  0.00  0.00    +0.304 C 
ATOM     37  O   UNL     1       4.257  -7.148  26.073  0.00  0.00    -0.251 OA
ENDBRANCH  34  36
ENDBRANCH  27  34
BRANCH  31  38
ATOM     38  C   UNL     1       8.350  -5.011  26.966  0.00  0.00    +0.191 C 
BRANCH  38  39
ATOM     39  O   UNL     1       7.722  -6.017  27.758  0.00  0.00    -0.392 OA
ATOM     40  H   UNL     1       8.423  -6.660  27.978  0.00  0.00    +0.210 HD
ENDBRANCH  38  39
ENDBRANCH  31  38
ENDBRANCH  26  29
ENDBRANCH   1  26
TORSDOF 12
ENDMDL
MODEL 4
REMARK VINA RESULT:      -6.4      1.797      2.239
REMARK  Name = 
REMARK  13 active torsions:
REMARK  status: ('A' for Active; 'I' for Inactive)
REMARK    1  A    between atoms: C_1  and  C_2
REMARK    2  A    between atoms: C_2  and  O_4
REMARK    3  A    between atoms: O_4  and  C_5
REMARK    4  A    between atoms: C_7  and  C_37
REMARK    5  A    between atoms: C_10  and  O_15
REMARK    6  A    between atoms: C_12  and  O_14
REMARK    7  A    between atoms: O_15  and  C_16
REMARK    8  A    between atoms: C_17  and  C_29
REMARK    9  A    between atoms: C_21  and  O_28
REMARK   10  A    between atoms: C_23  and  O_27
REMARK   11  A    between atoms: C_31  and  O_36
REMARK   12  A    between atoms: C_32  and  O_35
REMARK   13  A    between atoms: C_37  and  O_38
REMARK                            x       y       z     vdW  Elec       q    Type
REMARK                         _______ _______ _______ _____ _____    ______ ____
ROOT
ATOM      1  C   UNL     1       7.287  -3.206  25.728  0.00  0.00    +0.214 A 
ATOM      2  C   UNL     1       6.852  -4.475  26.424  0.00  0.00    +0.238 A 
ATOM      3  O   UNL     1       7.346  -4.776  27.507  0.00  0.00    -0.283 OA
ATOM      4  C   UNL     1       5.881  -5.340  25.726  0.00  0.00    +0.109 A 
ATOM      5  C   UNL     1       5.556  -5.018  24.411  0.00  0.00    +0.147 A 
ATOM      6  C   UNL     1       4.679  -5.819  23.667  0.00  0.00    +0.092 A 
ATOM      7  C   UNL     1       4.113  -6.939  24.255  0.00  0.00    +0.124 A 
ATOM      8  C   UNL     1       4.406  -7.271  25.572  0.00  0.00    +0.091 A 
ATOM      9  O   UNL     1       6.082  -3.948  23.761  0.00  0.00    -0.451 OA
ATOM     10  C   UNL     1       5.290  -6.470  26.309  0.00  0.00    +0.135 A 
ATOM     11  C   UNL     1       6.926  -3.068  24.428  0.00  0.00    +0.181 A 
ENDROOT
BRANCH  11  12
ATOM     12  C   UNL     1       7.435  -2.027  23.486  0.00  0.00    +0.025 A 
ATOM     13  C   UNL     1       8.709  -2.209  22.893  0.00  0.00    +0.015 A 
ATOM     14  C   UNL     1       9.276  -1.252  22.045  0.00  0.00    +0.050 A 
ATOM     15  C   UNL     1       8.579  -0.085  21.805  0.00  0.00    +0.158 A 
ATOM     16  C   UNL     1       7.317   0.111  22.357  0.00  0.00    +0.159 A 
ATOM     17  C   UNL     1       6.724  -0.864  23.161  0.00  0.00    +0.060 A 
BRANCH  15  18
ATOM     18  O   UNL     1       9.155   0.889  21.043  0.00  0.00    -0.503 OA
ATOM     19  H   UNL     1       8.466   1.579  20.966  0.00  0.00    +0.292 HD
ENDBRANCH  15  18
BRANCH  16  20
ATOM     20  O   UNL     1       6.703   1.310  22.116  0.00  0.00    -0.503 OA
ATOM     21  H   UNL     1       7.398   1.988  22.050  0.00  0.00    +0.292 HD
ENDBRANCH  16  20
ENDBRANCH  11  12
BRANCH   7  22
ATOM     22  O   UNL     1       3.252  -7.745  23.573  0.00  0.00    -0.507 OA
ATOM     23  H   UNL     1       3.326  -7.565  22.620  0.00  0.00    +0.292 HD
ENDBRANCH   7  22
BRANCH  10  24
ATOM     24  O   UNL     1       5.550  -6.809  27.605  0.00  0.00    -0.506 OA
ATOM     25  H   UNL     1       5.353  -6.060  28.193  0.00  0.00    +0.292 HD
ENDBRANCH  10  24
BRANCH   1  26
ATOM     26  O   UNL     1       8.141  -2.306  26.376  0.00  0.00    -0.453 OA
BRANCH  26  29
ATOM     27  C   UNL     1       7.664   0.978  26.494  0.00  0.00    +0.242 C 
ATOM     28  C   UNL     1       8.362  -0.065  27.355  0.00  0.00    +0.226 C 
ATOM     29  C   UNL     1       7.508  -1.341  27.239  0.00  0.00    +0.341 C 
ATOM     30  O   UNL     1       6.223  -0.960  26.704  0.00  0.00    -0.330 OA
ATOM     31  C   UNL     1       6.326   0.351  26.122  0.00  0.00    +0.191 C 
BRANCH  28  32
ATOM     32  O   UNL     1       8.335   0.402  28.715  0.00  0.00    -0.382 OA
ATOM     33  H   UNL     1       7.438   0.195  29.052  0.00  0.00    +0.210 HD
ENDBRANCH  28  32
BRANCH  27  34
ATOM     34  O   UNL     1       8.353   1.282  25.261  0.00  0.00    -0.456 OA
BRANCH  34  36
ATOM     35  C   UNL     1       9.599   2.844  24.020  0.00  0.00    +0.136 C 
ATOM     36  C   UNL     1       8.466   2.608  24.973  0.00  0.00    +0.304 C 
ATOM     37  O   UNL     1       7.701   3.481  25.357  0.00  0.00    -0.251 OA
ENDBRANCH  34  36
ENDBRANCH  27  34
BRANCH  31  38
ATOM     38  C   UNL     1       5.155   1.214  26.608  0.00  0.00    +0.191 C 
BRANCH  38  39
ATOM     39  O   UNL     1       4.192   1.364  25.567  0.00  0.00    -0.392 OA
ATOM     40  H   UNL     1       3.777   0.487  25.458  0.00  0.00    +0.210 HD
ENDBRANCH  38  39
ENDBRANCH  31  38
ENDBRANCH  26  29
ENDBRANCH   1  26
TORSDOF 12
ENDMDL
MODEL 5
REMARK VINA RESULT:      -6.3      1.499      1.692
REMARK  Name = 
REMARK  13 active torsions:
REMARK  status: ('A' for Active; 'I' for Inactive)
REMARK    1  A    between atoms: C_1  and  C_2
REMARK    2  A    between atoms: C_2  and  O_4
REMARK    3  A    between atoms: O_4  and  C_5
REMARK    4  A    between atoms: C_7  and  C_37
REMARK    5  A    between atoms: C_10  and  O_15
REMARK    6  A    between atoms: C_12  and  O_14
REMARK    7  A    between atoms: O_15  and  C_16
REMARK    8  A    between atoms: C_17  and  C_29
REMARK    9  A    between atoms: C_21  and  O_28
REMARK   10  A    between atoms: C_23  and  O_27
REMARK   11  A    between atoms: C_31  and  O_36
REMARK   12  A    between atoms: C_32  and  O_35
REMARK   13  A    between atoms: C_37  and  O_38
REMARK                            x       y       z     vdW  Elec       q    Type
REMARK                         _______ _______ _______ _____ _____    ______ ____
ROOT
ATOM      1  C   UNL     1       6.458  -1.197  25.009  0.00  0.00    +0.214 A 
ATOM      2  C   UNL     1       5.543  -2.391  25.148  0.00  0.00    +0.238 A 
ATOM      3  O   UNL     1       4.847  -2.511  26.153  0.00  0.00    -0.283 OA
ATOM      4  C   UNL     1       5.575  -3.407  24.078  0.00  0.00    +0.109 A 
ATOM      5  C   UNL     1       6.558  -3.284  23.099  0.00  0.00    +0.147 A 
ATOM      6  C   UNL     1       6.683  -4.236  22.078  0.00  0.00    +0.092 A 
ATOM      7  C   UNL     1       5.804  -5.306  22.032  0.00  0.00    +0.124 A 
ATOM      8  C   UNL     1       4.802  -5.441  22.985  0.00  0.00    +0.091 A 
ATOM      9  O   UNL     1       7.466  -2.274  23.086  0.00  0.00    -0.451 OA
ATOM     10  C   UNL     1       4.687  -4.490  24.009  0.00  0.00    +0.135 A 
ATOM     11  C   UNL     1       7.396  -1.257  24.031  0.00  0.00    +0.181 A 
ENDROOT
BRANCH  11  12
ATOM     12  C   UNL     1       8.542  -0.315  23.860  0.00  0.00    +0.025 A 
ATOM     13  C   UNL     1       9.469  -0.170  24.924  0.00  0.00    +0.015 A 
ATOM     14  C   UNL     1      10.534   0.733  24.860  0.00  0.00    +0.050 A 
ATOM     15  C   UNL     1      10.666   1.523  23.735  0.00  0.00    +0.158 A 
ATOM     16  C   UNL     1       9.784   1.387  22.669  0.00  0.00    +0.159 A 
ATOM     17  C   UNL     1       8.751   0.450  22.705  0.00  0.00    +0.060 A 
BRANCH  15  18
ATOM     18  O   UNL     1      11.655   2.462  23.695  0.00  0.00    -0.503 OA
ATOM     19  H   UNL     1      11.212   3.295  23.953  0.00  0.00    +0.292 HD
ENDBRANCH  15  18
BRANCH  16  20
ATOM     20  O   UNL     1       9.945   2.233  21.605  0.00  0.00    -0.503 OA
ATOM     21  H   UNL     1      10.651   1.866  21.043  0.00  0.00    +0.292 HD
ENDBRANCH  16  20
ENDBRANCH  11  12
BRANCH   7  22
ATOM     22  O   UNL     1       5.884  -6.254  21.057  0.00  0.00    -0.507 OA
ATOM     23  H   UNL     1       6.664  -6.084  20.502  0.00  0.00    +0.292 HD
ENDBRANCH   7  22
BRANCH  10  24
ATOM     24  O   UNL     1       3.686  -4.636  24.925  0.00  0.00    -0.506 OA
ATOM     25  H   UNL     1       3.991  -4.350  25.803  0.00  0.00    +0.292 HD
ENDBRANCH  10  24
BRANCH   1  26
ATOM     26  O   UNL     1       6.411  -0.161  25.949  0.00  0.00    -0.453 OA
BRANCH  26  29
ATOM     27  C   UNL     1       6.451   3.052  25.112  0.00  0.00    +0.242 C 
ATOM     28  C   UNL     1       5.946   2.226  26.286  0.00  0.00    +0.226 C 
ATOM     29  C   UNL     1       5.466   0.893  25.684  0.00  0.00    +0.341 C 
ATOM     30  O   UNL     1       5.318   1.085  24.261  0.00  0.00    -0.330 OA
ATOM     31  C   UNL     1       6.019   2.278  23.872  0.00  0.00    +0.191 C 
BRANCH  28  32
ATOM     32  O   UNL     1       4.824   2.921  26.859  0.00  0.00    -0.382 OA
ATOM     33  H   UNL     1       5.143   3.290  27.709  0.00  0.00    +0.210 HD
ENDBRANCH  28  32
BRANCH  27  34
ATOM     34  O   UNL     1       7.888   3.183  25.057  0.00  0.00    -0.456 OA
BRANCH  34  36
ATOM     35  C   UNL     1       8.387   5.414  25.610  0.00  0.00    +0.136 C 
ATOM     36  C   UNL     1       8.343   4.360  24.545  0.00  0.00    +0.304 C 
ATOM     37  O   UNL     1       8.748   4.522  23.403  0.00  0.00    -0.251 OA
ENDBRANCH  34  36
ENDBRANCH  27  34
BRANCH  31  38
ATOM     38  C   UNL     1       5.112   3.129  22.975  0.00  0.00    +0.191 C 
BRANCH  38  39
ATOM     39  O   UNL     1       5.123   4.486  23.415  0.00  0.00    -0.392 OA
ATOM     40  H   UNL     1       5.754   4.522  24.158  0.00  0.00    +0.210 HD
ENDBRANCH  38  39
ENDBRANCH  31  38
ENDBRANCH  26  29
ENDBRANCH   1  26
TORSDOF 12
ENDMDL
MODEL 6
REMARK VINA RESULT:      -6.2      3.080      7.792
REMARK  Name = 
REMARK  13 active torsions:
REMARK  status: ('A' for Active; 'I' for Inactive)
REMARK    1  A    between atoms: C_1  and  C_2
REMARK    2  A    between atoms: C_2  and  O_4
REMARK    3  A    between atoms: O_4  and  C_5
REMARK    4  A    between atoms: C_7  and  C_37
REMARK    5  A    between atoms: C_10  and  O_15
REMARK    6  A    between atoms: C_12  and  O_14
REMARK    7  A    between atoms: O_15  and  C_16
REMARK    8  A    between atoms: C_17  and  C_29
REMARK    9  A    between atoms: C_21  and  O_28
REMARK   10  A    between atoms: C_23  and  O_27
REMARK   11  A    between atoms: C_31  and  O_36
REMARK   12  A    between atoms: C_32  and  O_35
REMARK   13  A    between atoms: C_37  and  O_38
REMARK                            x       y       z     vdW  Elec       q    Type
REMARK                         _______ _______ _______ _____ _____    ______ ____
ROOT
ATOM      1  C   UNL     1       5.544  -2.490  25.449  0.00  0.00    +0.214 A 
ATOM      2  C   UNL     1       6.419  -1.263  25.347  0.00  0.00    +0.238 A 
ATOM      3  O   UNL     1       6.154  -0.269  26.018  0.00  0.00    -0.283 OA
ATOM      4  C   UNL     1       7.535  -1.296  24.383  0.00  0.00    +0.109 A 
ATOM      5  C   UNL     1       7.610  -2.384  23.517  0.00  0.00    +0.147 A 
ATOM      6  C   UNL     1       8.613  -2.463  22.541  0.00  0.00    +0.092 A 
ATOM      7  C   UNL     1       9.556  -1.451  22.448  0.00  0.00    +0.124 A 
ATOM      8  C   UNL     1       9.514  -0.364  23.312  0.00  0.00    +0.091 A 
ATOM      9  O   UNL     1       6.715  -3.406  23.535  0.00  0.00    -0.451 OA
ATOM     10  C   UNL     1       8.504  -0.287  24.282  0.00  0.00    +0.135 A 
ATOM     11  C   UNL     1       5.711  -3.441  24.495  0.00  0.00    +0.181 A 
ENDROOT
BRANCH  11  12
ATOM     12  C   UNL     1       4.812  -4.610  24.259  0.00  0.00    +0.025 A 
ATOM     13  C   UNL     1       5.250  -5.897  24.662  0.00  0.00    +0.015 A 
ATOM     14  C   UNL     1       4.489  -7.045  24.424  0.00  0.00    +0.050 A 
ATOM     15  C   UNL     1       3.289  -6.918  23.753  0.00  0.00    +0.158 A 
ATOM     16  C   UNL     1       2.826  -5.665  23.365  0.00  0.00    +0.159 A 
ATOM     17  C   UNL     1       3.556  -4.510  23.647  0.00  0.00    +0.060 A 
BRANCH  15  18
ATOM     18  O   UNL     1       2.577  -8.040  23.447  0.00  0.00    -0.503 OA
ATOM     19  H   UNL     1       3.209  -8.606  22.959  0.00  0.00    +0.292 HD
ENDBRANCH  15  18
BRANCH  16  20
ATOM     20  O   UNL     1       1.653  -5.616  22.663  0.00  0.00    -0.503 OA
ATOM     21  H   UNL     1       1.286  -6.518  22.643  0.00  0.00    +0.292 HD
ENDBRANCH  16  20
ENDBRANCH  11  12
BRANCH   7  22
ATOM     22  O   UNL     1      10.550  -1.485  21.518  0.00  0.00    -0.507 OA
ATOM     23  H   UNL     1      11.340  -1.042  21.872  0.00  0.00    +0.292 HD
ENDBRANCH   7  22
BRANCH  10  24
ATOM     24  O   UNL     1       8.494   0.783  25.128  0.00  0.00    -0.506 OA
ATOM     25  H   UNL     1       8.605   1.608  24.625  0.00  0.00    +0.292 HD
ENDBRANCH  10  24
BRANCH   1  26
ATOM     26  O   UNL     1       4.522  -2.549  26.403  0.00  0.00    -0.453 OA
BRANCH  26  29
ATOM     27  C   UNL     1       3.799  -5.104  28.397  0.00  0.00    +0.242 C 
ATOM     28  C   UNL     1       3.676  -3.588  28.460  0.00  0.00    +0.226 C 
ATOM     29  C   UNL     1       4.899  -3.038  27.705  0.00  0.00    +0.341 C 
ATOM     30  O   UNL     1       5.854  -4.113  27.578  0.00  0.00    -0.330 OA
ATOM     31  C   UNL     1       5.192  -5.363  27.837  0.00  0.00    +0.191 C 
BRANCH  28  32
ATOM     32  O   UNL     1       3.757  -3.201  29.844  0.00  0.00    -0.382 OA
ATOM     33  H   UNL     1       4.712  -3.096  30.036  0.00  0.00    +0.210 HD
ENDBRANCH  28  32
BRANCH  27  34
ATOM     34  O   UNL     1       2.853  -5.736  27.507  0.00  0.00    -0.456 OA
BRANCH  34  36
ATOM     35  C   UNL     1       1.395  -7.492  26.941  0.00  0.00    +0.136 C 
ATOM     36  C   UNL     1       2.325  -6.907  27.960  0.00  0.00    +0.304 C 
ATOM     37  O   UNL     1       2.629  -7.459  29.007  0.00  0.00    -0.251 OA
ENDBRANCH  34  36
ENDBRANCH  27  34
BRANCH  31  38
ATOM     38  C   UNL     1       6.037  -6.191  28.812  0.00  0.00    +0.191 C 
BRANCH  38  39
ATOM     39  O   UNL     1       5.686  -7.571  28.714  0.00  0.00    -0.392 OA
ATOM     40  H   UNL     1       5.322  -7.816  29.586  0.00  0.00    +0.210 HD
ENDBRANCH  38  39
ENDBRANCH  31  38
ENDBRANCH  26  29
ENDBRANCH   1  26
TORSDOF 12
ENDMDL
MODEL 7
REMARK VINA RESULT:      -6.2      2.313      6.906
REMARK  Name = 
REMARK  13 active torsions:
REMARK  status: ('A' for Active; 'I' for Inactive)
REMARK    1  A    between atoms: C_1  and  C_2
REMARK    2  A    between atoms: C_2  and  O_4
REMARK    3  A    between atoms: O_4  and  C_5
REMARK    4  A    between atoms: C_7  and  C_37
REMARK    5  A    between atoms: C_10  and  O_15
REMARK    6  A    between atoms: C_12  and  O_14
REMARK    7  A    between atoms: O_15  and  C_16
REMARK    8  A    between atoms: C_17  and  C_29
REMARK    9  A    between atoms: C_21  and  O_28
REMARK   10  A    between atoms: C_23  and  O_27
REMARK   11  A    between atoms: C_31  and  O_36
REMARK   12  A    between atoms: C_32  and  O_35
REMARK   13  A    between atoms: C_37  and  O_38
REMARK                            x       y       z     vdW  Elec       q    Type
REMARK                         _______ _______ _______ _____ _____    ______ ____
ROOT
ATOM      1  C   UNL     1       5.429  -0.729  25.693  0.00  0.00    +0.214 A 
ATOM      2  C   UNL     1       4.473  -0.049  26.645  0.00  0.00    +0.238 A 
ATOM      3  O   UNL     1       3.274  -0.311  26.595  0.00  0.00    -0.283 OA
ATOM      4  C   UNL     1       5.027   0.961  27.566  0.00  0.00    +0.109 A 
ATOM      5  C   UNL     1       6.355   1.340  27.388  0.00  0.00    +0.147 A 
ATOM      6  C   UNL     1       6.939   2.329  28.192  0.00  0.00    +0.092 A 
ATOM      7  C   UNL     1       6.188   2.926  29.192  0.00  0.00    +0.124 A 
ATOM      8  C   UNL     1       4.867   2.552  29.403  0.00  0.00    +0.091 A 
ATOM      9  O   UNL     1       7.151   0.814  26.420  0.00  0.00    -0.451 OA
ATOM     10  C   UNL     1       4.286   1.568  28.590  0.00  0.00    +0.135 A 
ATOM     11  C   UNL     1       6.677  -0.205  25.602  0.00  0.00    +0.181 A 
ENDROOT
BRANCH  11  12
ATOM     12  C   UNL     1       7.700  -0.557  24.572  0.00  0.00    +0.025 A 
ATOM     13  C   UNL     1       7.722   0.173  23.357  0.00  0.00    +0.015 A 
ATOM     14  C   UNL     1       8.613  -0.135  22.325  0.00  0.00    +0.050 A 
ATOM     15  C   UNL     1       9.476  -1.200  22.490  0.00  0.00    +0.158 A 
ATOM     16  C   UNL     1       9.489  -1.921  23.679  0.00  0.00    +0.159 A 
ATOM     17  C   UNL     1       8.639  -1.584  24.734  0.00  0.00    +0.060 A 
BRANCH  15  18
ATOM     18  O   UNL     1      10.294  -1.559  21.459  0.00  0.00    -0.503 OA
ATOM     19  H   UNL     1       9.895  -2.378  21.103  0.00  0.00    +0.292 HD
ENDBRANCH  15  18
BRANCH  16  20
ATOM     20  O   UNL     1      10.337  -2.992  23.758  0.00  0.00    -0.503 OA
ATOM     21  H   UNL     1       9.846  -3.723  24.175  0.00  0.00    +0.292 HD
ENDBRANCH  16  20
ENDBRANCH  11  12
BRANCH   7  22
ATOM     22  O   UNL     1       6.712   3.889  30.000  0.00  0.00    -0.507 OA
ATOM     23  H   UNL     1       6.343   3.797  30.895  0.00  0.00    +0.292 HD
ENDBRANCH   7  22
BRANCH  10  24
ATOM     24  O   UNL     1       2.991   1.208  28.827  0.00  0.00    -0.506 OA
ATOM     25  H   UNL     1       2.562   1.864  29.404  0.00  0.00    +0.292 HD
ENDBRANCH  10  24
BRANCH   1  26
ATOM     26  O   UNL     1       4.976  -1.754  24.854  0.00  0.00    -0.453 OA
BRANCH  26  29
ATOM     27  C   UNL     1       6.328  -4.787  24.885  0.00  0.00    +0.242 C 
ATOM     28  C   UNL     1       4.988  -4.182  24.491  0.00  0.00    +0.226 C 
ATOM     29  C   UNL     1       4.743  -3.030  25.482  0.00  0.00    +0.341 C 
ATOM     30  O   UNL     1       5.644  -3.211  26.594  0.00  0.00    -0.330 OA
ATOM     31  C   UNL     1       6.679  -4.134  26.216  0.00  0.00    +0.191 C 
BRANCH  28  32
ATOM     32  O   UNL     1       3.981  -5.193  24.679  0.00  0.00    -0.382 OA
ATOM     33  H   UNL     1       4.447  -6.052  24.599  0.00  0.00    +0.210 HD
ENDBRANCH  28  32
BRANCH  27  34
ATOM     34  O   UNL     1       7.402  -4.490  23.964  0.00  0.00    -0.456 OA
BRANCH  34  36
ATOM     35  C   UNL     1       6.909  -5.949  22.187  0.00  0.00    +0.136 C 
ATOM     36  C   UNL     1       7.062  -4.531  22.646  0.00  0.00    +0.304 C 
ATOM     37  O   UNL     1       6.822  -3.555  21.950  0.00  0.00    -0.251 OA
ENDBRANCH  34  36
ENDBRANCH  27  34
BRANCH  31  38
ATOM     38  C   UNL     1       6.851  -5.185  27.320  0.00  0.00    +0.191 C 
BRANCH  38  39
ATOM     39  O   UNL     1       8.072  -5.897  27.133  0.00  0.00    -0.392 OA
ATOM     40  H   UNL     1       8.025  -6.670  27.728  0.00  0.00    +0.210 HD
ENDBRANCH  38  39
ENDBRANCH  31  38
ENDBRANCH  26  29
ENDBRANCH   1  26
TORSDOF 12
ENDMDL
MODEL 8
REMARK VINA RESULT:      -6.2      1.600      4.331
REMARK  Name = 
REMARK  13 active torsions:
REMARK  status: ('A' for Active; 'I' for Inactive)
REMARK    1  A    between atoms: C_1  and  C_2
REMARK    2  A    between atoms: C_2  and  O_4
REMARK    3  A    between atoms: O_4  and  C_5
REMARK    4  A    between atoms: C_7  and  C_37
REMARK    5  A    between atoms: C_10  and  O_15
REMARK    6  A    between atoms: C_12  and  O_14
REMARK    7  A    between atoms: O_15  and  C_16
REMARK    8  A    between atoms: C_17  and  C_29
REMARK    9  A    between atoms: C_21  and  O_28
REMARK   10  A    between atoms: C_23  and  O_27
REMARK   11  A    between atoms: C_31  and  O_36
REMARK   12  A    between atoms: C_32  and  O_35
REMARK   13  A    between atoms: C_37  and  O_38
REMARK                            x       y       z     vdW  Elec       q    Type
REMARK                         _______ _______ _______ _____ _____    ______ ____
ROOT
ATOM      1  C   UNL     1       7.616  -1.948  24.427  0.00  0.00    +0.214 A 
ATOM      2  C   UNL     1       7.454  -2.969  23.326  0.00  0.00    +0.238 A 
ATOM      3  O   UNL     1       8.293  -3.039  22.432  0.00  0.00    -0.283 OA
ATOM      4  C   UNL     1       6.240  -3.807  23.343  0.00  0.00    +0.109 A 
ATOM      5  C   UNL     1       5.250  -3.494  24.271  0.00  0.00    +0.147 A 
ATOM      6  C   UNL     1       4.048  -4.214  24.316  0.00  0.00    +0.092 A 
ATOM      7  C   UNL     1       3.849  -5.265  23.435  0.00  0.00    +0.124 A 
ATOM      8  C   UNL     1       4.829  -5.610  22.512  0.00  0.00    +0.091 A 
ATOM      9  O   UNL     1       5.364  -2.470  25.156  0.00  0.00    -0.451 OA
ATOM     10  C   UNL     1       6.026  -4.881  22.467  0.00  0.00    +0.135 A 
ATOM     11  C   UNL     1       6.537  -1.726  25.219  0.00  0.00    +0.181 A 
ENDROOT
BRANCH  11  12
ATOM     12  C   UNL     1       6.389  -0.613  26.204  0.00  0.00    +0.025 A 
ATOM     13  C   UNL     1       5.324   0.307  26.038  0.00  0.00    +0.015 A 
ATOM     14  C   UNL     1       5.154   1.405  26.886  0.00  0.00    +0.050 A 
ATOM     15  C   UNL     1       6.071   1.608  27.898  0.00  0.00    +0.158 A 
ATOM     16  C   UNL     1       7.114   0.709  28.097  0.00  0.00    +0.159 A 
ATOM     17  C   UNL     1       7.257  -0.418  27.286  0.00  0.00    +0.060 A 
BRANCH  15  18
ATOM     18  O   UNL     1       5.961   2.718  28.682  0.00  0.00    -0.503 OA
ATOM     19  H   UNL     1       6.292   2.433  29.558  0.00  0.00    +0.292 HD
ENDBRANCH  15  18
BRANCH  16  20
ATOM     20  O   UNL     1       8.012   0.995  29.089  0.00  0.00    -0.503 OA
ATOM     21  H   UNL     1       8.422   1.853  28.875  0.00  0.00    +0.292 HD
ENDBRANCH  16  20
ENDBRANCH  11  12
BRANCH   7  22
ATOM     22  O   UNL     1       2.700  -5.996  23.444  0.00  0.00    -0.507 OA
ATOM     23  H   UNL     1       2.294  -5.951  24.326  0.00  0.00    +0.292 HD
ENDBRANCH   7  22
BRANCH  10  24
ATOM     24  O   UNL     1       6.978  -5.249  21.561  0.00  0.00    -0.506 OA
ATOM     25  H   UNL     1       7.635  -5.829  21.983  0.00  0.00    +0.292 HD
ENDBRANCH  10  24
BRANCH   1  26
ATOM     26  O   UNL     1       8.785  -1.182  24.511  0.00  0.00    -0.453 OA
BRANCH  26  29
ATOM     27  C   UNL     1       8.602   2.091  23.983  0.00  0.00    +0.242 C 
ATOM     28  C   UNL     1       7.931   0.846  23.421  0.00  0.00    +0.226 C 
ATOM     29  C   UNL     1       9.011  -0.252  23.434  0.00  0.00    +0.341 C 
ATOM     30  O   UNL     1      10.290   0.396  23.594  0.00  0.00    -0.330 OA
ATOM     31  C   UNL     1      10.082   1.739  24.062  0.00  0.00    +0.191 C 
BRANCH  28  32
ATOM     32  O   UNL     1       7.555   1.127  22.061  0.00  0.00    -0.382 OA
ATOM     33  H   UNL     1       7.748   2.078  21.922  0.00  0.00    +0.210 HD
ENDBRANCH  28  32
BRANCH  27  34
ATOM     34  O   UNL     1       8.171   2.442  25.316  0.00  0.00    -0.456 OA
BRANCH  34  36
ATOM     35  C   UNL     1       7.514   4.408  24.206  0.00  0.00    +0.136 C 
ATOM     36  C   UNL     1       7.889   3.762  25.505  0.00  0.00    +0.304 C 
ATOM     37  O   UNL     1       7.854   4.327  26.587  0.00  0.00    -0.251 OA
ENDBRANCH  34  36
ENDBRANCH  27  34
BRANCH  31  38
ATOM     38  C   UNL     1      10.927   2.705  23.223  0.00  0.00    +0.191 C 
BRANCH  38  39
ATOM     39  O   UNL     1      10.551   2.619  21.849  0.00  0.00    -0.392 OA
ATOM     40  H   UNL     1       9.587   2.769  21.826  0.00  0.00    +0.210 HD
ENDBRANCH  38  39
ENDBRANCH  31  38
ENDBRANCH  26  29
ENDBRANCH   1  26
TORSDOF 12
ENDMDL
MODEL 9
REMARK VINA RESULT:      -6.1      1.983      7.769
REMARK  Name = 
REMARK  13 active torsions:
REMARK  status: ('A' for Active; 'I' for Inactive)
REMARK    1  A    between atoms: C_1  and  C_2
REMARK    2  A    between atoms: C_2  and  O_4
REMARK    3  A    between atoms: O_4  and  C_5
REMARK    4  A    between atoms: C_7  and  C_37
REMARK    5  A    between atoms: C_10  and  O_15
REMARK    6  A    between atoms: C_12  and  O_14
REMARK    7  A    between atoms: O_15  and  C_16
REMARK    8  A    between atoms: C_17  and  C_29
REMARK    9  A    between atoms: C_21  and  O_28
REMARK   10  A    between atoms: C_23  and  O_27
REMARK   11  A    between atoms: C_31  and  O_36
REMARK   12  A    between atoms: C_32  and  O_35
REMARK   13  A    between atoms: C_37  and  O_38
REMARK                            x       y       z     vdW  Elec       q    Type
REMARK                         _______ _______ _______ _____ _____    ______ ____
ROOT
ATOM      1  C   UNL     1       6.905  -0.292  23.459  0.00  0.00    +0.214 A 
ATOM      2  C   UNL     1       8.052   0.429  22.789  0.00  0.00    +0.238 A 
ATOM      3  O   UNL     1       8.659  -0.115  21.871  0.00  0.00    -0.283 OA
ATOM      4  C   UNL     1       8.434   1.751  23.321  0.00  0.00    +0.109 A 
ATOM      5  C   UNL     1       7.827   2.174  24.500  0.00  0.00    +0.147 A 
ATOM      6  C   UNL     1       8.173   3.396  25.093  0.00  0.00    +0.092 A 
ATOM      7  C   UNL     1       9.121   4.204  24.486  0.00  0.00    +0.124 A 
ATOM      8  C   UNL     1       9.728   3.814  23.299  0.00  0.00    +0.091 A 
ATOM      9  O   UNL     1       6.901   1.432  25.163  0.00  0.00    -0.451 OA
ATOM     10  C   UNL     1       9.383   2.587  22.715  0.00  0.00    +0.135 A 
ATOM     11  C   UNL     1       6.459   0.226  24.631  0.00  0.00    +0.181 A 
ENDROOT
BRANCH  11  12
ATOM     12  C   UNL     1       5.511  -0.437  25.575  0.00  0.00    +0.025 A 
ATOM     13  C   UNL     1       5.098   0.269  26.733  0.00  0.00    +0.015 A 
ATOM     14  C   UNL     1       4.258  -0.306  27.691  0.00  0.00    +0.050 A 
ATOM     15  C   UNL     1       3.842  -1.610  27.509  0.00  0.00    +0.158 A 
ATOM     16  C   UNL     1       4.214  -2.319  26.372  0.00  0.00    +0.159 A 
ATOM     17  C   UNL     1       5.010  -1.732  25.387  0.00  0.00    +0.060 A 
BRANCH  15  18
ATOM     18  O   UNL     1       3.085  -2.207  28.475  0.00  0.00    -0.503 OA
ATOM     19  H   UNL     1       2.169  -1.927  28.276  0.00  0.00    +0.292 HD
ENDBRANCH  15  18
BRANCH  16  20
ATOM     20  O   UNL     1       3.805  -3.621  26.278  0.00  0.00    -0.503 OA
ATOM     21  H   UNL     1       4.446  -4.166  26.768  0.00  0.00    +0.292 HD
ENDBRANCH  16  20
ENDBRANCH  11  12
BRANCH   7  22
ATOM     22  O   UNL     1       9.487   5.401  25.023  0.00  0.00    -0.507 OA
ATOM     23  H   UNL     1       9.427   5.354  25.993  0.00  0.00    +0.292 HD
ENDBRANCH   7  22
BRANCH  10  24
ATOM     24  O   UNL     1       9.982   2.233  21.541  0.00  0.00    -0.506 OA
ATOM     25  H   UNL     1      10.300   3.026  21.075  0.00  0.00    +0.292 HD
ENDBRANCH  10  24
BRANCH   1  26
ATOM     26  O   UNL     1       6.444  -1.510  22.947  0.00  0.00    -0.453 OA
BRANCH  26  29
ATOM     27  C   UNL     1       7.478  -4.453  24.085  0.00  0.00    +0.242 C 
ATOM     28  C   UNL     1       8.076  -3.063  23.922  0.00  0.00    +0.226 C 
ATOM     29  C   UNL     1       7.454  -2.489  22.636  0.00  0.00    +0.341 C 
ATOM     30  O   UNL     1       6.874  -3.589  21.903  0.00  0.00    -0.330 OA
ATOM     31  C   UNL     1       6.739  -4.720  22.780  0.00  0.00    +0.191 C 
BRANCH  28  32
ATOM     32  O   UNL     1       9.495  -3.218  23.735  0.00  0.00    -0.382 OA
ATOM     33  H   UNL     1       9.603  -3.974  23.121  0.00  0.00    +0.210 HD
ENDBRANCH  28  32
BRANCH  27  34
ATOM     34  O   UNL     1       6.512  -4.556  25.155  0.00  0.00    -0.456 OA
BRANCH  34  36
ATOM     35  C   UNL     1       8.119  -5.226  26.735  0.00  0.00    +0.136 C 
ATOM     36  C   UNL     1       6.791  -5.499  26.097  0.00  0.00    +0.304 C 
ATOM     37  O   UNL     1       6.033  -6.392  26.447  0.00  0.00    -0.251 OA
ENDBRANCH  34  36
ENDBRANCH  27  34
BRANCH  31  38
ATOM     38  C   UNL     1       7.284  -5.971  22.081  0.00  0.00    +0.191 C 
BRANCH  38  39
ATOM     39  O   UNL     1       6.206  -6.767  21.591  0.00  0.00    -0.392 OA
ATOM     40  H   UNL     1       6.130  -6.560  20.640  0.00  0.00    +0.210 HD
ENDBRANCH  38  39
ENDBRANCH  31  38
ENDBRANCH  26  29
ENDBRANCH   1  26
TORSDOF 12
ENDMDL
