MODEL 1
REMARK VINA RESULT:      -7.3      0.000      0.000
REMARK  Name = 
REMARK  12 active torsions:
REMARK  status: ('A' for Active; 'I' for Inactive)
REMARK    1  A    between atoms: C_3  and  O_34
REMARK    2  A    between atoms: C_4  and  O_33
REMARK    3  A    between atoms: C_6  and  C_7
REMARK    4  A    between atoms: C_8  and  O_20
REMARK    5  A    between atoms: C_12  and  O_19
REMARK    6  A    between atoms: C_14  and  O_18
REMARK    7  A    between atoms: O_20  and  C_21
REMARK    8  A    between atoms: C_21  and  C_23
REMARK    9  A    between atoms: C_24  and  O_32
REMARK   10  A    between atoms: C_25  and  O_31
REMARK   11  A    between atoms: C_26  and  O_30
REMARK   12  A    between atoms: C_27  and  O_29
REMARK                            x       y       z     vdW  Elec       q    Type
REMARK                         _______ _______ _______ _____ _____    ______ ____
ROOT
ATOM      1  C   UNL     1       6.424  -2.765  25.188  0.00  0.00    +0.182 A 
ATOM      2  O   UNL     1       5.365  -3.554  25.639  0.00  0.00    -0.451 OA
ATOM      3  C   UNL     1       4.890  -4.561  24.841  0.00  0.00    +0.147 A 
ATOM      4  C   UNL     1       5.483  -4.903  23.631  0.00  0.00    +0.109 A 
ATOM      5  C   UNL     1       4.927  -5.923  22.848  0.00  0.00    +0.135 A 
ATOM      6  C   UNL     1       3.808  -6.625  23.292  0.00  0.00    +0.091 A 
ATOM      7  C   UNL     1       3.234  -6.282  24.513  0.00  0.00    +0.124 A 
ATOM      8  C   UNL     1       6.664  -4.150  23.194  0.00  0.00    +0.239 A 
ATOM      9  O   UNL     1       7.174  -4.384  22.100  0.00  0.00    -0.283 OA
ATOM     10  C   UNL     1       3.757  -5.247  25.283  0.00  0.00    +0.092 A 
ATOM     11  C   UNL     1       7.128  -3.029  24.056  0.00  0.00    +0.221 A 
ENDROOT
BRANCH   1  13
ATOM     12  C   UNL     1       5.663  -0.494  25.909  0.00  0.00    +0.015 A 
ATOM     13  C   UNL     1       6.606  -1.542  26.002  0.00  0.00    +0.025 A 
ATOM     14  C   UNL     1       7.709  -1.367  26.849  0.00  0.00    +0.060 A 
ATOM     15  C   UNL     1       7.918  -0.141  27.470  0.00  0.00    +0.159 A 
ATOM     16  C   UNL     1       7.024   0.912  27.299  0.00  0.00    +0.158 A 
ATOM     17  C   UNL     1       5.870   0.733  26.553  0.00  0.00    +0.050 A 
BRANCH  15  18
ATOM     18  O   UNL     1       9.041   0.033  28.228  0.00  0.00    -0.503 OA
ATOM     19  H   UNL     1       9.167   1.004  28.254  0.00  0.00    +0.292 HD
ENDBRANCH  15  18
BRANCH  16  20
ATOM     20  O   UNL     1       7.337   2.114  27.866  0.00  0.00    -0.503 OA
ATOM     21  H   UNL     1       7.312   2.002  28.833  0.00  0.00    +0.292 HD
ENDBRANCH  16  20
ENDBRANCH   1  13
BRANCH   5  22
ATOM     22  O   UNL     1       5.425  -6.279  21.624  0.00  0.00    -0.506 OA
ATOM     23  H   UNL     1       6.301  -5.845  21.510  0.00  0.00    +0.292 HD
ENDBRANCH   5  22
BRANCH   7  24
ATOM     24  O   UNL     1       2.147  -6.948  24.996  0.00  0.00    -0.507 OA
ATOM     25  H   UNL     1       2.299  -7.163  25.932  0.00  0.00    +0.292 HD
ENDBRANCH   7  24
BRANCH  11  26
ATOM     26  O   UNL     1       8.053  -2.132  23.490  0.00  0.00    -0.416 OA
BRANCH  26  27
ATOM     27  C   UNL     1       9.402  -2.205  23.780  0.00  0.00    +0.345 C 
ATOM     28  O   UNL     1      10.002  -3.206  24.151  0.00  0.00    -0.247 OA
BRANCH  27  29
ATOM     29  C   UNL     1      10.035  -0.800  23.498  0.00  0.00    +0.261 C 
ATOM     30  O   UNL     1       9.930   0.265  24.449  0.00  0.00    -0.332 OA
ATOM     31  C   UNL     1       8.895   1.232  24.294  0.00  0.00    +0.280 C 
ATOM     32  C   UNL     1       8.879   1.821  22.876  0.00  0.00    +0.201 C 
ATOM     33  C   UNL     1       8.694   0.675  21.894  0.00  0.00    +0.179 C 
ATOM     34  C   UNL     1       9.842  -0.326  22.040  0.00  0.00    +0.185 C 
BRANCH  31  35
ATOM     35  O   UNL     1       9.165   2.295  25.207  0.00  0.00    -0.365 OA
ATOM     36  H   UNL     1       8.481   2.250  25.900  0.00  0.00    +0.213 HD
ENDBRANCH  31  35
BRANCH  32  37
ATOM     37  O   UNL     1      10.125   2.509  22.605  0.00  0.00    -0.384 OA
ATOM     38  H   UNL     1       9.926   3.458  22.477  0.00  0.00    +0.210 HD
ENDBRANCH  32  37
BRANCH  33  39
ATOM     39  O   UNL     1       8.668   1.158  20.546  0.00  0.00    -0.386 OA
ATOM     40  H   UNL     1       9.533   0.939  20.146  0.00  0.00    +0.210 HD
ENDBRANCH  33  39
BRANCH  34  41
ATOM     41  O   UNL     1       9.710  -1.386  21.098  0.00  0.00    -0.386 OA
ATOM     42  H   UNL     1      10.530  -1.921  21.100  0.00  0.00    +0.210 HD
ENDBRANCH  34  41
ENDBRANCH  27  29
ENDBRANCH  26  27
ENDBRANCH  11  26
TORSDOF 12
ENDMDL
MODEL 2
REMARK VINA RESULT:      -7.2      2.309      8.031
REMARK  Name = 
REMARK  12 active torsions:
REMARK  status: ('A' for Active; 'I' for Inactive)
REMARK    1  A    between atoms: C_3  and  O_34
REMARK    2  A    between atoms: C_4  and  O_33
REMARK    3  A    between atoms: C_6  and  C_7
REMARK    4  A    between atoms: C_8  and  O_20
REMARK    5  A    between atoms: C_12  and  O_19
REMARK    6  A    between atoms: C_14  and  O_18
REMARK    7  A    between atoms: O_20  and  C_21
REMARK    8  A    between atoms: C_21  and  C_23
REMARK    9  A    between atoms: C_24  and  O_32
REMARK   10  A    between atoms: C_25  and  O_31
REMARK   11  A    between atoms: C_26  and  O_30
REMARK   12  A    between atoms: C_27  and  O_29
REMARK                            x       y       z     vdW  Elec       q    Type
REMARK                         _______ _______ _______ _____ _____    ______ ____
ROOT
ATOM      1  C   UNL     1       7.622  -2.845  23.619  0.00  0.00    +0.182 A 
ATOM      2  O   UNL     1       7.866  -1.873  22.648  0.00  0.00    -0.451 OA
ATOM      3  C   UNL     1       8.610  -0.769  22.974  0.00  0.00    +0.147 A 
ATOM      4  C   UNL     1       9.224  -0.616  24.211  0.00  0.00    +0.109 A 
ATOM      5  C   UNL     1       9.944   0.552  24.490  0.00  0.00    +0.135 A 
ATOM      6  C   UNL     1      10.083   1.545  23.522  0.00  0.00    +0.091 A 
ATOM      7  C   UNL     1       9.476   1.371  22.281  0.00  0.00    +0.124 A 
ATOM      8  C   UNL     1       9.063  -1.682  25.207  0.00  0.00    +0.239 A 
ATOM      9  O   UNL     1       9.540  -1.549  26.332  0.00  0.00    -0.283 OA
ATOM     10  C   UNL     1       8.728   0.230  22.005  0.00  0.00    +0.092 A 
ATOM     11  C   UNL     1       8.209  -2.846  24.845  0.00  0.00    +0.221 A 
ENDROOT
BRANCH   1  13
ATOM     12  C   UNL     1       5.203  -3.450  23.426  0.00  0.00    +0.015 A 
ATOM     13  C   UNL     1       6.558  -3.793  23.218  0.00  0.00    +0.025 A 
ATOM     14  C   UNL     1       6.846  -5.046  22.662  0.00  0.00    +0.060 A 
ATOM     15  C   UNL     1       5.822  -5.962  22.448  0.00  0.00    +0.159 A 
ATOM     16  C   UNL     1       4.500  -5.640  22.740  0.00  0.00    +0.158 A 
ATOM     17  C   UNL     1       4.173  -4.371  23.190  0.00  0.00    +0.050 A 
BRANCH  15  18
ATOM     18  O   UNL     1       6.135  -7.206  21.980  0.00  0.00    -0.503 OA
ATOM     19  H   UNL     1       5.267  -7.620  21.795  0.00  0.00    +0.292 HD
ENDBRANCH  15  18
BRANCH  16  20
ATOM     20  O   UNL     1       3.557  -6.616  22.589  0.00  0.00    -0.503 OA
ATOM     21  H   UNL     1       3.128  -6.752  23.452  0.00  0.00    +0.292 HD
ENDBRANCH  16  20
ENDBRANCH   1  13
BRANCH   5  22
ATOM     22  O   UNL     1      10.531   0.795  25.702  0.00  0.00    -0.506 OA
ATOM     23  H   UNL     1      10.247   1.686  26.009  0.00  0.00    +0.292 HD
ENDBRANCH   5  22
BRANCH   7  24
ATOM     24  O   UNL     1       9.595   2.307  21.298  0.00  0.00    -0.507 OA
ATOM     25  H   UNL     1      10.080   3.073  21.650  0.00  0.00    +0.292 HD
ENDBRANCH   7  24
BRANCH  11  26
ATOM     26  O   UNL     1       7.816  -3.697  25.893  0.00  0.00    -0.416 OA
BRANCH  26  27
ATOM     27  C   UNL     1       6.672  -3.456  26.630  0.00  0.00    +0.345 C 
ATOM     28  O   UNL     1       6.352  -2.383  27.128  0.00  0.00    -0.247 OA
BRANCH  27  29
ATOM     29  C   UNL     1       5.831  -4.778  26.668  0.00  0.00    +0.261 C 
ATOM     30  O   UNL     1       4.411  -4.748  26.848  0.00  0.00    -0.332 OA
ATOM     31  C   UNL     1       3.875  -4.935  28.155  0.00  0.00    +0.280 C 
ATOM     32  C   UNL     1       4.441  -6.196  28.824  0.00  0.00    +0.201 C 
ATOM     33  C   UNL     1       5.954  -6.059  28.879  0.00  0.00    +0.179 C 
ATOM     34  C   UNL     1       6.515  -5.913  27.464  0.00  0.00    +0.185 C 
BRANCH  31  35
ATOM     35  O   UNL     1       2.465  -5.106  28.016  0.00  0.00    -0.365 OA
ATOM     36  H   UNL     1       2.068  -4.217  28.068  0.00  0.00    +0.213 HD
ENDBRANCH  31  35
BRANCH  32  37
ATOM     37  O   UNL     1       4.077  -7.373  28.061  0.00  0.00    -0.384 OA
ATOM     38  H   UNL     1       3.348  -7.129  27.456  0.00  0.00    +0.210 HD
ENDBRANCH  32  37
BRANCH  33  39
ATOM     39  O   UNL     1       6.547  -7.208  29.497  0.00  0.00    -0.386 OA
ATOM     40  H   UNL     1       7.218  -6.879  30.128  0.00  0.00    +0.210 HD
ENDBRANCH  33  39
BRANCH  34  41
ATOM     41  O   UNL     1       7.937  -5.827  27.491  0.00  0.00    -0.386 OA
ATOM     42  H   UNL     1       8.220  -5.043  26.979  0.00  0.00    +0.210 HD
ENDBRANCH  34  41
ENDBRANCH  27  29
ENDBRANCH  26  27
ENDBRANCH  11  26
TORSDOF 12
ENDMDL
MODEL 3
REMARK VINA RESULT:      -6.9      1.808      7.921
REMARK  Name = 
REMARK  12 active torsions:
REMARK  status: ('A' for Active; 'I' for Inactive)
REMARK    1  A    between atoms: C_3  and  O_34
REMARK    2  A    between atoms: C_4  and  O_33
REMARK    3  A    between atoms: C_6  and  C_7
REMARK    4  A    between atoms: C_8  and  O_20
REMARK    5  A    between atoms: C_12  and  O_19
REMARK    6  A    between atoms: C_14  and  O_18
REMARK    7  A    between atoms: O_20  and  C_21
REMARK    8  A    between atoms: C_21  and  C_23
REMARK    9  A    between atoms: C_24  and  O_32
REMARK   10  A    between atoms: C_25  and  O_31
REMARK   11  A    between atoms: C_26  and  O_30
REMARK   12  A    between atoms: C_27  and  O_29
REMARK                            x       y       z     vdW  Elec       q    Type
REMARK                         _______ _______ _______ _____ _____    ______ ____
ROOT
ATOM      1  C   UNL     1       8.091  -2.050  24.134  0.00  0.00    +0.182 A 
ATOM      2  O   UNL     1       8.832  -1.322  23.202  0.00  0.00    -0.451 OA
ATOM      3  C   UNL     1       9.070   0.009  23.423  0.00  0.00    +0.147 A 
ATOM      4  C   UNL     1       8.689   0.655  24.593  0.00  0.00    +0.109 A 
ATOM      5  C   UNL     1       8.935   2.026  24.742  0.00  0.00    +0.135 A 
ATOM      6  C   UNL     1       9.594   2.739  23.742  0.00  0.00    +0.091 A 
ATOM      7  C   UNL     1       9.984   2.075  22.582  0.00  0.00    +0.124 A 
ATOM      8  C   UNL     1       8.002  -0.124  25.630  0.00  0.00    +0.239 A 
ATOM      9  O   UNL     1       7.596   0.431  26.649  0.00  0.00    -0.283 OA
ATOM     10  C   UNL     1       9.714   0.720  22.409  0.00  0.00    +0.092 A 
ATOM     11  C   UNL     1       7.712  -1.555  25.342  0.00  0.00    +0.221 A 
ENDROOT
BRANCH   1  13
ATOM     12  C   UNL     1       8.234  -4.547  24.117  0.00  0.00    +0.015 A 
ATOM     13  C   UNL     1       7.652  -3.362  23.610  0.00  0.00    +0.025 A 
ATOM     14  C   UNL     1       6.693  -3.478  22.595  0.00  0.00    +0.060 A 
ATOM     15  C   UNL     1       6.430  -4.719  22.027  0.00  0.00    +0.159 A 
ATOM     16  C   UNL     1       7.077  -5.865  22.479  0.00  0.00    +0.158 A 
ATOM     17  C   UNL     1       7.950  -5.797  23.553  0.00  0.00    +0.050 A 
BRANCH  15  18
ATOM     18  O   UNL     1       5.550  -4.797  20.985  0.00  0.00    -0.503 OA
ATOM     19  H   UNL     1       4.846  -4.156  21.216  0.00  0.00    +0.292 HD
ENDBRANCH  15  18
BRANCH  16  20
ATOM     20  O   UNL     1       6.836  -7.037  21.819  0.00  0.00    -0.503 OA
ATOM     21  H   UNL     1       6.785  -6.837  20.868  0.00  0.00    +0.292 HD
ENDBRANCH  16  20
ENDBRANCH   1  13
BRANCH   5  22
ATOM     22  O   UNL     1       8.543   2.739  25.843  0.00  0.00    -0.506 OA
ATOM     23  H   UNL     1       8.011   3.509  25.538  0.00  0.00    +0.292 HD
ENDBRANCH   5  22
BRANCH   7  24
ATOM     24  O   UNL     1      10.643   2.725  21.582  0.00  0.00    -0.507 OA
ATOM     25  H   UNL     1      11.588   2.502  21.631  0.00  0.00    +0.292 HD
ENDBRANCH   7  24
BRANCH  11  26
ATOM     26  O   UNL     1       6.798  -2.203  26.194  0.00  0.00    -0.416 OA
BRANCH  26  27
ATOM     27  C   UNL     1       5.452  -2.272  25.891  0.00  0.00    +0.345 C 
ATOM     28  O   UNL     1       4.844  -1.510  25.148  0.00  0.00    -0.247 OA
BRANCH  27  29
ATOM     29  C   UNL     1       4.855  -3.527  26.616  0.00  0.00    +0.261 C 
ATOM     30  O   UNL     1       5.623  -4.264  27.574  0.00  0.00    -0.332 OA
ATOM     31  C   UNL     1       6.318  -5.433  27.152  0.00  0.00    +0.280 C 
ATOM     32  C   UNL     1       5.394  -6.400  26.397  0.00  0.00    +0.201 C 
ATOM     33  C   UNL     1       4.815  -5.659  25.202  0.00  0.00    +0.179 C 
ATOM     34  C   UNL     1       4.029  -4.436  25.679  0.00  0.00    +0.185 C 
BRANCH  31  35
ATOM     35  O   UNL     1       6.784  -6.098  28.325  0.00  0.00    -0.365 OA
ATOM     36  H   UNL     1       6.465  -7.017  28.273  0.00  0.00    +0.213 HD
ENDBRANCH  31  35
BRANCH  32  37
ATOM     37  O   UNL     1       4.325  -6.851  27.266  0.00  0.00    -0.384 OA
ATOM     38  H   UNL     1       4.714  -7.432  27.949  0.00  0.00    +0.210 HD
ENDBRANCH  32  37
BRANCH  33  39
ATOM     39  O   UNL     1       3.941  -6.509  24.450  0.00  0.00    -0.386 OA
ATOM     40  H   UNL     1       4.205  -7.431  24.641  0.00  0.00    +0.210 HD
ENDBRANCH  33  39
BRANCH  34  41
ATOM     41  O   UNL     1       3.442  -3.753  24.575  0.00  0.00    -0.386 OA
ATOM     42  H   UNL     1       3.653  -4.235  23.751  0.00  0.00    +0.210 HD
ENDBRANCH  34  41
ENDBRANCH  27  29
ENDBRANCH  26  27
ENDBRANCH  11  26
TORSDOF 12
ENDMDL
MODEL 4
REMARK VINA RESULT:      -6.9      2.502      4.472
REMARK  Name = 
REMARK  12 active torsions:
REMARK  status: ('A' for Active; 'I' for Inactive)
REMARK    1  A    between atoms: C_3  and  O_34
REMARK    2  A    between atoms: C_4  and  O_33
REMARK    3  A    between atoms: C_6  and  C_7
REMARK    4  A    between atoms: C_8  and  O_20
REMARK    5  A    between atoms: C_12  and  O_19
REMARK    6  A    between atoms: C_14  and  O_18
REMARK    7  A    between atoms: O_20  and  C_21
REMARK    8  A    between atoms: C_21  and  C_23
REMARK    9  A    between atoms: C_24  and  O_32
REMARK   10  A    between atoms: C_25  and  O_31
REMARK   11  A    between atoms: C_26  and  O_30
REMARK   12  A    between atoms: C_27  and  O_29
REMARK                            x       y       z     vdW  Elec       q    Type
REMARK                         _______ _______ _______ _____ _____    ______ ____
ROOT
ATOM      1  C   UNL     1       7.315  -1.224  23.648  0.00  0.00    +0.182 A 
ATOM      2  O   UNL     1       7.500  -2.391  22.902  0.00  0.00    -0.451 OA
ATOM      3  C   UNL     1       6.642  -3.444  23.079  0.00  0.00    +0.147 A 
ATOM      4  C   UNL     1       5.524  -3.372  23.901  0.00  0.00    +0.109 A 
ATOM      5  C   UNL     1       4.705  -4.497  24.062  0.00  0.00    +0.135 A 
ATOM      6  C   UNL     1       4.981  -5.677  23.372  0.00  0.00    +0.091 A 
ATOM      7  C   UNL     1       6.096  -5.729  22.540  0.00  0.00    +0.124 A 
ATOM      8  C   UNL     1       5.257  -2.115  24.610  0.00  0.00    +0.239 A 
ATOM      9  O   UNL     1       4.313  -2.038  25.393  0.00  0.00    -0.283 OA
ATOM     10  C   UNL     1       6.936  -4.628  22.400  0.00  0.00    +0.092 A 
ATOM     11  C   UNL     1       6.232  -1.004  24.439  0.00  0.00    +0.221 A 
ENDROOT
BRANCH   1  13
ATOM     12  C   UNL     1       9.347  -0.215  24.700  0.00  0.00    +0.015 A 
ATOM     13  C   UNL     1       8.485  -0.320  23.585  0.00  0.00    +0.025 A 
ATOM     14  C   UNL     1       8.757   0.471  22.460  0.00  0.00    +0.060 A 
ATOM     15  C   UNL     1       9.773   1.418  22.509  0.00  0.00    +0.159 A 
ATOM     16  C   UNL     1      10.558   1.570  23.647  0.00  0.00    +0.158 A 
ATOM     17  C   UNL     1      10.381   0.729  24.735  0.00  0.00    +0.050 A 
BRANCH  15  18
ATOM     18  O   UNL     1       9.970   2.232  21.429  0.00  0.00    -0.503 OA
ATOM     19  H   UNL     1       9.578   3.088  21.698  0.00  0.00    +0.292 HD
ENDBRANCH  15  18
BRANCH  16  20
ATOM     20  O   UNL     1      11.480   2.578  23.658  0.00  0.00    -0.503 OA
ATOM     21  H   UNL     1      11.519   2.936  24.562  0.00  0.00    +0.292 HD
ENDBRANCH  16  20
ENDBRANCH   1  13
BRANCH   5  22
ATOM     22  O   UNL     1       3.618  -4.516  24.894  0.00  0.00    -0.506 OA
ATOM     23  H   UNL     1       3.919  -4.275  25.799  0.00  0.00    +0.292 HD
ENDBRANCH   5  22
BRANCH   7  24
ATOM     24  O   UNL     1       6.399  -6.855  21.834  0.00  0.00    -0.507 OA
ATOM     25  H   UNL     1       5.891  -7.600  22.196  0.00  0.00    +0.292 HD
ENDBRANCH   7  24
BRANCH  11  26
ATOM     26  O   UNL     1       6.139   0.069  25.345  0.00  0.00    -0.416 OA
BRANCH  26  27
ATOM     27  C   UNL     1       5.507   1.250  25.004  0.00  0.00    +0.345 C 
ATOM     28  O   UNL     1       4.304   1.467  25.083  0.00  0.00    -0.247 OA
BRANCH  27  29
ATOM     29  C   UNL     1       6.603   2.276  24.556  0.00  0.00    +0.261 C 
ATOM     30  O   UNL     1       7.339   3.040  25.517  0.00  0.00    -0.332 OA
ATOM     31  C   UNL     1       6.909   4.363  25.827  0.00  0.00    +0.280 C 
ATOM     32  C   UNL     1       6.712   5.205  24.559  0.00  0.00    +0.201 C 
ATOM     33  C   UNL     1       5.690   4.500  23.681  0.00  0.00    +0.179 C 
ATOM     34  C   UNL     1       6.194   3.102  23.316  0.00  0.00    +0.185 C 
BRANCH  31  35
ATOM     35  O   UNL     1       7.937   4.974  26.605  0.00  0.00    -0.365 OA
ATOM     36  H   UNL     1       8.706   4.375  26.573  0.00  0.00    +0.213 HD
ENDBRANCH  31  35
BRANCH  32  37
ATOM     37  O   UNL     1       7.967   5.340  23.847  0.00  0.00    -0.384 OA
ATOM     38  H   UNL     1       7.950   4.728  23.085  0.00  0.00    +0.210 HD
ENDBRANCH  32  37
BRANCH  33  39
ATOM     39  O   UNL     1       5.457   5.239  22.476  0.00  0.00    -0.386 OA
ATOM     40  H   UNL     1       5.147   4.600  21.804  0.00  0.00    +0.210 HD
ENDBRANCH  33  39
BRANCH  34  41
ATOM     41  O   UNL     1       5.269   2.441  22.458  0.00  0.00    -0.386 OA
ATOM     42  H   UNL     1       4.564   3.070  22.202  0.00  0.00    +0.210 HD
ENDBRANCH  34  41
ENDBRANCH  27  29
ENDBRANCH  26  27
ENDBRANCH  11  26
TORSDOF 12
ENDMDL
MODEL 5
REMARK VINA RESULT:      -6.8      1.560      1.756
REMARK  Name = 
REMARK  12 active torsions:
REMARK  status: ('A' for Active; 'I' for Inactive)
REMARK    1  A    between atoms: C_3  and  O_34
REMARK    2  A    between atoms: C_4  and  O_33
REMARK    3  A    between atoms: C_6  and  C_7
REMARK    4  A    between atoms: C_8  and  O_20
REMARK    5  A    between atoms: C_12  and  O_19
REMARK    6  A    between atoms: C_14  and  O_18
REMARK    7  A    between atoms: O_20  and  C_21
REMARK    8  A    between atoms: C_21  and  C_23
REMARK    9  A    between atoms: C_24  and  O_32
REMARK   10  A    between atoms: C_25  and  O_31
REMARK   11  A    between atoms: C_26  and  O_30
REMARK   12  A    between atoms: C_27  and  O_29
REMARK                            x       y       z     vdW  Elec       q    Type
REMARK                         _______ _______ _______ _____ _____    ______ ____
ROOT
ATOM      1  C   UNL     1       5.823  -2.921  25.275  0.00  0.00    +0.182 A 
ATOM      2  O   UNL     1       5.297  -3.950  26.058  0.00  0.00    -0.451 OA
ATOM      3  C   UNL     1       4.615  -4.973  25.453  0.00  0.00    +0.147 A 
ATOM      4  C   UNL     1       4.504  -5.089  24.073  0.00  0.00    +0.109 A 
ATOM      5  C   UNL     1       3.765  -6.142  23.520  0.00  0.00    +0.135 A 
ATOM      6  C   UNL     1       3.172  -7.098  24.343  0.00  0.00    +0.091 A 
ATOM      7  C   UNL     1       3.305  -6.978  25.724  0.00  0.00    +0.124 A 
ATOM      8  C   UNL     1       5.143  -4.069  23.232  0.00  0.00    +0.239 A 
ATOM      9  O   UNL     1       5.011  -4.107  22.011  0.00  0.00    -0.283 OA
ATOM     10  C   UNL     1       4.008  -5.916  26.285  0.00  0.00    +0.092 A 
ATOM     11  C   UNL     1       5.835  -2.943  23.916  0.00  0.00    +0.221 A 
ENDROOT
BRANCH   1  13
ATOM     12  C   UNL     1       5.331  -0.691  26.296  0.00  0.00    +0.015 A 
ATOM     13  C   UNL     1       6.240  -1.752  26.082  0.00  0.00    +0.025 A 
ATOM     14  C   UNL     1       7.528  -1.639  26.622  0.00  0.00    +0.060 A 
ATOM     15  C   UNL     1       7.921  -0.456  27.235  0.00  0.00    +0.159 A 
ATOM     16  C   UNL     1       7.040   0.614  27.362  0.00  0.00    +0.158 A 
ATOM     17  C   UNL     1       5.728   0.492  26.932  0.00  0.00    +0.050 A 
BRANCH  15  18
ATOM     18  O   UNL     1       9.206  -0.339  27.684  0.00  0.00    -0.503 OA
ATOM     19  H   UNL     1       9.748  -0.348  26.869  0.00  0.00    +0.292 HD
ENDBRANCH  15  18
BRANCH  16  20
ATOM     20  O   UNL     1       7.519   1.776  27.896  0.00  0.00    -0.503 OA
ATOM     21  H   UNL     1       7.877   2.313  27.167  0.00  0.00    +0.292 HD
ENDBRANCH  16  20
ENDBRANCH   1  13
BRANCH   5  22
ATOM     22  O   UNL     1       3.570  -6.291  22.173  0.00  0.00    -0.506 OA
ATOM     23  H   UNL     1       3.085  -5.500  21.843  0.00  0.00    +0.292 HD
ENDBRANCH   5  22
BRANCH   7  24
ATOM     24  O   UNL     1       2.755  -7.895  26.569  0.00  0.00    -0.507 OA
ATOM     25  H   UNL     1       3.464  -8.305  27.093  0.00  0.00    +0.292 HD
ENDBRANCH   7  24
BRANCH  11  26
ATOM     26  O   UNL     1       6.172  -1.829  23.125  0.00  0.00    -0.416 OA
BRANCH  26  27
ATOM     27  C   UNL     1       7.488  -1.513  22.844  0.00  0.00    +0.345 C 
ATOM     28  O   UNL     1       8.280  -2.221  22.233  0.00  0.00    -0.247 OA
BRANCH  27  29
ATOM     29  C   UNL     1       7.770  -0.073  23.392  0.00  0.00    +0.261 C 
ATOM     30  O   UNL     1       6.731   0.910  23.462  0.00  0.00    -0.332 OA
ATOM     31  C   UNL     1       6.599   1.856  22.405  0.00  0.00    +0.280 C 
ATOM     32  C   UNL     1       7.933   2.554  22.102  0.00  0.00    +0.201 C 
ATOM     33  C   UNL     1       8.952   1.485  21.742  0.00  0.00    +0.179 C 
ATOM     34  C   UNL     1       9.117   0.510  22.909  0.00  0.00    +0.185 C 
BRANCH  31  35
ATOM     35  O   UNL     1       5.671   2.849  22.835  0.00  0.00    -0.365 OA
ATOM     36  H   UNL     1       5.185   2.471  23.590  0.00  0.00    +0.213 HD
ENDBRANCH  31  35
BRANCH  32  37
ATOM     37  O   UNL     1       8.383   3.298  23.262  0.00  0.00    -0.384 OA
ATOM     38  H   UNL     1       9.179   3.805  23.006  0.00  0.00    +0.210 HD
ENDBRANCH  32  37
BRANCH  33  39
ATOM     39  O   UNL     1      10.224   2.073  21.445  0.00  0.00    -0.386 OA
ATOM     40  H   UNL     1      10.748   2.055  22.271  0.00  0.00    +0.210 HD
ENDBRANCH  33  39
BRANCH  34  41
ATOM     41  O   UNL     1      10.101  -0.476  22.608  0.00  0.00    -0.386 OA
ATOM     42  H   UNL     1      10.970  -0.039  22.505  0.00  0.00    +0.210 HD
ENDBRANCH  34  41
ENDBRANCH  27  29
ENDBRANCH  26  27
ENDBRANCH  11  26
TORSDOF 12
ENDMDL
MODEL 6
REMARK VINA RESULT:      -6.8      2.533      7.748
REMARK  Name = 
REMARK  12 active torsions:
REMARK  status: ('A' for Active; 'I' for Inactive)
REMARK    1  A    between atoms: C_3  and  O_34
REMARK    2  A    between atoms: C_4  and  O_33
REMARK    3  A    between atoms: C_6  and  C_7
REMARK    4  A    between atoms: C_8  and  O_20
REMARK    5  A    between atoms: C_12  and  O_19
REMARK    6  A    between atoms: C_14  and  O_18
REMARK    7  A    between atoms: O_20  and  C_21
REMARK    8  A    between atoms: C_21  and  C_23
REMARK    9  A    between atoms: C_24  and  O_32
REMARK   10  A    between atoms: C_25  and  O_31
REMARK   11  A    between atoms: C_26  and  O_30
REMARK   12  A    between atoms: C_27  and  O_29
REMARK                            x       y       z     vdW  Elec       q    Type
REMARK                         _______ _______ _______ _____ _____    ______ ____
ROOT
ATOM      1  C   UNL     1       6.737  -3.217  25.774  0.00  0.00    +0.182 A 
ATOM      2  O   UNL     1       7.666  -2.246  26.155  0.00  0.00    -0.451 OA
ATOM      3  C   UNL     1       8.450  -1.655  25.201  0.00  0.00    +0.147 A 
ATOM      4  C   UNL     1       8.298  -1.906  23.842  0.00  0.00    +0.109 A 
ATOM      5  C   UNL     1       9.155  -1.292  22.921  0.00  0.00    +0.135 A 
ATOM      6  C   UNL     1      10.135  -0.400  23.353  0.00  0.00    +0.091 A 
ATOM      7  C   UNL     1      10.266  -0.146  24.715  0.00  0.00    +0.124 A 
ATOM      8  C   UNL     1       7.253  -2.846  23.418  0.00  0.00    +0.239 A 
ATOM      9  O   UNL     1       7.133  -3.137  22.230  0.00  0.00    -0.283 OA
ATOM     10  C   UNL     1       9.443  -0.778  25.643  0.00  0.00    +0.092 A 
ATOM     11  C   UNL     1       6.448  -3.511  24.479  0.00  0.00    +0.221 A 
ENDROOT
BRANCH   1  13
ATOM     12  C   UNL     1       5.093  -3.477  27.641  0.00  0.00    +0.015 A 
ATOM     13  C   UNL     1       6.206  -3.977  26.927  0.00  0.00    +0.025 A 
ATOM     14  C   UNL     1       6.790  -5.173  27.366  0.00  0.00    +0.060 A 
ATOM     15  C   UNL     1       6.355  -5.766  28.545  0.00  0.00    +0.159 A 
ATOM     16  C   UNL     1       5.313  -5.213  29.284  0.00  0.00    +0.158 A 
ATOM     17  C   UNL     1       4.647  -4.090  28.818  0.00  0.00    +0.050 A 
BRANCH  15  18
ATOM     18  O   UNL     1       6.991  -6.887  28.996  0.00  0.00    -0.503 OA
ATOM     19  H   UNL     1       6.752  -6.937  29.944  0.00  0.00    +0.292 HD
ENDBRANCH  15  18
BRANCH  16  20
ATOM     20  O   UNL     1       4.995  -5.797  30.476  0.00  0.00    -0.503 OA
ATOM     21  H   UNL     1       5.307  -6.719  30.448  0.00  0.00    +0.292 HD
ENDBRANCH  16  20
ENDBRANCH   1  13
BRANCH   5  22
ATOM     22  O   UNL     1       9.097  -1.530  21.574  0.00  0.00    -0.506 OA
ATOM     23  H   UNL     1       8.150  -1.574  21.310  0.00  0.00    +0.292 HD
ENDBRANCH   5  22
BRANCH   7  24
ATOM     24  O   UNL     1      11.201   0.728  25.185  0.00  0.00    -0.507 OA
ATOM     25  H   UNL     1      10.804   1.263  25.894  0.00  0.00    +0.292 HD
ENDBRANCH   7  24
BRANCH  11  26
ATOM     26  O   UNL     1       5.674  -4.619  24.089  0.00  0.00    -0.416 OA
BRANCH  26  27
ATOM     27  C   UNL     1       4.295  -4.555  24.036  0.00  0.00    +0.345 C 
ATOM     28  O   UNL     1       3.603  -3.638  24.462  0.00  0.00    -0.247 OA
BRANCH  27  29
ATOM     29  C   UNL     1       3.779  -5.831  23.286  0.00  0.00    +0.261 C 
ATOM     30  O   UNL     1       2.621  -5.778  22.446  0.00  0.00    -0.332 OA
ATOM     31  C   UNL     1       1.359  -6.167  22.980  0.00  0.00    +0.280 C 
ATOM     32  C   UNL     1       1.429  -7.545  23.653  0.00  0.00    +0.201 C 
ATOM     33  C   UNL     1       2.480  -7.478  24.751  0.00  0.00    +0.179 C 
ATOM     34  C   UNL     1       3.838  -7.111  24.150  0.00  0.00    +0.185 C 
BRANCH  31  35
ATOM     35  O   UNL     1       0.444  -6.257  21.889  0.00  0.00    -0.365 OA
ATOM     36  H   UNL     1       0.260  -5.345  21.601  0.00  0.00    +0.213 HD
ENDBRANCH  31  35
BRANCH  32  37
ATOM     37  O   UNL     1       1.791  -8.558  22.682  0.00  0.00    -0.384 OA
ATOM     38  H   UNL     1       2.762  -8.674  22.713  0.00  0.00    +0.210 HD
ENDBRANCH  32  37
BRANCH  33  39
ATOM     39  O   UNL     1       2.595  -8.738  25.423  0.00  0.00    -0.386 OA
ATOM     40  H   UNL     1       1.722  -9.175  25.363  0.00  0.00    +0.210 HD
ENDBRANCH  33  39
BRANCH  34  41
ATOM     41  O   UNL     1       4.845  -7.085  25.156  0.00  0.00    -0.386 OA
ATOM     42  H   UNL     1       4.842  -6.209  25.591  0.00  0.00    +0.210 HD
ENDBRANCH  34  41
ENDBRANCH  27  29
ENDBRANCH  26  27
ENDBRANCH  11  26
TORSDOF 12
ENDMDL
MODEL 7
REMARK VINA RESULT:      -6.8      1.312      2.072
REMARK  Name = 
REMARK  12 active torsions:
REMARK  status: ('A' for Active; 'I' for Inactive)
REMARK    1  A    between atoms: C_3  and  O_34
REMARK    2  A    between atoms: C_4  and  O_33
REMARK    3  A    between atoms: C_6  and  C_7
REMARK    4  A    between atoms: C_8  and  O_20
REMARK    5  A    between atoms: C_12  and  O_19
REMARK    6  A    between atoms: C_14  and  O_18
REMARK    7  A    between atoms: O_20  and  C_21
REMARK    8  A    between atoms: C_21  and  C_23
REMARK    9  A    between atoms: C_24  and  O_32
REMARK   10  A    between atoms: C_25  and  O_31
REMARK   11  A    between atoms: C_26  and  O_30
REMARK   12  A    between atoms: C_27  and  O_29
REMARK                            x       y       z     vdW  Elec       q    Type
REMARK                         _______ _______ _______ _____ _____    ______ ____
ROOT
ATOM      1  C   UNL     1       6.541  -2.197  25.371  0.00  0.00    +0.182 A 
ATOM      2  O   UNL     1       5.255  -2.673  25.108  0.00  0.00    -0.451 OA
ATOM      3  C   UNL     1       5.096  -3.761  24.291  0.00  0.00    +0.147 A 
ATOM      4  C   UNL     1       6.169  -4.484  23.785  0.00  0.00    +0.109 A 
ATOM      5  C   UNL     1       5.935  -5.568  22.929  0.00  0.00    +0.135 A 
ATOM      6  C   UNL     1       4.633  -5.952  22.613  0.00  0.00    +0.091 A 
ATOM      7  C   UNL     1       3.568  -5.228  23.141  0.00  0.00    +0.124 A 
ATOM      8  C   UNL     1       7.528  -4.058  24.140  0.00  0.00    +0.239 A 
ATOM      9  O   UNL     1       8.500  -4.637  23.658  0.00  0.00    -0.283 OA
ATOM     10  C   UNL     1       3.788  -4.127  23.964  0.00  0.00    +0.092 A 
ATOM     11  C   UNL     1       7.673  -2.844  24.988  0.00  0.00    +0.221 A 
ENDROOT
BRANCH   1  13
ATOM     12  C   UNL     1       5.896   0.219  25.326  0.00  0.00    +0.015 A 
ATOM     13  C   UNL     1       6.533  -0.853  25.991  0.00  0.00    +0.025 A 
ATOM     14  C   UNL     1       7.168  -0.591  27.212  0.00  0.00    +0.060 A 
ATOM     15  C   UNL     1       7.268   0.716  27.675  0.00  0.00    +0.159 A 
ATOM     16  C   UNL     1       6.709   1.773  26.964  0.00  0.00    +0.158 A 
ATOM     17  C   UNL     1       5.984   1.531  25.808  0.00  0.00    +0.050 A 
BRANCH  15  18
ATOM     18  O   UNL     1       7.960   0.958  28.828  0.00  0.00    -0.503 OA
ATOM     19  H   UNL     1       7.277   1.263  29.460  0.00  0.00    +0.292 HD
ENDBRANCH  15  18
BRANCH  16  20
ATOM     20  O   UNL     1       6.921   3.039  27.430  0.00  0.00    -0.503 OA
ATOM     21  H   UNL     1       7.824   3.077  27.791  0.00  0.00    +0.292 HD
ENDBRANCH  16  20
ENDBRANCH   1  13
BRANCH   5  22
ATOM     22  O   UNL     1       6.943  -6.293  22.352  0.00  0.00    -0.506 OA
ATOM     23  H   UNL     1       7.707  -5.692  22.201  0.00  0.00    +0.292 HD
ENDBRANCH   5  22
BRANCH   7  24
ATOM     24  O   UNL     1       2.276  -5.573  22.872  0.00  0.00    -0.507 OA
ATOM     25  H   UNL     1       1.745  -4.763  22.785  0.00  0.00    +0.292 HD
ENDBRANCH   7  24
BRANCH  11  26
ATOM     26  O   UNL     1       8.957  -2.273  25.067  0.00  0.00    -0.416 OA
BRANCH  26  27
ATOM     27  C   UNL     1       9.583  -1.744  23.954  0.00  0.00    +0.345 C 
ATOM     28  O   UNL     1      10.473  -2.283  23.308  0.00  0.00    -0.247 OA
BRANCH  27  29
ATOM     29  C   UNL     1       8.916  -0.363  23.633  0.00  0.00    +0.261 C 
ATOM     30  O   UNL     1       8.423  -0.065  22.323  0.00  0.00    -0.332 OA
ATOM     31  C   UNL     1       9.249   0.665  21.421  0.00  0.00    +0.280 C 
ATOM     32  C   UNL     1       9.784   1.954  22.061  0.00  0.00    +0.201 C 
ATOM     33  C   UNL     1      10.562   1.569  23.310  0.00  0.00    +0.179 C 
ATOM     34  C   UNL     1       9.644   0.833  24.288  0.00  0.00    +0.185 C 
BRANCH  31  35
ATOM     35  O   UNL     1       8.440   1.033  20.305  0.00  0.00    -0.365 OA
ATOM     36  H   UNL     1       8.483   2.004  20.234  0.00  0.00    +0.213 HD
ENDBRANCH  31  35
BRANCH  32  37
ATOM     37  O   UNL     1       8.686   2.832  22.412  0.00  0.00    -0.384 OA
ATOM     38  H   UNL     1       9.038   3.544  22.982  0.00  0.00    +0.210 HD
ENDBRANCH  32  37
BRANCH  33  39
ATOM     39  O   UNL     1      11.092   2.732  23.958  0.00  0.00    -0.386 OA
ATOM     40  H   UNL     1      11.305   2.475  24.877  0.00  0.00    +0.210 HD
ENDBRANCH  33  39
BRANCH  34  41
ATOM     41  O   UNL     1      10.343   0.502  25.484  0.00  0.00    -0.386 OA
ATOM     42  H   UNL     1       9.711   0.487  26.231  0.00  0.00    +0.210 HD
ENDBRANCH  34  41
ENDBRANCH  27  29
ENDBRANCH  26  27
ENDBRANCH  11  26
TORSDOF 12
ENDMDL
MODEL 8
REMARK VINA RESULT:      -6.6      2.464      8.069
REMARK  Name = 
REMARK  12 active torsions:
REMARK  status: ('A' for Active; 'I' for Inactive)
REMARK    1  A    between atoms: C_3  and  O_34
REMARK    2  A    between atoms: C_4  and  O_33
REMARK    3  A    between atoms: C_6  and  C_7
REMARK    4  A    between atoms: C_8  and  O_20
REMARK    5  A    between atoms: C_12  and  O_19
REMARK    6  A    between atoms: C_14  and  O_18
REMARK    7  A    between atoms: O_20  and  C_21
REMARK    8  A    between atoms: C_21  and  C_23
REMARK    9  A    between atoms: C_24  and  O_32
REMARK   10  A    between atoms: C_25  and  O_31
REMARK   11  A    between atoms: C_26  and  O_30
REMARK   12  A    between atoms: C_27  and  O_29
REMARK                            x       y       z     vdW  Elec       q    Type
REMARK                         _______ _______ _______ _____ _____    ______ ____
ROOT
ATOM      1  C   UNL     1       7.041  -1.645  24.180  0.00  0.00    +0.182 A 
ATOM      2  O   UNL     1       7.375  -0.667  23.241  0.00  0.00    -0.451 OA
ATOM      3  C   UNL     1       7.537   0.630  23.651  0.00  0.00    +0.147 A 
ATOM      4  C   UNL     1       7.482   1.008  24.987  0.00  0.00    +0.109 A 
ATOM      5  C   UNL     1       7.625   2.357  25.335  0.00  0.00    +0.135 A 
ATOM      6  C   UNL     1       7.861   3.319  24.354  0.00  0.00    +0.091 A 
ATOM      7  C   UNL     1       7.930   2.924  23.021  0.00  0.00    +0.124 A 
ATOM      8  C   UNL     1       7.237  -0.029  25.997  0.00  0.00    +0.239 A 
ATOM      9  O   UNL     1       7.119   0.281  27.181  0.00  0.00    -0.283 OA
ATOM     10  C   UNL     1       7.754   1.591  22.661  0.00  0.00    +0.092 A 
ATOM     11  C   UNL     1       7.015  -1.421  25.520  0.00  0.00    +0.221 A 
ENDROOT
BRANCH   1  13
ATOM     12  C   UNL     1       7.527  -3.717  22.867  0.00  0.00    +0.015 A 
ATOM     13  C   UNL     1       6.592  -2.906  23.549  0.00  0.00    +0.025 A 
ATOM     14  C   UNL     1       5.253  -3.318  23.574  0.00  0.00    +0.060 A 
ATOM     15  C   UNL     1       4.854  -4.425  22.834  0.00  0.00    +0.159 A 
ATOM     16  C   UNL     1       5.774  -5.164  22.097  0.00  0.00    +0.158 A 
ATOM     17  C   UNL     1       7.122  -4.843  22.139  0.00  0.00    +0.050 A 
BRANCH  15  18
ATOM     18  O   UNL     1       3.530  -4.761  22.810  0.00  0.00    -0.503 OA
ATOM     19  H   UNL     1       3.457  -5.500  23.448  0.00  0.00    +0.292 HD
ENDBRANCH  15  18
BRANCH  16  20
ATOM     20  O   UNL     1       5.300  -6.186  21.324  0.00  0.00    -0.503 OA
ATOM     21  H   UNL     1       5.463  -5.955  20.393  0.00  0.00    +0.292 HD
ENDBRANCH  16  20
ENDBRANCH   1  13
BRANCH   5  22
ATOM     22  O   UNL     1       7.531   2.809  26.624  0.00  0.00    -0.506 OA
ATOM     23  H   UNL     1       8.258   3.454  26.777  0.00  0.00    +0.292 HD
ENDBRANCH   5  22
BRANCH   7  24
ATOM     24  O   UNL     1       8.173   3.825  22.028  0.00  0.00    -0.507 OA
ATOM     25  H   UNL     1       7.414   3.835  21.419  0.00  0.00    +0.292 HD
ENDBRANCH   7  24
BRANCH  11  26
ATOM     26  O   UNL     1       6.484  -2.335  26.449  0.00  0.00    -0.416 OA
BRANCH  26  27
ATOM     27  C   UNL     1       7.150  -3.500  26.778  0.00  0.00    +0.345 C 
ATOM     28  O   UNL     1       8.332  -3.588  27.086  0.00  0.00    -0.247 OA
BRANCH  27  29
ATOM     29  C   UNL     1       6.115  -4.676  26.742  0.00  0.00    +0.261 C 
ATOM     30  O   UNL     1       4.717  -4.439  26.937  0.00  0.00    -0.332 OA
ATOM     31  C   UNL     1       4.157  -4.621  28.234  0.00  0.00    +0.280 C 
ATOM     32  C   UNL     1       4.521  -5.993  28.820  0.00  0.00    +0.201 C 
ATOM     33  C   UNL     1       6.037  -6.094  28.870  0.00  0.00    +0.179 C 
ATOM     34  C   UNL     1       6.616  -5.950  27.461  0.00  0.00    +0.185 C 
BRANCH  31  35
ATOM     35  O   UNL     1       2.738  -4.564  28.098  0.00  0.00    -0.365 OA
ATOM     36  H   UNL     1       2.362  -4.925  28.921  0.00  0.00    +0.213 HD
ENDBRANCH  31  35
BRANCH  32  37
ATOM     37  O   UNL     1       3.981  -7.051  27.990  0.00  0.00    -0.384 OA
ATOM     38  H   UNL     1       4.374  -6.967  27.099  0.00  0.00    +0.210 HD
ENDBRANCH  32  37
BRANCH  33  39
ATOM     39  O   UNL     1       6.445  -7.357  29.412  0.00  0.00    -0.386 OA
ATOM     40  H   UNL     1       6.335  -8.021  28.703  0.00  0.00    +0.210 HD
ENDBRANCH  33  39
BRANCH  34  41
ATOM     41  O   UNL     1       8.033  -6.086  27.481  0.00  0.00    -0.386 OA
ATOM     42  H   UNL     1       8.371  -5.791  28.352  0.00  0.00    +0.210 HD
ENDBRANCH  34  41
ENDBRANCH  27  29
ENDBRANCH  26  27
ENDBRANCH  11  26
TORSDOF 12
ENDMDL
MODEL 9
REMARK VINA RESULT:      -6.5      1.565      2.220
REMARK  Name = 
REMARK  12 active torsions:
REMARK  status: ('A' for Active; 'I' for Inactive)
REMARK    1  A    between atoms: C_3  and  O_34
REMARK    2  A    between atoms: C_4  and  O_33
REMARK    3  A    between atoms: C_6  and  C_7
REMARK    4  A    between atoms: C_8  and  O_20
REMARK    5  A    between atoms: C_12  and  O_19
REMARK    6  A    between atoms: C_14  and  O_18
REMARK    7  A    between atoms: O_20  and  C_21
REMARK    8  A    between atoms: C_21  and  C_23
REMARK    9  A    between atoms: C_24  and  O_32
REMARK   10  A    between atoms: C_25  and  O_31
REMARK   11  A    between atoms: C_26  and  O_30
REMARK   12  A    between atoms: C_27  and  O_29
REMARK                            x       y       z     vdW  Elec       q    Type
REMARK                         _______ _______ _______ _____ _____    ______ ____
ROOT
ATOM      1  C   UNL     1       6.764  -2.223  25.343  0.00  0.00    +0.182 A 
ATOM      2  O   UNL     1       5.921  -3.323  25.508  0.00  0.00    -0.451 OA
ATOM      3  C   UNL     1       5.920  -4.316  24.564  0.00  0.00    +0.147 A 
ATOM      4  C   UNL     1       6.798  -4.331  23.488  0.00  0.00    +0.109 A 
ATOM      5  C   UNL     1       6.722  -5.360  22.541  0.00  0.00    +0.135 A 
ATOM      6  C   UNL     1       5.797  -6.392  22.692  0.00  0.00    +0.091 A 
ATOM      7  C   UNL     1       4.934  -6.373  23.784  0.00  0.00    +0.124 A 
ATOM      8  C   UNL     1       7.764  -3.233  23.360  0.00  0.00    +0.239 A 
ATOM      9  O   UNL     1       8.512  -3.182  22.386  0.00  0.00    -0.283 OA
ATOM     10  C   UNL     1       4.977  -5.336  24.712  0.00  0.00    +0.092 A 
ATOM     11  C   UNL     1       7.710  -2.142  24.371  0.00  0.00    +0.221 A 
ENDROOT
BRANCH   1  13
ATOM     12  C   UNL     1       5.150  -0.504  26.175  0.00  0.00    +0.015 A 
ATOM     13  C   UNL     1       6.425  -1.107  26.254  0.00  0.00    +0.025 A 
ATOM     14  C   UNL     1       7.342  -0.597  27.183  0.00  0.00    +0.060 A 
ATOM     15  C   UNL     1       7.032   0.550  27.904  0.00  0.00    +0.159 A 
ATOM     16  C   UNL     1       5.803   1.184  27.751  0.00  0.00    +0.158 A 
ATOM     17  C   UNL     1       4.837   0.641  26.918  0.00  0.00    +0.050 A 
BRANCH  15  18
ATOM     18  O   UNL     1       7.971   1.075  28.746  0.00  0.00    -0.503 OA
ATOM     19  H   UNL     1       8.121   1.981  28.406  0.00  0.00    +0.292 HD
ENDBRANCH  15  18
BRANCH  16  20
ATOM     20  O   UNL     1       5.600   2.355  28.424  0.00  0.00    -0.503 OA
ATOM     21  H   UNL     1       5.354   3.034  27.772  0.00  0.00    +0.292 HD
ENDBRANCH  16  20
ENDBRANCH   1  13
BRANCH   5  22
ATOM     22  O   UNL     1       7.519  -5.412  21.430  0.00  0.00    -0.506 OA
ATOM     23  H   UNL     1       7.345  -6.262  20.965  0.00  0.00    +0.292 HD
ENDBRANCH   5  22
BRANCH   7  24
ATOM     24  O   UNL     1       4.022  -7.366  23.982  0.00  0.00    -0.507 OA
ATOM     25  H   UNL     1       3.532  -7.186  24.802  0.00  0.00    +0.292 HD
ENDBRANCH   7  24
BRANCH  11  26
ATOM     26  O   UNL     1       8.417  -0.962  24.072  0.00  0.00    -0.416 OA
BRANCH  26  27
ATOM     27  C   UNL     1       7.802   0.115  23.463  0.00  0.00    +0.345 C 
ATOM     28  O   UNL     1       6.776   0.070  22.794  0.00  0.00    -0.247 OA
BRANCH  27  29
ATOM     29  C   UNL     1       8.612   1.406  23.826  0.00  0.00    +0.261 C 
ATOM     30  O   UNL     1       8.533   1.988  25.131  0.00  0.00    -0.332 OA
ATOM     31  C   UNL     1       7.633   3.069  25.354  0.00  0.00    +0.280 C 
ATOM     32  C   UNL     1       7.821   4.185  24.316  0.00  0.00    +0.201 C 
ATOM     33  C   UNL     1       7.607   3.583  22.936  0.00  0.00    +0.179 C 
ATOM     34  C   UNL     1       8.617   2.460  22.696  0.00  0.00    +0.185 C 
BRANCH  31  35
ATOM     35  O   UNL     1       7.928   3.611  26.640  0.00  0.00    -0.365 OA
ATOM     36  H   UNL     1       7.521   3.017  27.296  0.00  0.00    +0.213 HD
ENDBRANCH  31  35
BRANCH  32  37
ATOM     37  O   UNL     1       9.157   4.739  24.413  0.00  0.00    -0.384 OA
ATOM     38  H   UNL     1       9.475   4.603  25.328  0.00  0.00    +0.210 HD
ENDBRANCH  32  37
BRANCH  33  39
ATOM     39  O   UNL     1       7.767   4.577  21.917  0.00  0.00    -0.386 OA
ATOM     40  H   UNL     1       6.869   4.857  21.646  0.00  0.00    +0.210 HD
ENDBRANCH  33  39
BRANCH  34  41
ATOM     41  O   UNL     1       8.460   1.912  21.390  0.00  0.00    -0.386 OA
ATOM     42  H   UNL     1       7.521   1.980  21.125  0.00  0.00    +0.210 HD
ENDBRANCH  34  41
ENDBRANCH  27  29
ENDBRANCH  26  27
ENDBRANCH  11  26
TORSDOF 12
ENDMDL
