MODEL 1
REMARK VINA RESULT:      -7.6      0.000      0.000
REMARK  Name = 
REMARK  14 active torsions:
REMARK  status: ('A' for Active; 'I' for Inactive)
REMARK    1  A    between atoms: C_1  and  C_2
REMARK    2  A    between atoms: C_2  and  O_4
REMARK    3  A    between atoms: O_4  and  C_5
REMARK    4  A    between atoms: C_6  and  C_22
REMARK    5  A    between atoms: C_10  and  O_17
REMARK    6  A    between atoms: C_12  and  O_16
REMARK    7  A    between atoms: O_17  and  S_18
REMARK    8  A    between atoms: S_18  and  O_21
REMARK    9  A    between atoms: C_24  and  O_33
REMARK   10  A    between atoms: C_25  and  O_28
REMARK   11  A    between atoms: O_28  and  S_29
REMARK   12  A    between atoms: S_29  and  O_32
REMARK   13  A    between atoms: O_33  and  S_34
REMARK   14  A    between atoms: S_34  and  O_37
REMARK                            x       y       z     vdW  Elec       q    Type
REMARK                         _______ _______ _______ _____ _____    ______ ____
ROOT
ATOM      1  C   UNL     1       9.268  -1.083  23.989  0.00  0.00    +0.221 A 
ATOM      2  C   UNL     1       9.696  -2.494  24.210  0.00  0.00    +0.239 A 
ATOM      3  O   UNL     1      10.606  -2.965  23.539  0.00  0.00    -0.283 OA
ATOM      4  C   UNL     1       8.934  -3.265  25.219  0.00  0.00    +0.109 A 
ATOM      5  C   UNL     1       7.848  -2.644  25.837  0.00  0.00    +0.147 A 
ATOM      6  C   UNL     1       7.067  -3.325  26.779  0.00  0.00    +0.096 A 
ATOM      7  C   UNL     1       7.376  -4.641  27.112  0.00  0.00    +0.166 A 
ATOM      8  C   UNL     1       8.453  -5.276  26.489  0.00  0.00    +0.095 A 
ATOM      9  O   UNL     1       7.462  -1.357  25.565  0.00  0.00    -0.451 OA
ATOM     10  C   UNL     1       9.232  -4.591  25.553  0.00  0.00    +0.135 A 
ATOM     11  C   UNL     1       8.191  -0.627  24.648  0.00  0.00    +0.182 A 
ENDROOT
BRANCH  11  12
ATOM     12  C   UNL     1       7.659   0.727  24.468  0.00  0.00    +0.025 A 
ATOM     13  C   UNL     1       6.333   0.909  24.065  0.00  0.00    +0.015 A 
ATOM     14  C   UNL     1       5.775   2.189  24.030  0.00  0.00    +0.053 A 
ATOM     15  C   UNL     1       6.545   3.297  24.387  0.00  0.00    +0.203 A 
ATOM     16  C   UNL     1       7.890   3.123  24.755  0.00  0.00    +0.204 A 
ATOM     17  C   UNL     1       8.442   1.839  24.800  0.00  0.00    +0.064 A 
BRANCH  15  18
ATOM     18  O   UNL     1       6.053   4.577  24.471  0.00  0.00    -0.321 OA
BRANCH  18  19
ATOM     19  S   UNL     1       5.500   5.379  23.170  0.00  0.00    +0.251 S 
ATOM     20  O   UNL     1       5.972   6.745  23.202  0.00  0.00    -0.108 OA
ATOM     21  O   UNL     1       4.102   5.052  22.984  0.00  0.00    -0.108 OA
BRANCH  19  22
ATOM     22  O   UNL     1       6.261   4.637  21.958  0.00  0.00    -0.222 OA
ATOM     23  H   UNL     1       5.805   3.787  21.799  0.00  0.00    +0.248 HD
ENDBRANCH  19  22
ENDBRANCH  18  19
ENDBRANCH  15  18
BRANCH  16  24
ATOM     24  O   UNL     1       8.580   4.257  25.110  0.00  0.00    -0.321 OA
BRANCH  24  25
ATOM     25  S   UNL     1       9.677   4.937  24.120  0.00  0.00    +0.251 S 
ATOM     26  O   UNL     1      10.536   3.911  23.569  0.00  0.00    -0.108 OA
ATOM     27  O   UNL     1      10.201   6.125  24.759  0.00  0.00    -0.108 OA
BRANCH  25  28
ATOM     28  O   UNL     1       8.761   5.490  22.915  0.00  0.00    -0.222 OA
ATOM     29  H   UNL     1       8.706   4.778  22.245  0.00  0.00    +0.248 HD
ENDBRANCH  25  28
ENDBRANCH  24  25
ENDBRANCH  16  24
ENDBRANCH  11  12
BRANCH  10  30
ATOM     30  O   UNL     1      10.279  -5.241  24.969  0.00  0.00    -0.506 OA
ATOM     31  H   UNL     1      10.480  -4.867  24.098  0.00  0.00    +0.292 HD
ENDBRANCH  10  30
BRANCH   1  32
ATOM     32  O   UNL     1       9.956  -0.332  23.028  0.00  0.00    -0.418 OA
BRANCH  32  34
ATOM     33  C   UNL     1       9.120   1.009  21.298  0.00  0.00    +0.136 C 
ATOM     34  C   UNL     1       9.309  -0.385  21.819  0.00  0.00    +0.309 C 
ATOM     35  O   UNL     1       8.943  -1.401  21.238  0.00  0.00    -0.251 OA
ENDBRANCH  32  34
ENDBRANCH   1  32
BRANCH   7  36
ATOM     36  O   UNL     1       6.664  -5.413  27.992  0.00  0.00    -0.325 OA
BRANCH  36  37
ATOM     37  S   UNL     1       5.339  -6.240  27.531  0.00  0.00    +0.251 S 
ATOM     38  O   UNL     1       5.488  -6.655  26.155  0.00  0.00    -0.108 OA
ATOM     39  O   UNL     1       4.166  -5.536  27.999  0.00  0.00    -0.108 OA
BRANCH  37  40
ATOM     40  O   UNL     1       5.422  -7.562  28.449  0.00  0.00    -0.222 OA
ATOM     41  H   UNL     1       5.000  -7.354  29.307  0.00  0.00    +0.248 HD
ENDBRANCH  37  40
ENDBRANCH  36  37
ENDBRANCH   7  36
TORSDOF 13
ENDMDL
MODEL 2
REMARK VINA RESULT:      -7.5      1.167      2.741
REMARK  Name = 
REMARK  14 active torsions:
REMARK  status: ('A' for Active; 'I' for Inactive)
REMARK    1  A    between atoms: C_1  and  C_2
REMARK    2  A    between atoms: C_2  and  O_4
REMARK    3  A    between atoms: O_4  and  C_5
REMARK    4  A    between atoms: C_6  and  C_22
REMARK    5  A    between atoms: C_10  and  O_17
REMARK    6  A    between atoms: C_12  and  O_16
REMARK    7  A    between atoms: O_17  and  S_18
REMARK    8  A    between atoms: S_18  and  O_21
REMARK    9  A    between atoms: C_24  and  O_33
REMARK   10  A    between atoms: C_25  and  O_28
REMARK   11  A    between atoms: O_28  and  S_29
REMARK   12  A    between atoms: S_29  and  O_32
REMARK   13  A    between atoms: O_33  and  S_34
REMARK   14  A    between atoms: S_34  and  O_37
REMARK                            x       y       z     vdW  Elec       q    Type
REMARK                         _______ _______ _______ _____ _____    ______ ____
ROOT
ATOM      1  C   UNL     1       9.143  -1.049  24.157  0.00  0.00    +0.221 A 
ATOM      2  C   UNL     1       9.471  -2.502  24.215  0.00  0.00    +0.239 A 
ATOM      3  O   UNL     1      10.503  -2.914  23.699  0.00  0.00    -0.283 OA
ATOM      4  C   UNL     1       8.473  -3.380  24.869  0.00  0.00    +0.109 A 
ATOM      5  C   UNL     1       7.286  -2.800  25.321  0.00  0.00    +0.147 A 
ATOM      6  C   UNL     1       6.287  -3.576  25.921  0.00  0.00    +0.096 A 
ATOM      7  C   UNL     1       6.476  -4.946  26.077  0.00  0.00    +0.166 A 
ATOM      8  C   UNL     1       7.653  -5.538  25.615  0.00  0.00    +0.095 A 
ATOM      9  O   UNL     1       7.008  -1.463  25.202  0.00  0.00    -0.451 OA
ATOM     10  C   UNL     1       8.650  -4.759  25.020  0.00  0.00    +0.135 A 
ATOM     11  C   UNL     1       7.952  -0.639  24.622  0.00  0.00    +0.182 A 
ENDROOT
BRANCH  11  12
ATOM     12  C   UNL     1       7.511   0.758  24.569  0.00  0.00    +0.025 A 
ATOM     13  C   UNL     1       8.118   1.714  25.388  0.00  0.00    +0.015 A 
ATOM     14  C   UNL     1       7.807   3.068  25.243  0.00  0.00    +0.053 A 
ATOM     15  C   UNL     1       6.877   3.472  24.284  0.00  0.00    +0.203 A 
ATOM     16  C   UNL     1       6.236   2.510  23.485  0.00  0.00    +0.204 A 
ATOM     17  C   UNL     1       6.557   1.157  23.625  0.00  0.00    +0.064 A 
BRANCH  15  18
ATOM     18  O   UNL     1       6.581   4.786  24.010  0.00  0.00    -0.321 OA
BRANCH  18  19
ATOM     19  S   UNL     1       7.416   5.651  22.917  0.00  0.00    +0.251 S 
ATOM     20  O   UNL     1       8.564   6.261  23.551  0.00  0.00    -0.108 OA
ATOM     21  O   UNL     1       6.481   6.416  22.120  0.00  0.00    -0.108 OA
BRANCH  19  22
ATOM     22  O   UNL     1       7.968   4.510  21.921  0.00  0.00    -0.222 OA
ATOM     23  H   UNL     1       8.944   4.577  21.907  0.00  0.00    +0.248 HD
ENDBRANCH  19  22
ENDBRANCH  18  19
ENDBRANCH  15  18
BRANCH  16  24
ATOM     24  O   UNL     1       5.346   2.985  22.551  0.00  0.00    -0.321 OA
BRANCH  24  25
ATOM     25  S   UNL     1       3.802   3.328  22.936  0.00  0.00    +0.251 S 
ATOM     26  O   UNL     1       3.460   2.686  24.188  0.00  0.00    -0.108 OA
ATOM     27  O   UNL     1       2.989   3.189  21.747  0.00  0.00    -0.108 OA
BRANCH  25  28
ATOM     28  O   UNL     1       3.858   4.914  23.212  0.00  0.00    -0.222 OA
ATOM     29  H   UNL     1       4.645   5.082  23.769  0.00  0.00    +0.248 HD
ENDBRANCH  25  28
ENDBRANCH  24  25
ENDBRANCH  16  24
ENDBRANCH  11  12
BRANCH  10  30
ATOM     30  O   UNL     1       9.789  -5.370  24.586  0.00  0.00    -0.506 OA
ATOM     31  H   UNL     1       9.677  -6.332  24.552  0.00  0.00    +0.292 HD
ENDBRANCH  10  30
BRANCH   1  32
ATOM     32  O   UNL     1      10.059  -0.195  23.529  0.00  0.00    -0.418 OA
BRANCH  32  34
ATOM     33  C   UNL     1       9.883   1.469  21.889  0.00  0.00    +0.136 C 
ATOM     34  C   UNL     1       9.702   0.017  22.221  0.00  0.00    +0.309 C 
ATOM     35  O   UNL     1       9.306  -0.833  21.432  0.00  0.00    -0.251 OA
ENDBRANCH  32  34
ENDBRANCH   1  32
BRANCH   7  36
ATOM     36  O   UNL     1       5.556  -5.806  26.618  0.00  0.00    -0.325 OA
BRANCH  36  37
ATOM     37  S   UNL     1       5.390  -5.984  28.228  0.00  0.00    +0.251 S 
ATOM     38  O   UNL     1       4.085  -5.511  28.631  0.00  0.00    -0.108 OA
ATOM     39  O   UNL     1       6.604  -5.533  28.871  0.00  0.00    -0.108 OA
BRANCH  37  40
ATOM     40  O   UNL     1       5.401  -7.587  28.400  0.00  0.00    -0.222 OA
ATOM     41  H   UNL     1       5.715  -7.785  29.305  0.00  0.00    +0.248 HD
ENDBRANCH  37  40
ENDBRANCH  36  37
ENDBRANCH   7  36
TORSDOF 13
ENDMDL
MODEL 3
REMARK VINA RESULT:      -7.4      2.144      2.750
REMARK  Name = 
REMARK  14 active torsions:
REMARK  status: ('A' for Active; 'I' for Inactive)
REMARK    1  A    between atoms: C_1  and  C_2
REMARK    2  A    between atoms: C_2  and  O_4
REMARK    3  A    between atoms: O_4  and  C_5
REMARK    4  A    between atoms: C_6  and  C_22
REMARK    5  A    between atoms: C_10  and  O_17
REMARK    6  A    between atoms: C_12  and  O_16
REMARK    7  A    between atoms: O_17  and  S_18
REMARK    8  A    between atoms: S_18  and  O_21
REMARK    9  A    between atoms: C_24  and  O_33
REMARK   10  A    between atoms: C_25  and  O_28
REMARK   11  A    between atoms: O_28  and  S_29
REMARK   12  A    between atoms: S_29  and  O_32
REMARK   13  A    between atoms: O_33  and  S_34
REMARK   14  A    between atoms: S_34  and  O_37
REMARK                            x       y       z     vdW  Elec       q    Type
REMARK                         _______ _______ _______ _____ _____    ______ ____
ROOT
ATOM      1  C   UNL     1       9.068  -0.762  23.439  0.00  0.00    +0.221 A 
ATOM      2  C   UNL     1       9.270  -2.226  23.633  0.00  0.00    +0.239 A 
ATOM      3  O   UNL     1      10.377  -2.717  23.449  0.00  0.00    -0.283 OA
ATOM      4  C   UNL     1       8.071  -3.017  23.995  0.00  0.00    +0.109 A 
ATOM      5  C   UNL     1       6.845  -2.353  24.067  0.00  0.00    +0.147 A 
ATOM      6  C   UNL     1       5.667  -3.045  24.375  0.00  0.00    +0.096 A 
ATOM      7  C   UNL     1       5.713  -4.415  24.618  0.00  0.00    +0.166 A 
ATOM      8  C   UNL     1       6.933  -5.091  24.535  0.00  0.00    +0.095 A 
ATOM      9  O   UNL     1       6.701  -1.010  23.833  0.00  0.00    -0.451 OA
ATOM     10  C   UNL     1       8.106  -4.396  24.231  0.00  0.00    +0.135 A 
ATOM     11  C   UNL     1       7.824  -0.267  23.528  0.00  0.00    +0.182 A 
ENDROOT
BRANCH  11  12
ATOM     12  C   UNL     1       7.509   1.148  23.308  0.00  0.00    +0.025 A 
ATOM     13  C   UNL     1       7.420   1.651  22.007  0.00  0.00    +0.015 A 
ATOM     14  C   UNL     1       6.981   2.958  21.784  0.00  0.00    +0.053 A 
ATOM     15  C   UNL     1       6.640   3.774  22.863  0.00  0.00    +0.203 A 
ATOM     16  C   UNL     1       6.766   3.286  24.175  0.00  0.00    +0.204 A 
ATOM     17  C   UNL     1       7.195   1.973  24.394  0.00  0.00    +0.064 A 
BRANCH  15  18
ATOM     18  O   UNL     1       6.112   5.036  22.732  0.00  0.00    -0.321 OA
BRANCH  18  19
ATOM     19  S   UNL     1       7.049   6.360  22.632  0.00  0.00    +0.251 S 
ATOM     20  O   UNL     1       6.973   7.107  23.868  0.00  0.00    -0.108 OA
ATOM     21  O   UNL     1       6.835   6.983  21.344  0.00  0.00    -0.108 OA
BRANCH  19  22
ATOM     22  O   UNL     1       8.530   5.729  22.544  0.00  0.00    -0.222 OA
ATOM     23  H   UNL     1       8.459   4.776  22.750  0.00  0.00    +0.248 HD
ENDBRANCH  19  22
ENDBRANCH  18  19
ENDBRANCH  15  18
BRANCH  16  24
ATOM     24  O   UNL     1       6.395   4.141  25.185  0.00  0.00    -0.321 OA
BRANCH  24  25
ATOM     25  S   UNL     1       7.479   4.742  26.239  0.00  0.00    +0.251 S 
ATOM     26  O   UNL     1       8.739   4.967  25.564  0.00  0.00    -0.108 OA
ATOM     27  O   UNL     1       7.384   3.993  27.474  0.00  0.00    -0.108 OA
BRANCH  25  28
ATOM     28  O   UNL     1       6.859   6.188  26.588  0.00  0.00    -0.222 OA
ATOM     29  H   UNL     1       7.503   6.646  27.166  0.00  0.00    +0.248 HD
ENDBRANCH  25  28
ENDBRANCH  24  25
ENDBRANCH  16  24
ENDBRANCH  11  12
BRANCH  10  30
ATOM     30  O   UNL     1       9.280  -5.087  24.164  0.00  0.00    -0.506 OA
ATOM     31  H   UNL     1       9.476  -5.353  23.253  0.00  0.00    +0.292 HD
ENDBRANCH  10  30
BRANCH   1  32
ATOM     32  O   UNL     1      10.180   0.011  23.078  0.00  0.00    -0.418 OA
BRANCH  32  34
ATOM     33  C   UNL     1      10.821   2.167  23.731  0.00  0.00    +0.136 C 
ATOM     34  C   UNL     1      10.628   0.741  24.150  0.00  0.00    +0.309 C 
ATOM     35  O   UNL     1      10.836   0.313  25.280  0.00  0.00    -0.251 OA
ENDBRANCH  32  34
ENDBRANCH   1  32
BRANCH   7  36
ATOM     36  O   UNL     1       4.623  -5.197  24.895  0.00  0.00    -0.325 OA
BRANCH  36  37
ATOM     37  S   UNL     1       3.788  -5.953  23.718  0.00  0.00    +0.251 S 
ATOM     38  O   UNL     1       4.307  -5.555  22.430  0.00  0.00    -0.108 OA
ATOM     39  O   UNL     1       2.378  -5.886  24.034  0.00  0.00    -0.108 OA
BRANCH  37  40
ATOM     40  O   UNL     1       4.191  -7.497  23.949  0.00  0.00    -0.222 OA
ATOM     41  H   UNL     1       4.284  -7.637  24.913  0.00  0.00    +0.248 HD
ENDBRANCH  37  40
ENDBRANCH  36  37
ENDBRANCH   7  36
TORSDOF 13
ENDMDL
MODEL 4
REMARK VINA RESULT:      -7.4      1.987      9.090
REMARK  Name = 
REMARK  14 active torsions:
REMARK  status: ('A' for Active; 'I' for Inactive)
REMARK    1  A    between atoms: C_1  and  C_2
REMARK    2  A    between atoms: C_2  and  O_4
REMARK    3  A    between atoms: O_4  and  C_5
REMARK    4  A    between atoms: C_6  and  C_22
REMARK    5  A    between atoms: C_10  and  O_17
REMARK    6  A    between atoms: C_12  and  O_16
REMARK    7  A    between atoms: O_17  and  S_18
REMARK    8  A    between atoms: S_18  and  O_21
REMARK    9  A    between atoms: C_24  and  O_33
REMARK   10  A    between atoms: C_25  and  O_28
REMARK   11  A    between atoms: O_28  and  S_29
REMARK   12  A    between atoms: S_29  and  O_32
REMARK   13  A    between atoms: O_33  and  S_34
REMARK   14  A    between atoms: S_34  and  O_37
REMARK                            x       y       z     vdW  Elec       q    Type
REMARK                         _______ _______ _______ _____ _____    ______ ____
ROOT
ATOM      1  C   UNL     1       8.466  -1.591  24.963  0.00  0.00    +0.221 A 
ATOM      2  C   UNL     1       9.093  -0.252  24.776  0.00  0.00    +0.239 A 
ATOM      3  O   UNL     1      10.205  -0.030  25.242  0.00  0.00    -0.283 OA
ATOM      4  C   UNL     1       8.284   0.763  24.063  0.00  0.00    +0.109 A 
ATOM      5  C   UNL     1       6.988   0.417  23.677  0.00  0.00    +0.147 A 
ATOM      6  C   UNL     1       6.158   1.337  23.026  0.00  0.00    +0.096 A 
ATOM      7  C   UNL     1       6.629   2.618  22.751  0.00  0.00    +0.166 A 
ATOM      8  C   UNL     1       7.919   2.980  23.145  0.00  0.00    +0.095 A 
ATOM      9  O   UNL     1       6.437  -0.816  23.914  0.00  0.00    -0.451 OA
ATOM     10  C   UNL     1       8.746   2.056  23.791  0.00  0.00    +0.135 A 
ATOM     11  C   UNL     1       7.202  -1.773  24.550  0.00  0.00    +0.182 A 
ENDROOT
BRANCH  11  12
ATOM     12  C   UNL     1       6.476  -3.034  24.729  0.00  0.00    +0.025 A 
ATOM     13  C   UNL     1       6.308  -3.903  23.647  0.00  0.00    +0.015 A 
ATOM     14  C   UNL     1       5.747  -5.168  23.838  0.00  0.00    +0.053 A 
ATOM     15  C   UNL     1       5.339  -5.566  25.113  0.00  0.00    +0.203 A 
ATOM     16  C   UNL     1       5.471  -4.681  26.196  0.00  0.00    +0.204 A 
ATOM     17  C   UNL     1       6.043  -3.419  26.003  0.00  0.00    +0.064 A 
BRANCH  15  18
ATOM     18  O   UNL     1       4.865  -6.822  25.407  0.00  0.00    -0.321 OA
BRANCH  18  19
ATOM     19  S   UNL     1       3.280  -7.178  25.374  0.00  0.00    +0.251 S 
ATOM     20  O   UNL     1       3.083  -8.469  24.752  0.00  0.00    -0.108 OA
ATOM     21  O   UNL     1       2.550  -6.002  24.952  0.00  0.00    -0.108 OA
BRANCH  19  22
ATOM     22  O   UNL     1       2.930  -7.342  26.939  0.00  0.00    -0.222 OA
ATOM     23  H   UNL     1       3.692  -7.779  27.369  0.00  0.00    +0.248 HD
ENDBRANCH  19  22
ENDBRANCH  18  19
ENDBRANCH  15  18
BRANCH  16  24
ATOM     24  O   UNL     1       5.064  -5.149  27.422  0.00  0.00    -0.321 OA
BRANCH  24  25
ATOM     25  S   UNL     1       6.080  -5.941  28.416  0.00  0.00    +0.251 S 
ATOM     26  O   UNL     1       5.865  -5.503  29.779  0.00  0.00    -0.108 OA
ATOM     27  O   UNL     1       7.393  -5.966  27.809  0.00  0.00    -0.108 OA
BRANCH  25  28
ATOM     28  O   UNL     1       5.552  -7.460  28.314  0.00  0.00    -0.222 OA
ATOM     29  H   UNL     1       6.043  -7.981  28.982  0.00  0.00    +0.248 HD
ENDBRANCH  25  28
ENDBRANCH  24  25
ENDBRANCH  16  24
ENDBRANCH  11  12
BRANCH  10  30
ATOM     30  O   UNL     1      10.002   2.442  24.156  0.00  0.00    -0.506 OA
ATOM     31  H   UNL     1       9.974   3.231  24.718  0.00  0.00    +0.292 HD
ENDBRANCH  10  30
BRANCH   1  32
ATOM     32  O   UNL     1       9.199  -2.568  25.650  0.00  0.00    -0.418 OA
BRANCH  32  34
ATOM     33  C   UNL     1       9.640  -4.842  25.301  0.00  0.00    +0.136 C 
ATOM     34  C   UNL     1       9.776  -3.447  24.768  0.00  0.00    +0.309 C 
ATOM     35  O   UNL     1      10.315  -3.157  23.706  0.00  0.00    -0.251 OA
ENDBRANCH  32  34
ENDBRANCH   1  32
BRANCH   7  36
ATOM     36  O   UNL     1       5.896   3.608  22.150  0.00  0.00    -0.325 OA
BRANCH  36  37
ATOM     37  S   UNL     1       4.596   4.273  22.872  0.00  0.00    +0.251 S 
ATOM     38  O   UNL     1       4.921   4.592  24.244  0.00  0.00    -0.108 OA
ATOM     39  O   UNL     1       3.425   3.502  22.518  0.00  0.00    -0.108 OA
BRANCH  37  40
ATOM     40  O   UNL     1       4.434   5.664  22.074  0.00  0.00    -0.222 OA
ATOM     41  H   UNL     1       3.493   5.750  21.819  0.00  0.00    +0.248 HD
ENDBRANCH  37  40
ENDBRANCH  36  37
ENDBRANCH   7  36
TORSDOF 13
ENDMDL
MODEL 5
REMARK VINA RESULT:      -7.3      2.627      9.161
REMARK  Name = 
REMARK  14 active torsions:
REMARK  status: ('A' for Active; 'I' for Inactive)
REMARK    1  A    between atoms: C_1  and  C_2
REMARK    2  A    between atoms: C_2  and  O_4
REMARK    3  A    between atoms: O_4  and  C_5
REMARK    4  A    between atoms: C_6  and  C_22
REMARK    5  A    between atoms: C_10  and  O_17
REMARK    6  A    between atoms: C_12  and  O_16
REMARK    7  A    between atoms: O_17  and  S_18
REMARK    8  A    between atoms: S_18  and  O_21
REMARK    9  A    between atoms: C_24  and  O_33
REMARK   10  A    between atoms: C_25  and  O_28
REMARK   11  A    between atoms: O_28  and  S_29
REMARK   12  A    between atoms: S_29  and  O_32
REMARK   13  A    between atoms: O_33  and  S_34
REMARK   14  A    between atoms: S_34  and  O_37
REMARK                            x       y       z     vdW  Elec       q    Type
REMARK                         _______ _______ _______ _____ _____    ______ ____
ROOT
ATOM      1  C   UNL     1       7.316  -2.961  23.099  0.00  0.00    +0.221 A 
ATOM      2  C   UNL     1       8.230  -1.957  22.484  0.00  0.00    +0.239 A 
ATOM      3  O   UNL     1       9.135  -2.329  21.747  0.00  0.00    -0.283 OA
ATOM      4  C   UNL     1       8.005  -0.541  22.858  0.00  0.00    +0.109 A 
ATOM      5  C   UNL     1       7.008  -0.260  23.793  0.00  0.00    +0.147 A 
ATOM      6  C   UNL     1       6.762   1.052  24.215  0.00  0.00    +0.096 A 
ATOM      7  C   UNL     1       7.518   2.098  23.692  0.00  0.00    +0.166 A 
ATOM      8  C   UNL     1       8.527   1.827  22.766  0.00  0.00    +0.095 A 
ATOM      9  O   UNL     1       6.223  -1.226  24.369  0.00  0.00    -0.451 OA
ATOM     10  C   UNL     1       8.766   0.515  22.346  0.00  0.00    +0.135 A 
ATOM     11  C   UNL     1       6.410  -2.541  23.996  0.00  0.00    +0.182 A 
ENDROOT
BRANCH  11  12
ATOM     12  C   UNL     1       5.496  -3.451  24.694  0.00  0.00    +0.025 A 
ATOM     13  C   UNL     1       4.120  -3.373  24.463  0.00  0.00    +0.015 A 
ATOM     14  C   UNL     1       3.257  -4.325  25.010  0.00  0.00    +0.053 A 
ATOM     15  C   UNL     1       3.766  -5.355  25.802  0.00  0.00    +0.203 A 
ATOM     16  C   UNL     1       5.144  -5.415  26.070  0.00  0.00    +0.204 A 
ATOM     17  C   UNL     1       6.006  -4.466  25.512  0.00  0.00    +0.064 A 
BRANCH  15  18
ATOM     18  O   UNL     1       3.004  -6.384  26.302  0.00  0.00    -0.321 OA
BRANCH  18  19
ATOM     19  S   UNL     1       2.351  -7.522  25.343  0.00  0.00    +0.251 S 
ATOM     20  O   UNL     1       3.381  -8.119  24.522  0.00  0.00    -0.108 OA
ATOM     21  O   UNL     1       1.123  -7.003  24.778  0.00  0.00    -0.108 OA
BRANCH  19  22
ATOM     22  O   UNL     1       1.876  -8.638  26.405  0.00  0.00    -0.222 OA
ATOM     23  H   UNL     1       1.922  -9.508  25.960  0.00  0.00    +0.248 HD
ENDBRANCH  19  22
ENDBRANCH  18  19
ENDBRANCH  15  18
BRANCH  16  24
ATOM     24  O   UNL     1       5.573  -6.467  26.843  0.00  0.00    -0.321 OA
BRANCH  24  25
ATOM     25  S   UNL     1       6.374  -6.233  28.240  0.00  0.00    +0.251 S 
ATOM     26  O   UNL     1       6.385  -7.461  29.005  0.00  0.00    -0.108 OA
ATOM     27  O   UNL     1       5.952  -4.970  28.806  0.00  0.00    -0.108 OA
BRANCH  25  28
ATOM     28  O   UNL     1       7.882  -5.972  27.735  0.00  0.00    -0.222 OA
ATOM     29  H   UNL     1       8.002  -6.483  26.908  0.00  0.00    +0.248 HD
ENDBRANCH  25  28
ENDBRANCH  24  25
ENDBRANCH  16  24
ENDBRANCH  11  12
BRANCH  10  30
ATOM     30  O   UNL     1       9.756   0.288  21.436  0.00  0.00    -0.506 OA
ATOM     31  H   UNL     1      10.100  -0.614  21.514  0.00  0.00    +0.292 HD
ENDBRANCH  10  30
BRANCH   1  32
ATOM     32  O   UNL     1       7.514  -4.310  22.779  0.00  0.00    -0.418 OA
BRANCH  32  34
ATOM     33  C   UNL     1       6.483  -6.234  21.927  0.00  0.00    +0.136 C 
ATOM     34  C   UNL     1       6.568  -4.737  21.881  0.00  0.00    +0.309 C 
ATOM     35  O   UNL     1       5.885  -4.023  21.155  0.00  0.00    -0.251 OA
ENDBRANCH  32  34
ENDBRANCH   1  32
BRANCH   7  36
ATOM     36  O   UNL     1       7.388   3.413  24.055  0.00  0.00    -0.325 OA
BRANCH  36  37
ATOM     37  S   UNL     1       6.524   4.469  23.163  0.00  0.00    +0.251 S 
ATOM     38  O   UNL     1       6.087   5.560  24.003  0.00  0.00    -0.108 OA
ATOM     39  O   UNL     1       5.608   3.727  22.326  0.00  0.00    -0.108 OA
BRANCH  37  40
ATOM     40  O   UNL     1       7.634   5.050  22.149  0.00  0.00    -0.222 OA
ATOM     41  H   UNL     1       7.312   5.915  21.822  0.00  0.00    +0.248 HD
ENDBRANCH  37  40
ENDBRANCH  36  37
ENDBRANCH   7  36
TORSDOF 13
ENDMDL
MODEL 6
REMARK VINA RESULT:      -7.2      2.444      8.967
REMARK  Name = 
REMARK  14 active torsions:
REMARK  status: ('A' for Active; 'I' for Inactive)
REMARK    1  A    between atoms: C_1  and  C_2
REMARK    2  A    between atoms: C_2  and  O_4
REMARK    3  A    between atoms: O_4  and  C_5
REMARK    4  A    between atoms: C_6  and  C_22
REMARK    5  A    between atoms: C_10  and  O_17
REMARK    6  A    between atoms: C_12  and  O_16
REMARK    7  A    between atoms: O_17  and  S_18
REMARK    8  A    between atoms: S_18  and  O_21
REMARK    9  A    between atoms: C_24  and  O_33
REMARK   10  A    between atoms: C_25  and  O_28
REMARK   11  A    between atoms: O_28  and  S_29
REMARK   12  A    between atoms: S_29  and  O_32
REMARK   13  A    between atoms: O_33  and  S_34
REMARK   14  A    between atoms: S_34  and  O_37
REMARK                            x       y       z     vdW  Elec       q    Type
REMARK                         _______ _______ _______ _____ _____    ______ ____
ROOT
ATOM      1  C   UNL     1       7.105  -3.364  23.859  0.00  0.00    +0.221 A 
ATOM      2  C   UNL     1       8.207  -2.853  22.995  0.00  0.00    +0.239 A 
ATOM      3  O   UNL     1       8.696  -3.582  22.139  0.00  0.00    -0.283 OA
ATOM      4  C   UNL     1       8.681  -1.479  23.272  0.00  0.00    +0.109 A 
ATOM      5  C   UNL     1       8.113  -0.792  24.347  0.00  0.00    +0.147 A 
ATOM      6  C   UNL     1       8.536   0.499  24.684  0.00  0.00    +0.096 A 
ATOM      7  C   UNL     1       9.534   1.117  23.936  0.00  0.00    +0.166 A 
ATOM      8  C   UNL     1      10.119   0.434  22.867  0.00  0.00    +0.095 A 
ATOM      9  O   UNL     1       7.133  -1.324  25.145  0.00  0.00    -0.451 OA
ATOM     10  C   UNL     1       9.691  -0.854  22.532  0.00  0.00    +0.135 A 
ATOM     11  C   UNL     1       6.667  -2.593  24.867  0.00  0.00    +0.182 A 
ENDROOT
BRANCH  11  12
ATOM     12  C   UNL     1       5.623  -3.018  25.803  0.00  0.00    +0.025 A 
ATOM     13  C   UNL     1       4.288  -2.680  25.563  0.00  0.00    +0.015 A 
ATOM     14  C   UNL     1       3.272  -3.200  26.368  0.00  0.00    +0.053 A 
ATOM     15  C   UNL     1       3.587  -4.053  27.426  0.00  0.00    +0.203 A 
ATOM     16  C   UNL     1       4.930  -4.365  27.696  0.00  0.00    +0.204 A 
ATOM     17  C   UNL     1       5.945  -3.851  26.881  0.00  0.00    +0.064 A 
BRANCH  15  18
ATOM     18  O   UNL     1       2.648  -4.682  28.208  0.00  0.00    -0.321 OA
BRANCH  18  19
ATOM     19  S   UNL     1       1.586  -5.749  27.595  0.00  0.00    +0.251 S 
ATOM     20  O   UNL     1       0.579  -5.049  26.828  0.00  0.00    -0.108 OA
ATOM     21  O   UNL     1       1.240  -6.703  28.627  0.00  0.00    -0.108 OA
BRANCH  19  22
ATOM     22  O   UNL     1       2.492  -6.579  26.552  0.00  0.00    -0.222 OA
ATOM     23  H   UNL     1       2.258  -7.524  26.644  0.00  0.00    +0.248 HD
ENDBRANCH  19  22
ENDBRANCH  18  19
ENDBRANCH  15  18
BRANCH  16  24
ATOM     24  O   UNL     1       5.161  -5.225  28.742  0.00  0.00    -0.321 OA
BRANCH  24  25
ATOM     25  S   UNL     1       5.406  -6.816  28.505  0.00  0.00    +0.251 S 
ATOM     26  O   UNL     1       6.524  -7.260  29.310  0.00  0.00    -0.108 OA
ATOM     27  O   UNL     1       5.315  -7.090  27.088  0.00  0.00    -0.108 OA
BRANCH  25  28
ATOM     28  O   UNL     1       4.075  -7.470  29.136  0.00  0.00    -0.222 OA
ATOM     29  H   UNL     1       4.365  -8.149  29.780  0.00  0.00    +0.248 HD
ENDBRANCH  25  28
ENDBRANCH  24  25
ENDBRANCH  16  24
ENDBRANCH  11  12
BRANCH  10  30
ATOM     30  O   UNL     1      10.281  -1.488  21.479  0.00  0.00    -0.506 OA
ATOM     31  H   UNL     1      10.677  -2.328  21.755  0.00  0.00    +0.292 HD
ENDBRANCH  10  30
BRANCH   1  32
ATOM     32  O   UNL     1       6.645  -4.668  23.633  0.00  0.00    -0.418 OA
BRANCH  32  34
ATOM     33  C   UNL     1       6.137  -5.904  21.709  0.00  0.00    +0.136 C 
ATOM     34  C   UNL     1       5.808  -4.704  22.546  0.00  0.00    +0.309 C 
ATOM     35  O   UNL     1       4.922  -3.898  22.289  0.00  0.00    -0.251 OA
ENDBRANCH  32  34
ENDBRANCH   1  32
BRANCH   7  36
ATOM     36  O   UNL     1      10.048   2.361  24.193  0.00  0.00    -0.325 OA
BRANCH  36  37
ATOM     37  S   UNL     1       9.197   3.719  23.900  0.00  0.00    +0.251 S 
ATOM     38  O   UNL     1       8.731   4.272  25.150  0.00  0.00    -0.108 OA
ATOM     39  O   UNL     1       8.307   3.476  22.786  0.00  0.00    -0.108 OA
BRANCH  37  40
ATOM     40  O   UNL     1      10.326   4.712  23.318  0.00  0.00    -0.222 OA
ATOM     41  H   UNL     1       9.880   5.354  22.729  0.00  0.00    +0.248 HD
ENDBRANCH  37  40
ENDBRANCH  36  37
ENDBRANCH   7  36
TORSDOF 13
ENDMDL
MODEL 7
REMARK VINA RESULT:      -7.2      2.551      9.216
REMARK  Name = 
REMARK  14 active torsions:
REMARK  status: ('A' for Active; 'I' for Inactive)
REMARK    1  A    between atoms: C_1  and  C_2
REMARK    2  A    between atoms: C_2  and  O_4
REMARK    3  A    between atoms: O_4  and  C_5
REMARK    4  A    between atoms: C_6  and  C_22
REMARK    5  A    between atoms: C_10  and  O_17
REMARK    6  A    between atoms: C_12  and  O_16
REMARK    7  A    between atoms: O_17  and  S_18
REMARK    8  A    between atoms: S_18  and  O_21
REMARK    9  A    between atoms: C_24  and  O_33
REMARK   10  A    between atoms: C_25  and  O_28
REMARK   11  A    between atoms: O_28  and  S_29
REMARK   12  A    between atoms: S_29  and  O_32
REMARK   13  A    between atoms: O_33  and  S_34
REMARK   14  A    between atoms: S_34  and  O_37
REMARK                            x       y       z     vdW  Elec       q    Type
REMARK                         _______ _______ _______ _____ _____    ______ ____
ROOT
ATOM      1  C   UNL     1       7.423  -3.058  23.245  0.00  0.00    +0.221 A 
ATOM      2  C   UNL     1       8.417  -2.088  22.704  0.00  0.00    +0.239 A 
ATOM      3  O   UNL     1       9.184  -2.437  21.814  0.00  0.00    -0.283 OA
ATOM      4  C   UNL     1       8.444  -0.748  23.333  0.00  0.00    +0.109 A 
ATOM      5  C   UNL     1       7.591  -0.513  24.413  0.00  0.00    +0.147 A 
ATOM      6  C   UNL     1       7.586   0.721  25.074  0.00  0.00    +0.096 A 
ATOM      7  C   UNL     1       8.439   1.736  24.649  0.00  0.00    +0.166 A 
ATOM      8  C   UNL     1       9.306   1.507  23.579  0.00  0.00    +0.095 A 
ATOM      9  O   UNL     1       6.725  -1.455  24.907  0.00  0.00    -0.451 OA
ATOM     10  C   UNL     1       9.305   0.274  22.920  0.00  0.00    +0.135 A 
ATOM     11  C   UNL     1       6.677  -2.694  24.300  0.00  0.00    +0.182 A 
ENDROOT
BRANCH  11  12
ATOM     12  C   UNL     1       5.705  -3.587  24.938  0.00  0.00    +0.025 A 
ATOM     13  C   UNL     1       4.341  -3.438  24.672  0.00  0.00    +0.015 A 
ATOM     14  C   UNL     1       3.422  -4.371  25.160  0.00  0.00    +0.053 A 
ATOM     15  C   UNL     1       3.862  -5.451  25.926  0.00  0.00    +0.203 A 
ATOM     16  C   UNL     1       5.228  -5.582  26.228  0.00  0.00    +0.204 A 
ATOM     17  C   UNL     1       6.147  -4.653  25.729  0.00  0.00    +0.064 A 
BRANCH  15  18
ATOM     18  O   UNL     1       3.042  -6.463  26.365  0.00  0.00    -0.321 OA
BRANCH  18  19
ATOM     19  S   UNL     1       2.392  -7.552  25.350  0.00  0.00    +0.251 S 
ATOM     20  O   UNL     1       3.422  -8.096  24.493  0.00  0.00    -0.108 OA
ATOM     21  O   UNL     1       1.158  -7.013  24.821  0.00  0.00    -0.108 OA
BRANCH  19  22
ATOM     22  O   UNL     1       1.933  -8.728  26.353  0.00  0.00    -0.222 OA
ATOM     23  H   UNL     1       1.317  -8.337  27.004  0.00  0.00    +0.248 HD
ENDBRANCH  19  22
ENDBRANCH  18  19
ENDBRANCH  15  18
BRANCH  16  24
ATOM     24  O   UNL     1       5.589  -6.680  26.971  0.00  0.00    -0.321 OA
BRANCH  24  25
ATOM     25  S   UNL     1       5.541  -6.666  28.598  0.00  0.00    +0.251 S 
ATOM     26  O   UNL     1       5.303  -5.316  29.064  0.00  0.00    -0.108 OA
ATOM     27  O   UNL     1       6.630  -7.477  29.098  0.00  0.00    -0.108 OA
BRANCH  25  28
ATOM     28  O   UNL     1       4.213  -7.521  28.914  0.00  0.00    -0.222 OA
ATOM     29  H   UNL     1       4.340  -8.408  28.519  0.00  0.00    +0.248 HD
ENDBRANCH  25  28
ENDBRANCH  24  25
ENDBRANCH  16  24
ENDBRANCH  11  12
BRANCH  10  30
ATOM     30  O   UNL     1      10.161   0.088  21.875  0.00  0.00    -0.506 OA
ATOM     31  H   UNL     1      10.356   0.927  21.430  0.00  0.00    +0.292 HD
ENDBRANCH  10  30
BRANCH   1  32
ATOM     32  O   UNL     1       7.385  -4.341  22.682  0.00  0.00    -0.418 OA
BRANCH  32  34
ATOM     33  C   UNL     1       5.831  -5.898  21.877  0.00  0.00    +0.136 C 
ATOM     34  C   UNL     1       6.298  -4.473  21.855  0.00  0.00    +0.309 C 
ATOM     35  O   UNL     1       5.775  -3.578  21.201  0.00  0.00    -0.251 OA
ENDBRANCH  32  34
ENDBRANCH   1  32
BRANCH   7  36
ATOM     36  O   UNL     1       8.542   2.968  25.239  0.00  0.00    -0.325 OA
BRANCH  36  37
ATOM     37  S   UNL     1       8.097   4.331  24.466  0.00  0.00    +0.251 S 
ATOM     38  O   UNL     1       6.917   4.069  23.675  0.00  0.00    -0.108 OA
ATOM     39  O   UNL     1       9.277   4.952  23.905  0.00  0.00    -0.108 OA
BRANCH  37  40
ATOM     40  O   UNL     1       7.664   5.293  25.685  0.00  0.00    -0.222 OA
ATOM     41  H   UNL     1       7.512   6.186  25.317  0.00  0.00    +0.248 HD
ENDBRANCH  37  40
ENDBRANCH  36  37
ENDBRANCH   7  36
TORSDOF 13
ENDMDL
MODEL 8
REMARK VINA RESULT:      -7.2      2.281      9.121
REMARK  Name = 
REMARK  14 active torsions:
REMARK  status: ('A' for Active; 'I' for Inactive)
REMARK    1  A    between atoms: C_1  and  C_2
REMARK    2  A    between atoms: C_2  and  O_4
REMARK    3  A    between atoms: O_4  and  C_5
REMARK    4  A    between atoms: C_6  and  C_22
REMARK    5  A    between atoms: C_10  and  O_17
REMARK    6  A    between atoms: C_12  and  O_16
REMARK    7  A    between atoms: O_17  and  S_18
REMARK    8  A    between atoms: S_18  and  O_21
REMARK    9  A    between atoms: C_24  and  O_33
REMARK   10  A    between atoms: C_25  and  O_28
REMARK   11  A    between atoms: O_28  and  S_29
REMARK   12  A    between atoms: S_29  and  O_32
REMARK   13  A    between atoms: O_33  and  S_34
REMARK   14  A    between atoms: S_34  and  O_37
REMARK                            x       y       z     vdW  Elec       q    Type
REMARK                         _______ _______ _______ _____ _____    ______ ____
ROOT
ATOM      1  C   UNL     1       7.918  -2.773  22.924  0.00  0.00    +0.221 A 
ATOM      2  C   UNL     1       8.420  -1.551  22.234  0.00  0.00    +0.239 A 
ATOM      3  O   UNL     1       8.832  -1.629  21.083  0.00  0.00    -0.283 OA
ATOM      4  C   UNL     1       8.435  -0.301  23.029  0.00  0.00    +0.109 A 
ATOM      5  C   UNL     1       8.040  -0.369  24.366  0.00  0.00    +0.147 A 
ATOM      6  C   UNL     1       8.057   0.767  25.183  0.00  0.00    +0.096 A 
ATOM      7  C   UNL     1       8.469   1.989  24.658  0.00  0.00    +0.166 A 
ATOM      8  C   UNL     1       8.879   2.066  23.325  0.00  0.00    +0.095 A 
ATOM      9  O   UNL     1       7.629  -1.529  24.971  0.00  0.00    -0.451 OA
ATOM     10  C   UNL     1       8.856   0.929  22.512  0.00  0.00    +0.135 A 
ATOM     11  C   UNL     1       7.585  -2.688  24.222  0.00  0.00    +0.182 A 
ENDROOT
BRANCH  11  12
ATOM     12  C   UNL     1       7.126  -3.838  25.006  0.00  0.00    +0.025 A 
ATOM     13  C   UNL     1       8.029  -4.546  25.804  0.00  0.00    +0.015 A 
ATOM     14  C   UNL     1       7.576  -5.550  26.663  0.00  0.00    +0.053 A 
ATOM     15  C   UNL     1       6.216  -5.860  26.719  0.00  0.00    +0.203 A 
ATOM     16  C   UNL     1       5.310  -5.178  25.890  0.00  0.00    +0.204 A 
ATOM     17  C   UNL     1       5.766  -4.166  25.039  0.00  0.00    +0.064 A 
BRANCH  15  18
ATOM     18  O   UNL     1       5.673  -6.765  27.599  0.00  0.00    -0.321 OA
BRANCH  18  19
ATOM     19  S   UNL     1       5.826  -6.604  29.209  0.00  0.00    +0.251 S 
ATOM     20  O   UNL     1       5.836  -5.202  29.561  0.00  0.00    -0.108 OA
ATOM     21  O   UNL     1       6.847  -7.520  29.671  0.00  0.00    -0.108 OA
BRANCH  19  22
ATOM     22  O   UNL     1       4.440  -7.224  29.751  0.00  0.00    -0.222 OA
ATOM     23  H   UNL     1       4.272  -8.050  29.256  0.00  0.00    +0.248 HD
ENDBRANCH  19  22
ENDBRANCH  18  19
ENDBRANCH  15  18
BRANCH  16  24
ATOM     24  O   UNL     1       3.986  -5.525  26.014  0.00  0.00    -0.321 OA
BRANCH  24  25
ATOM     25  S   UNL     1       3.341  -6.756  25.168  0.00  0.00    +0.251 S 
ATOM     26  O   UNL     1       4.338  -7.308  24.276  0.00  0.00    -0.108 OA
ATOM     27  O   UNL     1       2.026  -6.361  24.710  0.00  0.00    -0.108 OA
BRANCH  25  28
ATOM     28  O   UNL     1       3.063  -7.856  26.313  0.00  0.00    -0.222 OA
ATOM     29  H   UNL     1       3.378  -7.477  27.159  0.00  0.00    +0.248 HD
ENDBRANCH  25  28
ENDBRANCH  24  25
ENDBRANCH  16  24
ENDBRANCH  11  12
BRANCH  10  30
ATOM     30  O   UNL     1       9.258   1.042  21.214  0.00  0.00    -0.506 OA
ATOM     31  H   UNL     1       8.556   1.421  20.664  0.00  0.00    +0.292 HD
ENDBRANCH  10  30
BRANCH   1  32
ATOM     32  O   UNL     1       7.908  -3.975  22.205  0.00  0.00    -0.418 OA
BRANCH  32  34
ATOM     33  C   UNL     1       6.449  -5.725  21.663  0.00  0.00    +0.136 C 
ATOM     34  C   UNL     1       6.650  -4.241  21.725  0.00  0.00    +0.309 C 
ATOM     35  O   UNL     1       5.810  -3.410  21.402  0.00  0.00    -0.251 OA
ENDBRANCH  32  34
ENDBRANCH   1  32
BRANCH   7  36
ATOM     36  O   UNL     1       8.558   3.156  25.371  0.00  0.00    -0.325 OA
BRANCH  36  37
ATOM     37  S   UNL     1       7.290   3.753  26.202  0.00  0.00    +0.251 S 
ATOM     38  O   UNL     1       6.062   3.346  25.560  0.00  0.00    -0.108 OA
ATOM     39  O   UNL     1       7.564   5.134  26.536  0.00  0.00    -0.108 OA
BRANCH  37  40
ATOM     40  O   UNL     1       7.394   2.960  27.602  0.00  0.00    -0.222 OA
ATOM     41  H   UNL     1       8.214   2.427  27.580  0.00  0.00    +0.248 HD
ENDBRANCH  37  40
ENDBRANCH  36  37
ENDBRANCH   7  36
TORSDOF 13
ENDMDL
MODEL 9
REMARK VINA RESULT:      -7.2      2.926      9.243
REMARK  Name = 
REMARK  14 active torsions:
REMARK  status: ('A' for Active; 'I' for Inactive)
REMARK    1  A    between atoms: C_1  and  C_2
REMARK    2  A    between atoms: C_2  and  O_4
REMARK    3  A    between atoms: O_4  and  C_5
REMARK    4  A    between atoms: C_6  and  C_22
REMARK    5  A    between atoms: C_10  and  O_17
REMARK    6  A    between atoms: C_12  and  O_16
REMARK    7  A    between atoms: O_17  and  S_18
REMARK    8  A    between atoms: S_18  and  O_21
REMARK    9  A    between atoms: C_24  and  O_33
REMARK   10  A    between atoms: C_25  and  O_28
REMARK   11  A    between atoms: O_28  and  S_29
REMARK   12  A    between atoms: S_29  and  O_32
REMARK   13  A    between atoms: O_33  and  S_34
REMARK   14  A    between atoms: S_34  and  O_37
REMARK                            x       y       z     vdW  Elec       q    Type
REMARK                         _______ _______ _______ _____ _____    ______ ____
ROOT
ATOM      1  C   UNL     1       7.068   1.166  25.776  0.00  0.00    +0.221 A 
ATOM      2  C   UNL     1       7.264   2.581  26.203  0.00  0.00    +0.239 A 
ATOM      3  O   UNL     1       6.601   3.034  27.129  0.00  0.00    -0.283 OA
ATOM      4  C   UNL     1       8.236   3.379  25.422  0.00  0.00    +0.109 A 
ATOM      5  C   UNL     1       8.846   2.775  24.320  0.00  0.00    +0.147 A 
ATOM      6  C   UNL     1       9.753   3.481  23.521  0.00  0.00    +0.096 A 
ATOM      7  C   UNL     1      10.060   4.804  23.826  0.00  0.00    +0.166 A 
ATOM      8  C   UNL     1       9.446   5.422  24.918  0.00  0.00    +0.095 A 
ATOM      9  O   UNL     1       8.597   1.483  23.937  0.00  0.00    -0.451 OA
ATOM     10  C   UNL     1       8.544   4.712  25.716  0.00  0.00    +0.135 A 
ATOM     11  C   UNL     1       7.715   0.729  24.684  0.00  0.00    +0.182 A 
ENDROOT
BRANCH  11  12
ATOM     12  C   UNL     1       7.556  -0.628  24.152  0.00  0.00    +0.025 A 
ATOM     13  C   UNL     1       6.667  -0.868  23.101  0.00  0.00    +0.015 A 
ATOM     14  C   UNL     1       6.614  -2.124  22.493  0.00  0.00    +0.053 A 
ATOM     15  C   UNL     1       7.444  -3.153  22.942  0.00  0.00    +0.203 A 
ATOM     16  C   UNL     1       8.312  -2.928  24.024  0.00  0.00    +0.204 A 
ATOM     17  C   UNL     1       8.370  -1.665  24.623  0.00  0.00    +0.064 A 
BRANCH  15  18
ATOM     18  O   UNL     1       7.526  -4.387  22.344  0.00  0.00    -0.321 OA
BRANCH  18  19
ATOM     19  S   UNL     1       6.204  -5.228  21.912  0.00  0.00    +0.251 S 
ATOM     20  O   UNL     1       5.926  -5.014  20.509  0.00  0.00    -0.108 OA
ATOM     21  O   UNL     1       5.191  -5.055  22.932  0.00  0.00    -0.108 OA
BRANCH  19  22
ATOM     22  O   UNL     1       6.697  -6.754  22.076  0.00  0.00    -0.222 OA
ATOM     23  H   UNL     1       7.672  -6.745  22.143  0.00  0.00    +0.248 HD
ENDBRANCH  19  22
ENDBRANCH  18  19
ENDBRANCH  15  18
BRANCH  16  24
ATOM     24  O   UNL     1       9.111  -3.982  24.398  0.00  0.00    -0.321 OA
BRANCH  24  25
ATOM     25  S   UNL     1       8.744  -4.923  25.674  0.00  0.00    +0.251 S 
ATOM     26  O   UNL     1       7.444  -5.526  25.474  0.00  0.00    -0.108 OA
ATOM     27  O   UNL     1       9.090  -4.213  26.885  0.00  0.00    -0.108 OA
BRANCH  25  28
ATOM     28  O   UNL     1       9.838  -6.101  25.562  0.00  0.00    -0.222 OA
ATOM     29  H   UNL     1      10.564  -5.880  26.180  0.00  0.00    +0.248 HD
ENDBRANCH  25  28
ENDBRANCH  24  25
ENDBRANCH  16  24
ENDBRANCH  11  12
BRANCH  10  30
ATOM     30  O   UNL     1       7.967   5.345  26.777  0.00  0.00    -0.506 OA
ATOM     31  H   UNL     1       7.763   4.719  27.487  0.00  0.00    +0.292 HD
ENDBRANCH  10  30
BRANCH   1  32
ATOM     32  O   UNL     1       6.141   0.390  26.484  0.00  0.00    -0.418 OA
BRANCH  32  34
ATOM     33  C   UNL     1       3.942   0.462  27.290  0.00  0.00    +0.136 C 
ATOM     34  C   UNL     1       4.858   0.732  26.134  0.00  0.00    +0.309 C 
ATOM     35  O   UNL     1       4.502   1.194  25.056  0.00  0.00    -0.251 OA
ENDBRANCH  32  34
ENDBRANCH   1  32
BRANCH   7  36
ATOM     36  O   UNL     1      10.905   5.599  23.097  0.00  0.00    -0.325 OA
BRANCH  36  37
ATOM     37  S   UNL     1      12.524   5.442  23.188  0.00  0.00    +0.251 S 
ATOM     38  O   UNL     1      13.132   6.068  22.036  0.00  0.00    -0.108 OA
ATOM     39  O   UNL     1      12.837   4.085  23.580  0.00  0.00    -0.108 OA
BRANCH  37  40
ATOM     40  O   UNL     1      12.885   6.339  24.477  0.00  0.00    -0.222 OA
ATOM     41  H   UNL     1      13.432   7.090  24.171  0.00  0.00    +0.248 HD
ENDBRANCH  37  40
ENDBRANCH  36  37
ENDBRANCH   7  36
TORSDOF 13
ENDMDL
