MODEL 1
REMARK VINA RESULT:      -6.6      0.000      0.000
REMARK  Name = 
REMARK  24 active torsions:
REMARK  status: ('A' for Active; 'I' for Inactive)
REMARK    1  A    between atoms: C_3  and  O_71
REMARK    2  A    between atoms: C_4  and  O_70
REMARK    3  A    between atoms: C_6  and  C_7
REMARK    4  A    between atoms: C_8  and  O_37
REMARK    5  A    between atoms: C_12  and  O_36
REMARK    6  A    between atoms: C_14  and  O_18
REMARK    7  A    between atoms: O_18  and  C_19
REMARK    8  A    between atoms: C_21  and  O_35
REMARK    9  A    between atoms: C_23  and  O_34
REMARK   10  A    between atoms: C_25  and  O_33
REMARK   11  A    between atoms: C_27  and  C_30
REMARK   12  A    between atoms: C_30  and  O_32
REMARK   13  A    between atoms: O_37  and  C_38
REMARK   14  A    between atoms: C_40  and  O_53
REMARK   15  A    between atoms: C_42  and  O_52
REMARK   16  A    between atoms: C_44  and  O_51
REMARK   17  A    between atoms: C_46  and  C_49
REMARK   18  A    between atoms: C_49  and  O_50
REMARK   19  A    between atoms: O_53  and  C_54
REMARK   20  A    between atoms: C_56  and  O_69
REMARK   21  A    between atoms: C_58  and  O_68
REMARK   22  A    between atoms: C_60  and  O_67
REMARK   23  A    between atoms: C_62  and  C_65
REMARK   24  A    between atoms: C_65  and  O_66
REMARK                            x       y       z     vdW  Elec       q    Type
REMARK                         _______ _______ _______ _____ _____    ______ ____
ROOT
ATOM      1  C   UNL     1       5.645  -0.799  25.786  0.00  0.00    +0.181 A 
ATOM      2  O   UNL     1       4.576  -1.653  26.196  0.00  0.00    -0.451 OA
ATOM      3  C   UNL     1       4.458  -2.921  25.608  0.00  0.00    +0.147 A 
ATOM      4  C   UNL     1       5.220  -3.254  24.497  0.00  0.00    +0.109 A 
ATOM      5  C   UNL     1       5.156  -4.531  23.929  0.00  0.00    +0.135 A 
ATOM      6  C   UNL     1       4.305  -5.498  24.440  0.00  0.00    +0.092 A 
ATOM      7  C   UNL     1       3.453  -5.209  25.510  0.00  0.00    +0.131 A 
ATOM      8  C   UNL     1       6.070  -2.241  23.893  0.00  0.00    +0.238 A 
ATOM      9  O   UNL     1       6.394  -2.397  22.719  0.00  0.00    -0.283 OA
ATOM     10  C   UNL     1       3.549  -3.906  26.101  0.00  0.00    +0.093 A 
ATOM     11  C   UNL     1       6.454  -1.077  24.732  0.00  0.00    +0.214 A 
ENDROOT
BRANCH   1  13
ATOM     12  C   UNL     1       6.910   0.422  27.680  0.00  0.00    +0.015 A 
ATOM     13  C   UNL     1       5.942   0.420  26.637  0.00  0.00    +0.025 A 
ATOM     14  C   UNL     1       5.139   1.564  26.534  0.00  0.00    +0.060 A 
ATOM     15  C   UNL     1       5.250   2.611  27.468  0.00  0.00    +0.159 A 
ATOM     16  C   UNL     1       6.147   2.552  28.532  0.00  0.00    +0.158 A 
ATOM     17  C   UNL     1       7.005   1.470  28.632  0.00  0.00    +0.050 A 
BRANCH  16  18
ATOM     18  O   UNL     1       6.109   3.563  29.450  0.00  0.00    -0.503 OA
ATOM     19  H   UNL     1       7.014   3.731  29.765  0.00  0.00    +0.292 HD
ENDBRANCH  16  18
BRANCH  15  20
ATOM     20  O   UNL     1       4.433   3.697  27.352  0.00  0.00    -0.503 OA
ATOM     21  H   UNL     1       5.026   4.467  27.480  0.00  0.00    +0.292 HD
ENDBRANCH  15  20
ENDBRANCH   1  13
BRANCH   5  22
ATOM     22  O   UNL     1       5.909  -4.923  22.851  0.00  0.00    -0.506 OA
ATOM     23  H   UNL     1       5.386  -4.771  22.035  0.00  0.00    +0.292 HD
ENDBRANCH   5  22
BRANCH  11  24
ATOM     24  O   UNL     1       7.636  -0.372  24.518  0.00  0.00    -0.453 OA
BRANCH  24  25
ATOM     25  C   UNL     1       7.661   0.727  23.591  0.00  0.00    +0.340 C 
ATOM     26  O   UNL     1       8.164   0.266  22.334  0.00  0.00    -0.331 OA
ATOM     27  C   UNL     1       9.563   0.245  22.087  0.00  0.00    +0.179 C 
ATOM     28  C   UNL     1      10.232   1.541  22.542  0.00  0.00    +0.177 C 
ATOM     29  C   UNL     1       9.842   1.965  23.966  0.00  0.00    +0.180 C 
ATOM     30  C   UNL     1       8.343   1.947  24.293  0.00  0.00    +0.221 C 
BRANCH  29  31
ATOM     31  O   UNL     1      10.535   1.177  24.944  0.00  0.00    -0.386 OA
ATOM     32  H   UNL     1      11.486   1.135  24.690  0.00  0.00    +0.210 HD
ENDBRANCH  29  31
BRANCH  28  33
ATOM     33  O   UNL     1       9.937   2.522  21.544  0.00  0.00    -0.386 OA
ATOM     34  H   UNL     1       9.705   2.127  20.681  0.00  0.00    +0.210 HD
ENDBRANCH  28  33
BRANCH  27  35
ATOM     35  C   UNL     1      10.255  -1.041  22.561  0.00  0.00    +0.190 C 
BRANCH  35  36
ATOM     36  O   UNL     1       9.364  -2.145  22.637  0.00  0.00    -0.392 OA
ATOM     37  H   UNL     1       8.818  -2.109  21.823  0.00  0.00    +0.210 HD
ENDBRANCH  35  36
ENDBRANCH  27  35
BRANCH  30  38
ATOM     38  O   UNL     1       7.639   3.181  24.011  0.00  0.00    -0.337 OA
BRANCH  38  39
ATOM     39  C   UNL     1       6.878   3.254  22.789  0.00  0.00    +0.282 C 
ATOM     40  O   UNL     1       7.396   4.270  21.902  0.00  0.00    -0.341 OA
ATOM     41  C   UNL     1       7.253   5.656  22.303  0.00  0.00    +0.178 C 
ATOM     42  C   UNL     1       5.942   6.039  23.047  0.00  0.00    +0.177 C 
ATOM     43  C   UNL     1       5.318   4.883  23.830  0.00  0.00    +0.179 C 
ATOM     44  C   UNL     1       5.390   3.597  22.999  0.00  0.00    +0.201 C 
BRANCH  44  45
ATOM     45  O   UNL     1       4.698   3.777  21.746  0.00  0.00    -0.384 OA
ATOM     46  H   UNL     1       3.793   4.087  21.952  0.00  0.00    +0.210 HD
ENDBRANCH  44  45
BRANCH  43  47
ATOM     47  O   UNL     1       5.950   4.716  25.100  0.00  0.00    -0.386 OA
ATOM     48  H   UNL     1       6.232   3.772  25.178  0.00  0.00    +0.210 HD
ENDBRANCH  43  47
BRANCH  42  49
ATOM     49  O   UNL     1       4.989   6.517  22.076  0.00  0.00    -0.386 OA
ATOM     50  H   UNL     1       4.095   6.475  22.475  0.00  0.00    +0.210 HD
ENDBRANCH  42  49
BRANCH  41  51
ATOM     51  C   UNL     1       8.525   6.116  23.026  0.00  0.00    +0.190 C 
BRANCH  51  52
ATOM     52  O   UNL     1       9.541   5.125  22.998  0.00  0.00    -0.392 OA
ATOM     53  H   UNL     1       9.518   4.701  23.883  0.00  0.00    +0.210 HD
ENDBRANCH  51  52
ENDBRANCH  41  51
ENDBRANCH  38  39
ENDBRANCH  30  38
ENDBRANCH  24  25
ENDBRANCH  11  24
BRANCH   7  54
ATOM     54  O   UNL     1       2.529  -6.140  26.003  0.00  0.00    -0.461 OA
BRANCH  54  55
ATOM     55  C   UNL     1       2.988  -6.980  27.109  0.00  0.00    +0.340 C 
ATOM     56  O   UNL     1       1.901  -7.443  27.920  0.00  0.00    -0.322 OA
ATOM     57  C   UNL     1       1.527  -6.619  29.013  0.00  0.00    +0.261 C 
ATOM     58  C   UNL     1       2.680  -6.549  30.021  0.00  0.00    +0.185 C 
ATOM     59  C   UNL     1       3.905  -5.895  29.366  0.00  0.00    +0.180 C 
ATOM     60  C   UNL     1       4.216  -6.498  27.975  0.00  0.00    +0.214 C 
BRANCH  60  61
ATOM     61  O   UNL     1       5.017  -7.681  28.279  0.00  0.00    -0.383 OA
ATOM     62  H   UNL     1       4.858  -7.895  29.223  0.00  0.00    +0.210 HD
ENDBRANCH  60  61
BRANCH  59  63
ATOM     63  O   UNL     1       3.793  -4.476  29.365  0.00  0.00    -0.386 OA
ATOM     64  H   UNL     1       3.523  -4.162  28.477  0.00  0.00    +0.210 HD
ENDBRANCH  59  63
BRANCH  58  65
ATOM     65  O   UNL     1       3.012  -7.887  30.442  0.00  0.00    -0.386 OA
ATOM     66  H   UNL     1       2.649  -8.509  29.783  0.00  0.00    +0.210 HD
ENDBRANCH  58  65
BRANCH  57  67
ATOM     67  C   UNL     1       1.038  -5.184  28.735  0.00  0.00    +0.337 C 
ATOM     68  O   UNL     1       1.065  -4.275  29.554  0.00  0.00    -0.248 OA
BRANCH  67  69
ATOM     69  O   UNL     1       0.447  -5.025  27.529  0.00  0.00    -0.479 OA
ATOM     70  H   UNL     1       0.158  -4.118  27.315  0.00  0.00    +0.295 HD
ENDBRANCH  67  69
ENDBRANCH  57  67
ENDBRANCH  54  55
ENDBRANCH   7  54
TORSDOF 24
ENDMDL
MODEL 2
REMARK VINA RESULT:      -6.6      2.301      8.319
REMARK  Name = 
REMARK  24 active torsions:
REMARK  status: ('A' for Active; 'I' for Inactive)
REMARK    1  A    between atoms: C_3  and  O_71
REMARK    2  A    between atoms: C_4  and  O_70
REMARK    3  A    between atoms: C_6  and  C_7
REMARK    4  A    between atoms: C_8  and  O_37
REMARK    5  A    between atoms: C_12  and  O_36
REMARK    6  A    between atoms: C_14  and  O_18
REMARK    7  A    between atoms: O_18  and  C_19
REMARK    8  A    between atoms: C_21  and  O_35
REMARK    9  A    between atoms: C_23  and  O_34
REMARK   10  A    between atoms: C_25  and  O_33
REMARK   11  A    between atoms: C_27  and  C_30
REMARK   12  A    between atoms: C_30  and  O_32
REMARK   13  A    between atoms: O_37  and  C_38
REMARK   14  A    between atoms: C_40  and  O_53
REMARK   15  A    between atoms: C_42  and  O_52
REMARK   16  A    between atoms: C_44  and  O_51
REMARK   17  A    between atoms: C_46  and  C_49
REMARK   18  A    between atoms: C_49  and  O_50
REMARK   19  A    between atoms: O_53  and  C_54
REMARK   20  A    between atoms: C_56  and  O_69
REMARK   21  A    between atoms: C_58  and  O_68
REMARK   22  A    between atoms: C_60  and  O_67
REMARK   23  A    between atoms: C_62  and  C_65
REMARK   24  A    between atoms: C_65  and  O_66
REMARK                            x       y       z     vdW  Elec       q    Type
REMARK                         _______ _______ _______ _____ _____    ______ ____
ROOT
ATOM      1  C   UNL     1       4.309  -1.153  26.725  0.00  0.00    +0.181 A 
ATOM      2  O   UNL     1       3.581   0.073  26.632  0.00  0.00    -0.451 OA
ATOM      3  C   UNL     1       4.290   1.267  26.437  0.00  0.00    +0.147 A 
ATOM      4  C   UNL     1       5.673   1.292  26.553  0.00  0.00    +0.109 A 
ATOM      5  C   UNL     1       6.401   2.461  26.309  0.00  0.00    +0.135 A 
ATOM      6  C   UNL     1       5.762   3.644  25.971  0.00  0.00    +0.092 A 
ATOM      7  C   UNL     1       4.367   3.710  25.909  0.00  0.00    +0.131 A 
ATOM      8  C   UNL     1       6.367   0.087  26.977  0.00  0.00    +0.238 A 
ATOM      9  O   UNL     1       7.483   0.219  27.473  0.00  0.00    -0.283 OA
ATOM     10  C   UNL     1       3.634   2.499  26.134  0.00  0.00    +0.093 A 
ATOM     11  C   UNL     1       5.663  -1.208  26.806  0.00  0.00    +0.214 A 
ENDROOT
BRANCH   1  13
ATOM     12  C   UNL     1       3.247  -3.276  27.747  0.00  0.00    +0.015 A 
ATOM     13  C   UNL     1       3.526  -2.448  26.624  0.00  0.00    +0.025 A 
ATOM     14  C   UNL     1       3.186  -2.969  25.368  0.00  0.00    +0.060 A 
ATOM     15  C   UNL     1       2.669  -4.273  25.244  0.00  0.00    +0.159 A 
ATOM     16  C   UNL     1       2.484  -5.097  26.350  0.00  0.00    +0.158 A 
ATOM     17  C   UNL     1       2.745  -4.598  27.615  0.00  0.00    +0.050 A 
BRANCH  16  18
ATOM     18  O   UNL     1       2.081  -6.383  26.123  0.00  0.00    -0.503 OA
ATOM     19  H   UNL     1       2.683  -6.789  25.477  0.00  0.00    +0.292 HD
ENDBRANCH  16  18
BRANCH  15  20
ATOM     20  O   UNL     1       2.375  -4.757  24.003  0.00  0.00    -0.503 OA
ATOM     21  H   UNL     1       2.638  -5.701  24.038  0.00  0.00    +0.292 HD
ENDBRANCH  15  20
ENDBRANCH   1  13
BRANCH   5  22
ATOM     22  O   UNL     1       7.769   2.534  26.381  0.00  0.00    -0.506 OA
ATOM     23  H   UNL     1       8.067   3.313  25.864  0.00  0.00    +0.292 HD
ENDBRANCH   5  22
BRANCH  11  24
ATOM     24  O   UNL     1       6.352  -2.406  26.631  0.00  0.00    -0.453 OA
BRANCH  24  25
ATOM     25  C   UNL     1       6.895  -2.742  25.343  0.00  0.00    +0.340 C 
ATOM     26  O   UNL     1       6.326  -3.979  24.905  0.00  0.00    -0.331 OA
ATOM     27  C   UNL     1       6.916  -5.214  25.289  0.00  0.00    +0.179 C 
ATOM     28  C   UNL     1       8.434  -5.183  25.130  0.00  0.00    +0.177 C 
ATOM     29  C   UNL     1       9.092  -3.942  25.753  0.00  0.00    +0.180 C 
ATOM     30  C   UNL     1       8.450  -2.591  25.410  0.00  0.00    +0.221 C 
BRANCH  29  31
ATOM     31  O   UNL     1       9.169  -4.064  27.179  0.00  0.00    -0.386 OA
ATOM     32  H   UNL     1      10.109  -3.946  27.450  0.00  0.00    +0.210 HD
ENDBRANCH  29  31
BRANCH  28  33
ATOM     33  O   UNL     1       8.700  -5.340  23.733  0.00  0.00    -0.386 OA
ATOM     34  H   UNL     1       7.964  -5.027  23.170  0.00  0.00    +0.210 HD
ENDBRANCH  28  33
BRANCH  27  35
ATOM     35  C   UNL     1       6.417  -5.743  26.641  0.00  0.00    +0.190 C 
BRANCH  35  36
ATOM     36  O   UNL     1       7.477  -6.162  27.489  0.00  0.00    -0.392 OA
ATOM     37  H   UNL     1       8.063  -5.384  27.595  0.00  0.00    +0.210 HD
ENDBRANCH  35  36
ENDBRANCH  27  35
BRANCH  30  38
ATOM     38  O   UNL     1       8.971  -1.950  24.220  0.00  0.00    -0.337 OA
BRANCH  38  39
ATOM     39  C   UNL     1       9.628  -0.676  24.379  0.00  0.00    +0.282 C 
ATOM     40  O   UNL     1       8.674   0.409  24.427  0.00  0.00    -0.341 OA
ATOM     41  C   UNL     1       7.938   0.719  23.218  0.00  0.00    +0.178 C 
ATOM     42  C   UNL     1       8.708   0.581  21.874  0.00  0.00    +0.177 C 
ATOM     43  C   UNL     1       9.837  -0.451  21.913  0.00  0.00    +0.179 C 
ATOM     44  C   UNL     1      10.602  -0.329  23.236  0.00  0.00    +0.201 C 
BRANCH  44  45
ATOM     45  O   UNL     1      11.142   1.001  23.376  0.00  0.00    -0.384 OA
ATOM     46  H   UNL     1      11.597   1.224  22.538  0.00  0.00    +0.210 HD
ENDBRANCH  44  45
BRANCH  43  47
ATOM     47  O   UNL     1       9.337  -1.774  21.724  0.00  0.00    -0.386 OA
ATOM     48  H   UNL     1       8.357  -1.751  21.852  0.00  0.00    +0.210 HD
ENDBRANCH  43  47
BRANCH  42  49
ATOM     49  O   UNL     1       9.260   1.868  21.529  0.00  0.00    -0.386 OA
ATOM     50  H   UNL     1      10.170   1.733  21.192  0.00  0.00    +0.210 HD
ENDBRANCH  42  49
BRANCH  41  51
ATOM     51  C   UNL     1       6.592  -0.017  23.232  0.00  0.00    +0.190 C 
BRANCH  51  52
ATOM     52  O   UNL     1       6.625  -1.199  22.446  0.00  0.00    -0.392 OA
ATOM     53  H   UNL     1       5.754  -1.631  22.588  0.00  0.00    +0.210 HD
ENDBRANCH  51  52
ENDBRANCH  41  51
ENDBRANCH  38  39
ENDBRANCH  30  38
ENDBRANCH  24  25
ENDBRANCH  11  24
BRANCH   7  54
ATOM     54  O   UNL     1       3.687   4.906  25.642  0.00  0.00    -0.461 OA
BRANCH  54  55
ATOM     55  C   UNL     1       3.872   5.469  24.304  0.00  0.00    +0.340 C 
ATOM     56  O   UNL     1       2.735   6.228  23.878  0.00  0.00    -0.322 OA
ATOM     57  C   UNL     1       1.720   5.520  23.182  0.00  0.00    +0.261 C 
ATOM     58  C   UNL     1       2.279   4.996  21.855  0.00  0.00    +0.185 C 
ATOM     59  C   UNL     1       3.415   4.000  22.125  0.00  0.00    +0.180 C 
ATOM     60  C   UNL     1       4.433   4.541  23.158  0.00  0.00    +0.214 C 
BRANCH  60  61
ATOM     61  O   UNL     1       5.344   5.354  22.356  0.00  0.00    -0.383 OA
ATOM     62  H   UNL     1       6.107   4.781  22.127  0.00  0.00    +0.210 HD
ENDBRANCH  60  61
BRANCH  59  63
ATOM     63  O   UNL     1       2.906   2.709  22.444  0.00  0.00    -0.386 OA
ATOM     64  H   UNL     1       2.173   2.788  23.090  0.00  0.00    +0.210 HD
ENDBRANCH  59  63
BRANCH  58  65
ATOM     65  O   UNL     1       2.782   6.109  21.089  0.00  0.00    -0.386 OA
ATOM     66  H   UNL     1       3.459   6.562  21.627  0.00  0.00    +0.210 HD
ENDBRANCH  58  65
BRANCH  57  67
ATOM     67  C   UNL     1       0.995   4.362  23.894  0.00  0.00    +0.337 C 
ATOM     68  O   UNL     1       0.448   3.431  23.317  0.00  0.00    -0.248 OA
BRANCH  67  69
ATOM     69  O   UNL     1       0.894   4.512  25.235  0.00  0.00    -0.479 OA
ATOM     70  H   UNL     1       0.572   5.381  25.540  0.00  0.00    +0.295 HD
ENDBRANCH  67  69
ENDBRANCH  57  67
ENDBRANCH  54  55
ENDBRANCH   7  54
TORSDOF 24
ENDMDL
MODEL 3
REMARK VINA RESULT:      -6.5      2.160      9.550
REMARK  Name = 
REMARK  24 active torsions:
REMARK  status: ('A' for Active; 'I' for Inactive)
REMARK    1  A    between atoms: C_3  and  O_71
REMARK    2  A    between atoms: C_4  and  O_70
REMARK    3  A    between atoms: C_6  and  C_7
REMARK    4  A    between atoms: C_8  and  O_37
REMARK    5  A    between atoms: C_12  and  O_36
REMARK    6  A    between atoms: C_14  and  O_18
REMARK    7  A    between atoms: O_18  and  C_19
REMARK    8  A    between atoms: C_21  and  O_35
REMARK    9  A    between atoms: C_23  and  O_34
REMARK   10  A    between atoms: C_25  and  O_33
REMARK   11  A    between atoms: C_27  and  C_30
REMARK   12  A    between atoms: C_30  and  O_32
REMARK   13  A    between atoms: O_37  and  C_38
REMARK   14  A    between atoms: C_40  and  O_53
REMARK   15  A    between atoms: C_42  and  O_52
REMARK   16  A    between atoms: C_44  and  O_51
REMARK   17  A    between atoms: C_46  and  C_49
REMARK   18  A    between atoms: C_49  and  O_50
REMARK   19  A    between atoms: O_53  and  C_54
REMARK   20  A    between atoms: C_56  and  O_69
REMARK   21  A    between atoms: C_58  and  O_68
REMARK   22  A    between atoms: C_60  and  O_67
REMARK   23  A    between atoms: C_62  and  C_65
REMARK   24  A    between atoms: C_65  and  O_66
REMARK                            x       y       z     vdW  Elec       q    Type
REMARK                         _______ _______ _______ _____ _____    ______ ____
ROOT
ATOM      1  C   UNL     1       3.392  -1.945  26.544  0.00  0.00    +0.181 A 
ATOM      2  O   UNL     1       3.789  -0.700  25.968  0.00  0.00    -0.451 OA
ATOM      3  C   UNL     1       4.621   0.154  26.708  0.00  0.00    +0.147 A 
ATOM      4  C   UNL     1       4.871  -0.097  28.050  0.00  0.00    +0.109 A 
ATOM      5  C   UNL     1       5.739   0.711  28.790  0.00  0.00    +0.135 A 
ATOM      6  C   UNL     1       6.357   1.811  28.215  0.00  0.00    +0.092 A 
ATOM      7  C   UNL     1       6.093   2.167  26.890  0.00  0.00    +0.131 A 
ATOM      8  C   UNL     1       4.183  -1.199  28.702  0.00  0.00    +0.238 A 
ATOM      9  O   UNL     1       4.075  -1.158  29.925  0.00  0.00    -0.283 OA
ATOM     10  C   UNL     1       5.223   1.315  26.134  0.00  0.00    +0.093 A 
ATOM     11  C   UNL     1       3.634  -2.275  27.838  0.00  0.00    +0.214 A 
ENDROOT
BRANCH   1  13
ATOM     12  C   UNL     1       1.459  -3.507  25.836  0.00  0.00    +0.015 A 
ATOM     13  C   UNL     1       2.763  -2.977  25.629  0.00  0.00    +0.025 A 
ATOM     14  C   UNL     1       3.525  -3.581  24.619  0.00  0.00    +0.060 A 
ATOM     15  C   UNL     1       3.035  -4.698  23.915  0.00  0.00    +0.159 A 
ATOM     16  C   UNL     1       1.789  -5.252  24.195  0.00  0.00    +0.158 A 
ATOM     17  C   UNL     1       0.977  -4.646  25.138  0.00  0.00    +0.050 A 
BRANCH  16  18
ATOM     18  O   UNL     1       1.443  -6.399  23.538  0.00  0.00    -0.503 OA
ATOM     19  H   UNL     1       2.189  -6.674  22.977  0.00  0.00    +0.292 HD
ENDBRANCH  16  18
BRANCH  15  20
ATOM     20  O   UNL     1       3.816  -5.277  22.958  0.00  0.00    -0.503 OA
ATOM     21  H   UNL     1       4.494  -5.775  23.461  0.00  0.00    +0.292 HD
ENDBRANCH  15  20
ENDBRANCH   1  13
BRANCH   5  22
ATOM     22  O   UNL     1       6.045   0.491  30.110  0.00  0.00    -0.506 OA
ATOM     23  H   UNL     1       5.853   1.310  30.615  0.00  0.00    +0.292 HD
ENDBRANCH   5  22
BRANCH  11  24
ATOM     24  O   UNL     1       3.474  -3.580  28.296  0.00  0.00    -0.453 OA
BRANCH  24  25
ATOM     25  C   UNL     1       4.099  -4.670  27.597  0.00  0.00    +0.340 C 
ATOM     26  O   UNL     1       3.360  -5.869  27.845  0.00  0.00    -0.331 OA
ATOM     27  C   UNL     1       3.644  -6.661  28.990  0.00  0.00    +0.179 C 
ATOM     28  C   UNL     1       5.147  -6.855  29.178  0.00  0.00    +0.177 C 
ATOM     29  C   UNL     1       5.950  -5.548  29.092  0.00  0.00    +0.180 C 
ATOM     30  C   UNL     1       5.633  -4.635  27.901  0.00  0.00    +0.221 C 
BRANCH  29  31
ATOM     31  O   UNL     1       5.821  -4.787  30.301  0.00  0.00    -0.386 OA
ATOM     32  H   UNL     1       6.452  -5.152  30.965  0.00  0.00    +0.210 HD
ENDBRANCH  29  31
BRANCH  28  33
ATOM     33  O   UNL     1       5.552  -7.846  28.229  0.00  0.00    -0.386 OA
ATOM     34  H   UNL     1       6.522  -7.955  28.185  0.00  0.00    +0.210 HD
ENDBRANCH  28  33
BRANCH  27  35
ATOM     35  C   UNL     1       2.885  -6.221  30.250  0.00  0.00    +0.190 C 
BRANCH  35  36
ATOM     36  O   UNL     1       1.745  -5.429  29.953  0.00  0.00    -0.392 OA
ATOM     37  H   UNL     1       1.259  -5.907  29.249  0.00  0.00    +0.210 HD
ENDBRANCH  35  36
ENDBRANCH  27  35
BRANCH  30  38
ATOM     38  O   UNL     1       6.415  -4.889  26.709  0.00  0.00    -0.337 OA
BRANCH  38  39
ATOM     39  C   UNL     1       7.842  -5.031  26.861  0.00  0.00    +0.282 C 
ATOM     40  O   UNL     1       8.487  -3.748  27.023  0.00  0.00    -0.341 OA
ATOM     41  C   UNL     1       8.500  -2.848  25.887  0.00  0.00    +0.178 C 
ATOM     42  C   UNL     1       8.668  -3.495  24.482  0.00  0.00    +0.177 C 
ATOM     43  C   UNL     1       8.138  -4.928  24.396  0.00  0.00    +0.179 C 
ATOM     44  C   UNL     1       8.534  -5.701  25.658  0.00  0.00    +0.201 C 
BRANCH  44  45
ATOM     45  O   UNL     1       9.969  -5.712  25.803  0.00  0.00    -0.384 OA
ATOM     46  H   UNL     1      10.302  -4.844  25.497  0.00  0.00    +0.210 HD
ENDBRANCH  44  45
BRANCH  43  47
ATOM     47  O   UNL     1       6.724  -4.946  24.200  0.00  0.00    -0.386 OA
ATOM     48  H   UNL     1       6.548  -5.238  23.272  0.00  0.00    +0.210 HD
ENDBRANCH  43  47
BRANCH  42  49
ATOM     49  O   UNL     1      10.070  -3.492  24.142  0.00  0.00    -0.386 OA
ATOM     50  H   UNL     1      10.150  -3.459  23.166  0.00  0.00    +0.210 HD
ENDBRANCH  42  49
BRANCH  41  51
ATOM     51  C   UNL     1       7.311  -1.884  25.980  0.00  0.00    +0.190 C 
BRANCH  51  52
ATOM     52  O   UNL     1       6.580  -1.822  24.765  0.00  0.00    -0.392 OA
ATOM     53  H   UNL     1       5.907  -2.534  24.829  0.00  0.00    +0.210 HD
ENDBRANCH  51  52
ENDBRANCH  41  51
ENDBRANCH  38  39
ENDBRANCH  30  38
ENDBRANCH  24  25
ENDBRANCH  11  24
BRANCH   7  54
ATOM     54  O   UNL     1       6.644   3.313  26.300  0.00  0.00    -0.461 OA
BRANCH  54  55
ATOM     55  C   UNL     1       7.868   3.114  25.523  0.00  0.00    +0.340 C 
ATOM     56  O   UNL     1       8.049   4.135  24.535  0.00  0.00    -0.322 OA
ATOM     57  C   UNL     1       7.480   3.892  23.257  0.00  0.00    +0.261 C 
ATOM     58  C   UNL     1       8.168   2.686  22.610  0.00  0.00    +0.185 C 
ATOM     59  C   UNL     1       7.919   1.429  23.455  0.00  0.00    +0.180 C 
ATOM     60  C   UNL     1       8.187   1.675  24.960  0.00  0.00    +0.214 C 
BRANCH  60  61
ATOM     61  O   UNL     1       9.628   1.473  25.094  0.00  0.00    -0.383 OA
ATOM     62  H   UNL     1       9.831   0.602  24.690  0.00  0.00    +0.210 HD
ENDBRANCH  60  61
BRANCH  59  63
ATOM     63  O   UNL     1       6.638   0.870  23.185  0.00  0.00    -0.386 OA
ATOM     64  H   UNL     1       6.722  -0.088  23.000  0.00  0.00    +0.210 HD
ENDBRANCH  59  63
BRANCH  58  65
ATOM     65  O   UNL     1       9.584   2.944  22.530  0.00  0.00    -0.386 OA
ATOM     66  H   UNL     1       9.967   2.320  21.884  0.00  0.00    +0.210 HD
ENDBRANCH  58  65
BRANCH  57  67
ATOM     67  C   UNL     1       5.956   3.702  23.142  0.00  0.00    +0.337 C 
ATOM     68  O   UNL     1       5.400   3.125  22.215  0.00  0.00    -0.248 OA
BRANCH  67  69
ATOM     69  O   UNL     1       5.244   4.340  24.099  0.00  0.00    -0.479 OA
ATOM     70  H   UNL     1       4.841   3.769  24.779  0.00  0.00    +0.295 HD
ENDBRANCH  67  69
ENDBRANCH  57  67
ENDBRANCH  54  55
ENDBRANCH   7  54
TORSDOF 24
ENDMDL
MODEL 4
REMARK VINA RESULT:      -5.6      2.705      5.913
REMARK  Name = 
REMARK  24 active torsions:
REMARK  status: ('A' for Active; 'I' for Inactive)
REMARK    1  A    between atoms: C_3  and  O_71
REMARK    2  A    between atoms: C_4  and  O_70
REMARK    3  A    between atoms: C_6  and  C_7
REMARK    4  A    between atoms: C_8  and  O_37
REMARK    5  A    between atoms: C_12  and  O_36
REMARK    6  A    between atoms: C_14  and  O_18
REMARK    7  A    between atoms: O_18  and  C_19
REMARK    8  A    between atoms: C_21  and  O_35
REMARK    9  A    between atoms: C_23  and  O_34
REMARK   10  A    between atoms: C_25  and  O_33
REMARK   11  A    between atoms: C_27  and  C_30
REMARK   12  A    between atoms: C_30  and  O_32
REMARK   13  A    between atoms: O_37  and  C_38
REMARK   14  A    between atoms: C_40  and  O_53
REMARK   15  A    between atoms: C_42  and  O_52
REMARK   16  A    between atoms: C_44  and  O_51
REMARK   17  A    between atoms: C_46  and  C_49
REMARK   18  A    between atoms: C_49  and  O_50
REMARK   19  A    between atoms: O_53  and  C_54
REMARK   20  A    between atoms: C_56  and  O_69
REMARK   21  A    between atoms: C_58  and  O_68
REMARK   22  A    between atoms: C_60  and  O_67
REMARK   23  A    between atoms: C_62  and  C_65
REMARK   24  A    between atoms: C_65  and  O_66
REMARK                            x       y       z     vdW  Elec       q    Type
REMARK                         _______ _______ _______ _____ _____    ______ ____
ROOT
ATOM      1  C   UNL     1       6.247   1.765  22.979  0.00  0.00    +0.181 A 
ATOM      2  O   UNL     1       6.160   0.342  22.884  0.00  0.00    -0.451 OA
ATOM      3  C   UNL     1       7.321  -0.421  23.079  0.00  0.00    +0.147 A 
ATOM      4  C   UNL     1       8.564   0.193  23.140  0.00  0.00    +0.109 A 
ATOM      5  C   UNL     1       9.726  -0.545  23.387  0.00  0.00    +0.135 A 
ATOM      6  C   UNL     1       9.678  -1.921  23.551  0.00  0.00    +0.092 A 
ATOM      7  C   UNL     1       8.471  -2.614  23.427  0.00  0.00    +0.131 A 
ATOM      8  C   UNL     1       8.658   1.624  22.901  0.00  0.00    +0.238 A 
ATOM      9  O   UNL     1       9.745   2.070  22.544  0.00  0.00    -0.283 OA
ATOM     10  C   UNL     1       7.283  -1.843  23.202  0.00  0.00    +0.093 A 
ATOM     11  C   UNL     1       7.425   2.432  23.076  0.00  0.00    +0.214 A 
ENDROOT
BRANCH   1  13
ATOM     12  C   UNL     1       4.489   3.414  22.046  0.00  0.00    +0.015 A 
ATOM     13  C   UNL     1       4.951   2.547  23.075  0.00  0.00    +0.025 A 
ATOM     14  C   UNL     1       4.230   2.570  24.277  0.00  0.00    +0.060 A 
ATOM     15  C   UNL     1       3.160   3.465  24.459  0.00  0.00    +0.159 A 
ATOM     16  C   UNL     1       2.779   4.366  23.468  0.00  0.00    +0.158 A 
ATOM     17  C   UNL     1       3.422   4.330  22.242  0.00  0.00    +0.050 A 
BRANCH  16  18
ATOM     18  O   UNL     1       1.801   5.270  23.772  0.00  0.00    -0.503 OA
ATOM     19  H   UNL     1       0.986   4.786  23.990  0.00  0.00    +0.292 HD
ENDBRANCH  16  18
BRANCH  15  20
ATOM     20  O   UNL     1       2.498   3.479  25.653  0.00  0.00    -0.503 OA
ATOM     21  H   UNL     1       2.923   2.768  26.178  0.00  0.00    +0.292 HD
ENDBRANCH  15  20
ENDBRANCH   1  13
BRANCH   5  22
ATOM     22  O   UNL     1      10.975   0.014  23.487  0.00  0.00    -0.506 OA
ATOM     23  H   UNL     1      10.876   0.988  23.552  0.00  0.00    +0.292 HD
ENDBRANCH   5  22
BRANCH  11  24
ATOM     24  O   UNL     1       7.469   3.779  23.428  0.00  0.00    -0.453 OA
BRANCH  24  25
ATOM     25  C   UNL     1       6.877   4.220  24.662  0.00  0.00    +0.340 C 
ATOM     26  O   UNL     1       6.179   5.448  24.432  0.00  0.00    -0.331 OA
ATOM     27  C   UNL     1       6.867   6.688  24.513  0.00  0.00    +0.179 C 
ATOM     28  C   UNL     1       7.764   6.752  25.747  0.00  0.00    +0.177 C 
ATOM     29  C   UNL     1       8.659   5.515  25.920  0.00  0.00    +0.180 C 
ATOM     30  C   UNL     1       7.966   4.153  25.782  0.00  0.00    +0.221 C 
BRANCH  29  31
ATOM     31  O   UNL     1       9.771   5.557  25.017  0.00  0.00    -0.386 OA
ATOM     32  H   UNL     1      10.575   5.254  25.500  0.00  0.00    +0.210 HD
ENDBRANCH  29  31
BRANCH  28  33
ATOM     33  O   UNL     1       6.904   7.006  26.862  0.00  0.00    -0.386 OA
ATOM     34  H   UNL     1       6.017   6.610  26.754  0.00  0.00    +0.210 HD
ENDBRANCH  28  33
BRANCH  27  35
ATOM     35  C   UNL     1       7.542   7.108  23.199  0.00  0.00    +0.190 C 
BRANCH  35  36
ATOM     36  O   UNL     1       7.007   6.433  22.069  0.00  0.00    -0.392 OA
ATOM     37  H   UNL     1       7.775   6.189  21.512  0.00  0.00    +0.210 HD
ENDBRANCH  35  36
ENDBRANCH  27  35
BRANCH  30  38
ATOM     38  O   UNL     1       7.426   3.613  27.013  0.00  0.00    -0.337 OA
BRANCH  38  39
ATOM     39  C   UNL     1       6.688   2.377  26.936  0.00  0.00    +0.282 C 
ATOM     40  O   UNL     1       5.270   2.594  27.112  0.00  0.00    -0.341 OA
ATOM     41  C   UNL     1       4.807   3.016  28.419  0.00  0.00    +0.178 C 
ATOM     42  C   UNL     1       5.536   2.408  29.651  0.00  0.00    +0.177 C 
ATOM     43  C   UNL     1       6.990   2.017  29.375  0.00  0.00    +0.179 C 
ATOM     44  C   UNL     1       7.091   1.341  28.004  0.00  0.00    +0.201 C 
BRANCH  44  45
ATOM     45  O   UNL     1       6.247   0.172  27.963  0.00  0.00    -0.384 OA
ATOM     46  H   UNL     1       5.358   0.440  28.272  0.00  0.00    +0.210 HD
ENDBRANCH  44  45
BRANCH  43  47
ATOM     47  O   UNL     1       7.856   3.148  29.461  0.00  0.00    -0.386 OA
ATOM     48  H   UNL     1       7.618   3.771  28.732  0.00  0.00    +0.210 HD
ENDBRANCH  43  47
BRANCH  42  49
ATOM     49  O   UNL     1       4.809   1.240  30.083  0.00  0.00    -0.386 OA
ATOM     50  H   UNL     1       5.170   0.461  29.611  0.00  0.00    +0.210 HD
ENDBRANCH  42  49
BRANCH  41  51
ATOM     51  C   UNL     1       4.704   4.546  28.460  0.00  0.00    +0.190 C 
BRANCH  51  52
ATOM     52  O   UNL     1       4.659   5.110  27.158  0.00  0.00    -0.392 OA
ATOM     53  H   UNL     1       3.848   4.746  26.743  0.00  0.00    +0.210 HD
ENDBRANCH  51  52
ENDBRANCH  41  51
ENDBRANCH  38  39
ENDBRANCH  30  38
ENDBRANCH  24  25
ENDBRANCH  11  24
BRANCH   7  54
ATOM     54  O   UNL     1       8.399  -4.011  23.514  0.00  0.00    -0.461 OA
BRANCH  54  55
ATOM     55  C   UNL     1       8.606  -4.586  24.844  0.00  0.00    +0.340 C 
ATOM     56  O   UNL     1       7.858  -5.793  25.029  0.00  0.00    -0.322 OA
ATOM     57  C   UNL     1       6.545  -5.656  25.553  0.00  0.00    +0.261 C 
ATOM     58  C   UNL     1       6.618  -5.094  26.977  0.00  0.00    +0.185 C 
ATOM     59  C   UNL     1       7.239  -3.691  26.952  0.00  0.00    +0.180 C 
ATOM     60  C   UNL     1       8.533  -3.639  26.104  0.00  0.00    +0.214 C 
BRANCH  60  61
ATOM     61  O   UNL     1       9.575  -4.078  27.029  0.00  0.00    -0.383 OA
ATOM     62  H   UNL     1       9.506  -5.055  27.089  0.00  0.00    +0.210 HD
ENDBRANCH  60  61
BRANCH  59  63
ATOM     63  O   UNL     1       6.277  -2.706  26.590  0.00  0.00    -0.386 OA
ATOM     64  H   UNL     1       6.636  -1.810  26.754  0.00  0.00    +0.210 HD
ENDBRANCH  59  63
BRANCH  58  65
ATOM     65  O   UNL     1       7.431  -5.971  27.782  0.00  0.00    -0.386 OA
ATOM     66  H   UNL     1       7.805  -6.656  27.196  0.00  0.00    +0.210 HD
ENDBRANCH  58  65
BRANCH  57  67
ATOM     67  C   UNL     1       5.507  -4.838  24.761  0.00  0.00    +0.337 C 
ATOM     68  O   UNL     1       4.534  -4.289  25.261  0.00  0.00    -0.248 OA
BRANCH  67  69
ATOM     69  O   UNL     1       5.681  -4.873  23.419  0.00  0.00    -0.479 OA
ATOM     70  H   UNL     1       6.605  -4.827  23.111  0.00  0.00    +0.295 HD
ENDBRANCH  67  69
ENDBRANCH  57  67
ENDBRANCH  54  55
ENDBRANCH   7  54
TORSDOF 24
ENDMDL
MODEL 5
REMARK VINA RESULT:      -5.5      2.331      5.344
REMARK  Name = 
REMARK  24 active torsions:
REMARK  status: ('A' for Active; 'I' for Inactive)
REMARK    1  A    between atoms: C_3  and  O_71
REMARK    2  A    between atoms: C_4  and  O_70
REMARK    3  A    between atoms: C_6  and  C_7
REMARK    4  A    between atoms: C_8  and  O_37
REMARK    5  A    between atoms: C_12  and  O_36
REMARK    6  A    between atoms: C_14  and  O_18
REMARK    7  A    between atoms: O_18  and  C_19
REMARK    8  A    between atoms: C_21  and  O_35
REMARK    9  A    between atoms: C_23  and  O_34
REMARK   10  A    between atoms: C_25  and  O_33
REMARK   11  A    between atoms: C_27  and  C_30
REMARK   12  A    between atoms: C_30  and  O_32
REMARK   13  A    between atoms: O_37  and  C_38
REMARK   14  A    between atoms: C_40  and  O_53
REMARK   15  A    between atoms: C_42  and  O_52
REMARK   16  A    between atoms: C_44  and  O_51
REMARK   17  A    between atoms: C_46  and  C_49
REMARK   18  A    between atoms: C_49  and  O_50
REMARK   19  A    between atoms: O_53  and  C_54
REMARK   20  A    between atoms: C_56  and  O_69
REMARK   21  A    between atoms: C_58  and  O_68
REMARK   22  A    between atoms: C_60  and  O_67
REMARK   23  A    between atoms: C_62  and  C_65
REMARK   24  A    between atoms: C_65  and  O_66
REMARK                            x       y       z     vdW  Elec       q    Type
REMARK                         _______ _______ _______ _____ _____    ______ ____
ROOT
ATOM      1  C   UNL     1       7.635   0.231  25.605  0.00  0.00    +0.181 A 
ATOM      2  O   UNL     1       7.248  -1.144  25.638  0.00  0.00    -0.451 OA
ATOM      3  C   UNL     1       6.163  -1.522  26.443  0.00  0.00    +0.147 A 
ATOM      4  C   UNL     1       5.619  -0.629  27.355  0.00  0.00    +0.109 A 
ATOM      5  C   UNL     1       4.504  -0.969  28.128  0.00  0.00    +0.135 A 
ATOM      6  C   UNL     1       3.922  -2.223  28.029  0.00  0.00    +0.092 A 
ATOM      7  C   UNL     1       4.463  -3.198  27.187  0.00  0.00    +0.131 A 
ATOM      8  C   UNL     1       6.250   0.669  27.535  0.00  0.00    +0.238 A 
ATOM      9  O   UNL     1       6.044   1.259  28.593  0.00  0.00    -0.283 OA
ATOM     10  C   UNL     1       5.588  -2.828  26.380  0.00  0.00    +0.093 A 
ATOM     11  C   UNL     1       7.120   1.168  26.441  0.00  0.00    +0.214 A 
ENDROOT
BRANCH   1  13
ATOM     12  C   UNL     1       9.901   1.157  24.775  0.00  0.00    +0.015 A 
ATOM     13  C   UNL     1       8.590   0.669  24.511  0.00  0.00    +0.025 A 
ATOM     14  C   UNL     1       8.146   0.766  23.186  0.00  0.00    +0.060 A 
ATOM     15  C   UNL     1       8.940   1.386  22.202  0.00  0.00    +0.159 A 
ATOM     16  C   UNL     1      10.185   1.933  22.502  0.00  0.00    +0.158 A 
ATOM     17  C   UNL     1      10.689   1.800  23.784  0.00  0.00    +0.050 A 
BRANCH  16  18
ATOM     18  O   UNL     1      10.837   2.610  21.510  0.00  0.00    -0.503 OA
ATOM     19  H   UNL     1      10.175   3.028  20.932  0.00  0.00    +0.292 HD
ENDBRANCH  16  18
BRANCH  15  20
ATOM     20  O   UNL     1       8.464   1.487  20.928  0.00  0.00    -0.503 OA
ATOM     21  H   UNL     1       9.237   1.286  20.359  0.00  0.00    +0.292 HD
ENDBRANCH  15  20
ENDBRANCH   1  13
BRANCH   5  22
ATOM     22  O   UNL     1       3.909  -0.115  29.022  0.00  0.00    -0.506 OA
ATOM     23  H   UNL     1       3.035  -0.485  29.271  0.00  0.00    +0.292 HD
ENDBRANCH   5  22
BRANCH  11  24
ATOM     24  O   UNL     1       7.315   2.528  26.215  0.00  0.00    -0.453 OA
BRANCH  24  25
ATOM     25  C   UNL     1       6.382   3.264  25.405  0.00  0.00    +0.340 C 
ATOM     26  O   UNL     1       7.088   3.877  24.322  0.00  0.00    -0.331 OA
ATOM     27  C   UNL     1       7.690   5.153  24.491  0.00  0.00    +0.179 C 
ATOM     28  C   UNL     1       6.751   6.127  25.199  0.00  0.00    +0.177 C 
ATOM     29  C   UNL     1       6.114   5.549  26.472  0.00  0.00    +0.180 C 
ATOM     30  C   UNL     1       5.502   4.148  26.348  0.00  0.00    +0.221 C 
BRANCH  29  31
ATOM     31  O   UNL     1       7.051   5.547  27.558  0.00  0.00    -0.386 OA
ATOM     32  H   UNL     1       7.582   4.718  27.506  0.00  0.00    +0.210 HD
ENDBRANCH  29  31
BRANCH  28  33
ATOM     33  O   UNL     1       5.801   6.559  24.221  0.00  0.00    -0.386 OA
ATOM     34  H   UNL     1       5.167   7.215  24.572  0.00  0.00    +0.210 HD
ENDBRANCH  28  33
BRANCH  27  35
ATOM     35  C   UNL     1       9.113   5.093  25.064  0.00  0.00    +0.190 C 
BRANCH  35  36
ATOM     36  O   UNL     1       9.422   6.215  25.880  0.00  0.00    -0.392 OA
ATOM     37  H   UNL     1      10.244   6.600  25.511  0.00  0.00    +0.210 HD
ENDBRANCH  35  36
ENDBRANCH  27  35
BRANCH  30  38
ATOM     38  O   UNL     1       4.109   4.120  25.951  0.00  0.00    -0.337 OA
BRANCH  38  39
ATOM     39  C   UNL     1       3.483   2.831  25.797  0.00  0.00    +0.282 C 
ATOM     40  O   UNL     1       3.620   2.334  24.447  0.00  0.00    -0.341 OA
ATOM     41  C   UNL     1       2.904   3.026  23.393  0.00  0.00    +0.178 C 
ATOM     42  C   UNL     1       1.494   3.578  23.750  0.00  0.00    +0.177 C 
ATOM     43  C   UNL     1       1.324   3.922  25.231  0.00  0.00    +0.179 C 
ATOM     44  C   UNL     1       1.970   2.832  26.093  0.00  0.00    +0.201 C 
BRANCH  44  45
ATOM     45  O   UNL     1       1.366   1.553  25.809  0.00  0.00    -0.384 OA
ATOM     46  H   UNL     1       0.422   1.712  25.608  0.00  0.00    +0.210 HD
ENDBRANCH  44  45
BRANCH  43  47
ATOM     47  O   UNL     1       1.866   5.209  25.530  0.00  0.00    -0.386 OA
ATOM     48  H   UNL     1       2.655   5.349  24.951  0.00  0.00    +0.210 HD
ENDBRANCH  43  47
BRANCH  42  49
ATOM     49  O   UNL     1       0.510   2.590  23.382  0.00  0.00    -0.386 OA
ATOM     50  H   UNL     1       0.095   2.868  22.540  0.00  0.00    +0.210 HD
ENDBRANCH  42  49
BRANCH  41  51
ATOM     51  C   UNL     1       3.824   4.068  22.744  0.00  0.00    +0.190 C 
BRANCH  51  52
ATOM     52  O   UNL     1       3.572   5.377  23.232  0.00  0.00    -0.392 OA
ATOM     53  H   UNL     1       3.726   5.328  24.200  0.00  0.00    +0.210 HD
ENDBRANCH  51  52
ENDBRANCH  41  51
ENDBRANCH  38  39
ENDBRANCH  30  38
ENDBRANCH  24  25
ENDBRANCH  11  24
BRANCH   7  54
ATOM     54  O   UNL     1       3.944  -4.498  27.117  0.00  0.00    -0.461 OA
BRANCH  54  55
ATOM     55  C   UNL     1       2.635  -4.637  26.478  0.00  0.00    +0.340 C 
ATOM     56  O   UNL     1       2.157  -5.987  26.520  0.00  0.00    -0.322 OA
ATOM     57  C   UNL     1       2.515  -6.823  25.430  0.00  0.00    +0.261 C 
ATOM     58  C   UNL     1       1.875  -6.289  24.143  0.00  0.00    +0.185 C 
ATOM     59  C   UNL     1       2.423  -4.889  23.831  0.00  0.00    +0.180 C 
ATOM     60  C   UNL     1       2.399  -3.963  25.071  0.00  0.00    +0.214 C 
BRANCH  60  61
ATOM     61  O   UNL     1       1.040  -3.425  25.078  0.00  0.00    -0.383 OA
ATOM     62  H   UNL     1       0.921  -2.949  24.228  0.00  0.00    +0.210 HD
ENDBRANCH  60  61
BRANCH  59  63
ATOM     63  O   UNL     1       3.694  -4.962  23.195  0.00  0.00    -0.386 OA
ATOM     64  H   UNL     1       4.038  -4.060  23.029  0.00  0.00    +0.210 HD
ENDBRANCH  59  63
BRANCH  58  65
ATOM     65  O   UNL     1       0.447  -6.222  24.326  0.00  0.00    -0.386 OA
ATOM     66  H   UNL     1       0.095  -7.131  24.276  0.00  0.00    +0.210 HD
ENDBRANCH  58  65
BRANCH  57  67
ATOM     67  C   UNL     1       4.006  -7.094  25.154  0.00  0.00    +0.337 C 
ATOM     68  O   UNL     1       4.451  -7.475  24.079  0.00  0.00    -0.248 OA
BRANCH  67  69
ATOM     69  O   UNL     1       4.797  -7.000  26.248  0.00  0.00    -0.479 OA
ATOM     70  H   UNL     1       4.333  -6.956  27.104  0.00  0.00    +0.295 HD
ENDBRANCH  67  69
ENDBRANCH  57  67
ENDBRANCH  54  55
ENDBRANCH   7  54
TORSDOF 24
ENDMDL
MODEL 6
REMARK VINA RESULT:      -5.5      2.784      6.653
REMARK  Name = 
REMARK  24 active torsions:
REMARK  status: ('A' for Active; 'I' for Inactive)
REMARK    1  A    between atoms: C_3  and  O_71
REMARK    2  A    between atoms: C_4  and  O_70
REMARK    3  A    between atoms: C_6  and  C_7
REMARK    4  A    between atoms: C_8  and  O_37
REMARK    5  A    between atoms: C_12  and  O_36
REMARK    6  A    between atoms: C_14  and  O_18
REMARK    7  A    between atoms: O_18  and  C_19
REMARK    8  A    between atoms: C_21  and  O_35
REMARK    9  A    between atoms: C_23  and  O_34
REMARK   10  A    between atoms: C_25  and  O_33
REMARK   11  A    between atoms: C_27  and  C_30
REMARK   12  A    between atoms: C_30  and  O_32
REMARK   13  A    between atoms: O_37  and  C_38
REMARK   14  A    between atoms: C_40  and  O_53
REMARK   15  A    between atoms: C_42  and  O_52
REMARK   16  A    between atoms: C_44  and  O_51
REMARK   17  A    between atoms: C_46  and  C_49
REMARK   18  A    between atoms: C_49  and  O_50
REMARK   19  A    between atoms: O_53  and  C_54
REMARK   20  A    between atoms: C_56  and  O_69
REMARK   21  A    between atoms: C_58  and  O_68
REMARK   22  A    between atoms: C_60  and  O_67
REMARK   23  A    between atoms: C_62  and  C_65
REMARK   24  A    between atoms: C_65  and  O_66
REMARK                            x       y       z     vdW  Elec       q    Type
REMARK                         _______ _______ _______ _____ _____    ______ ____
ROOT
ATOM      1  C   UNL     1       6.039   2.709  23.335  0.00  0.00    +0.181 A 
ATOM      2  O   UNL     1       6.155   1.372  22.847  0.00  0.00    -0.451 OA
ATOM      3  C   UNL     1       7.151   0.541  23.381  0.00  0.00    +0.147 A 
ATOM      4  C   UNL     1       8.141   1.066  24.199  0.00  0.00    +0.109 A 
ATOM      5  C   UNL     1       9.110   0.245  24.784  0.00  0.00    +0.135 A 
ATOM      6  C   UNL     1       9.132  -1.120  24.542  0.00  0.00    +0.092 A 
ATOM      7  C   UNL     1       8.212  -1.705  23.669  0.00  0.00    +0.131 A 
ATOM      8  C   UNL     1       8.190   2.503  24.416  0.00  0.00    +0.238 A 
ATOM      9  O   UNL     1       9.262   2.989  24.766  0.00  0.00    -0.283 OA
ATOM     10  C   UNL     1       7.206  -0.858  23.098  0.00  0.00    +0.093 A 
ATOM     11  C   UNL     1       6.949   3.278  24.166  0.00  0.00    +0.214 A 
ENDROOT
BRANCH   1  13
ATOM     12  C   UNL     1       4.809   4.770  22.375  0.00  0.00    +0.015 A 
ATOM     13  C   UNL     1       4.783   3.483  22.981  0.00  0.00    +0.025 A 
ATOM     14  C   UNL     1       3.529   3.019  23.400  0.00  0.00    +0.060 A 
ATOM     15  C   UNL     1       2.384   3.830  23.286  0.00  0.00    +0.159 A 
ATOM     16  C   UNL     1       2.448   5.121  22.768  0.00  0.00    +0.158 A 
ATOM     17  C   UNL     1       3.656   5.593  22.281  0.00  0.00    +0.050 A 
BRANCH  16  18
ATOM     18  O   UNL     1       1.309   5.874  22.796  0.00  0.00    -0.503 OA
ATOM     19  H   UNL     1       1.527   6.780  22.517  0.00  0.00    +0.292 HD
ENDBRANCH  16  18
BRANCH  15  20
ATOM     20  O   UNL     1       1.184   3.356  23.729  0.00  0.00    -0.503 OA
ATOM     21  H   UNL     1       1.384   2.959  24.603  0.00  0.00    +0.292 HD
ENDBRANCH  15  20
ENDBRANCH   1  13
BRANCH   5  22
ATOM     22  O   UNL     1      10.092   0.707  25.624  0.00  0.00    -0.506 OA
ATOM     23  H   UNL     1      10.711   1.264  25.104  0.00  0.00    +0.292 HD
ENDBRANCH   5  22
BRANCH  11  24
ATOM     24  O   UNL     1       6.679   4.473  24.828  0.00  0.00    -0.453 OA
BRANCH  24  25
ATOM     25  C   UNL     1       5.605   4.542  25.782  0.00  0.00    +0.340 C 
ATOM     26  O   UNL     1       5.596   5.840  26.382  0.00  0.00    -0.331 OA
ATOM     27  C   UNL     1       6.402   6.107  27.522  0.00  0.00    +0.179 C 
ATOM     28  C   UNL     1       6.299   4.988  28.555  0.00  0.00    +0.177 C 
ATOM     29  C   UNL     1       6.484   3.583  27.959  0.00  0.00    +0.180 C 
ATOM     30  C   UNL     1       5.676   3.273  26.693  0.00  0.00    +0.221 C 
BRANCH  29  31
ATOM     31  O   UNL     1       7.868   3.316  27.697  0.00  0.00    -0.386 OA
ATOM     32  H   UNL     1       8.122   3.783  26.866  0.00  0.00    +0.210 HD
ENDBRANCH  29  31
BRANCH  28  33
ATOM     33  O   UNL     1       5.051   5.171  29.231  0.00  0.00    -0.386 OA
ATOM     34  H   UNL     1       5.139   5.134  30.204  0.00  0.00    +0.210 HD
ENDBRANCH  28  33
BRANCH  27  35
ATOM     35  C   UNL     1       7.833   6.542  27.178  0.00  0.00    +0.190 C 
BRANCH  35  36
ATOM     36  O   UNL     1       8.538   5.564  26.427  0.00  0.00    -0.392 OA
ATOM     37  H   UNL     1       9.314   6.023  26.045  0.00  0.00    +0.210 HD
ENDBRANCH  35  36
ENDBRANCH  27  35
BRANCH  30  38
ATOM     38  O   UNL     1       4.359   2.717  26.928  0.00  0.00    -0.337 OA
BRANCH  38  39
ATOM     39  C   UNL     1       4.069   2.216  28.249  0.00  0.00    +0.282 C 
ATOM     40  O   UNL     1       4.791   0.995  28.523  0.00  0.00    -0.341 OA
ATOM     41  C   UNL     1       4.421  -0.193  27.779  0.00  0.00    +0.178 C 
ATOM     42  C   UNL     1       2.910  -0.380  27.464  0.00  0.00    +0.177 C 
ATOM     43  C   UNL     1       2.133   0.935  27.364  0.00  0.00    +0.179 C 
ATOM     44  C   UNL     1       2.581   1.886  28.479  0.00  0.00    +0.201 C 
BRANCH  44  45
ATOM     45  O   UNL     1       2.360   1.278  29.768  0.00  0.00    -0.384 OA
ATOM     46  H   UNL     1       2.245   2.000  30.418  0.00  0.00    +0.210 HD
ENDBRANCH  44  45
BRANCH  43  47
ATOM     47  O   UNL     1       2.293   1.533  26.077  0.00  0.00    -0.386 OA
ATOM     48  H   UNL     1       2.182   0.826  25.396  0.00  0.00    +0.210 HD
ENDBRANCH  43  47
BRANCH  42  49
ATOM     49  O   UNL     1       2.324  -1.192  28.503  0.00  0.00    -0.386 OA
ATOM     50  H   UNL     1       2.069  -0.607  29.245  0.00  0.00    +0.210 HD
ENDBRANCH  42  49
BRANCH  41  51
ATOM     51  C   UNL     1       5.325  -0.331  26.547  0.00  0.00    +0.190 C 
BRANCH  51  52
ATOM     52  O   UNL     1       4.671   0.085  25.358  0.00  0.00    -0.392 OA
ATOM     53  H   UNL     1       4.936   1.021  25.228  0.00  0.00    +0.210 HD
ENDBRANCH  51  52
ENDBRANCH  41  51
ENDBRANCH  38  39
ENDBRANCH  30  38
ENDBRANCH  24  25
ENDBRANCH  11  24
BRANCH   7  54
ATOM     54  O   UNL     1       8.251  -3.068  23.346  0.00  0.00    -0.461 OA
BRANCH  54  55
ATOM     55  C   UNL     1       7.924  -3.998  24.428  0.00  0.00    +0.340 C 
ATOM     56  O   UNL     1       7.552  -5.289  23.932  0.00  0.00    -0.322 OA
ATOM     57  C   UNL     1       6.174  -5.494  23.659  0.00  0.00    +0.261 C 
ATOM     58  C   UNL     1       5.374  -5.402  24.963  0.00  0.00    +0.185 C 
ATOM     59  C   UNL     1       5.508  -3.992  25.556  0.00  0.00    +0.180 C 
ATOM     60  C   UNL     1       6.978  -3.510  25.592  0.00  0.00    +0.214 C 
BRANCH  60  61
ATOM     61  O   UNL     1       7.501  -4.076  26.833  0.00  0.00    -0.383 OA
ATOM     62  H   UNL     1       7.638  -3.326  27.451  0.00  0.00    +0.210 HD
ENDBRANCH  60  61
BRANCH  59  63
ATOM     63  O   UNL     1       4.620  -3.078  24.921  0.00  0.00    -0.386 OA
ATOM     64  H   UNL     1       3.736  -3.123  25.341  0.00  0.00    +0.210 HD
ENDBRANCH  59  63
BRANCH  58  65
ATOM     65  O   UNL     1       5.890  -6.372  25.896  0.00  0.00    -0.386 OA
ATOM     66  H   UNL     1       6.835  -6.510  25.695  0.00  0.00    +0.210 HD
ENDBRANCH  58  65
BRANCH  57  67
ATOM     67  C   UNL     1       5.484  -4.613  22.601  0.00  0.00    +0.337 C 
ATOM     68  O   UNL     1       4.274  -4.438  22.532  0.00  0.00    -0.248 OA
BRANCH  67  69
ATOM     69  O   UNL     1       6.318  -4.131  21.651  0.00  0.00    -0.479 OA
ATOM     70  H   UNL     1       6.685  -3.244  21.821  0.00  0.00    +0.295 HD
ENDBRANCH  67  69
ENDBRANCH  57  67
ENDBRANCH  54  55
ENDBRANCH   7  54
TORSDOF 24
ENDMDL
MODEL 7
REMARK VINA RESULT:      -5.5      2.810      8.415
REMARK  Name = 
REMARK  24 active torsions:
REMARK  status: ('A' for Active; 'I' for Inactive)
REMARK    1  A    between atoms: C_3  and  O_71
REMARK    2  A    between atoms: C_4  and  O_70
REMARK    3  A    between atoms: C_6  and  C_7
REMARK    4  A    between atoms: C_8  and  O_37
REMARK    5  A    between atoms: C_12  and  O_36
REMARK    6  A    between atoms: C_14  and  O_18
REMARK    7  A    between atoms: O_18  and  C_19
REMARK    8  A    between atoms: C_21  and  O_35
REMARK    9  A    between atoms: C_23  and  O_34
REMARK   10  A    between atoms: C_25  and  O_33
REMARK   11  A    between atoms: C_27  and  C_30
REMARK   12  A    between atoms: C_30  and  O_32
REMARK   13  A    between atoms: O_37  and  C_38
REMARK   14  A    between atoms: C_40  and  O_53
REMARK   15  A    between atoms: C_42  and  O_52
REMARK   16  A    between atoms: C_44  and  O_51
REMARK   17  A    between atoms: C_46  and  C_49
REMARK   18  A    between atoms: C_49  and  O_50
REMARK   19  A    between atoms: O_53  and  C_54
REMARK   20  A    between atoms: C_56  and  O_69
REMARK   21  A    between atoms: C_58  and  O_68
REMARK   22  A    between atoms: C_60  and  O_67
REMARK   23  A    between atoms: C_62  and  C_65
REMARK   24  A    between atoms: C_65  and  O_66
REMARK                            x       y       z     vdW  Elec       q    Type
REMARK                         _______ _______ _______ _____ _____    ______ ____
ROOT
ATOM      1  C   UNL     1       4.929  -2.168  27.402  0.00  0.00    +0.181 A 
ATOM      2  O   UNL     1       4.897  -1.095  28.344  0.00  0.00    -0.451 OA
ATOM      3  C   UNL     1       4.645   0.205  27.881  0.00  0.00    +0.147 A 
ATOM      4  C   UNL     1       4.647   0.480  26.521  0.00  0.00    +0.109 A 
ATOM      5  C   UNL     1       4.345   1.757  26.038  0.00  0.00    +0.135 A 
ATOM      6  C   UNL     1       4.060   2.800  26.906  0.00  0.00    +0.092 A 
ATOM      7  C   UNL     1       4.113   2.614  28.289  0.00  0.00    +0.131 A 
ATOM      8  C   UNL     1       5.012  -0.574  25.588  0.00  0.00    +0.238 A 
ATOM      9  O   UNL     1       5.415  -0.236  24.478  0.00  0.00    -0.283 OA
ATOM     10  C   UNL     1       4.397   1.294  28.771  0.00  0.00    +0.093 A 
ATOM     11  C   UNL     1       4.899  -1.978  26.058  0.00  0.00    +0.214 A 
ENDROOT
BRANCH   1  13
ATOM     12  C   UNL     1       3.821  -4.086  28.734  0.00  0.00    +0.015 A 
ATOM     13  C   UNL     1       4.892  -3.584  27.943  0.00  0.00    +0.025 A 
ATOM     14  C   UNL     1       6.014  -4.415  27.819  0.00  0.00    +0.060 A 
ATOM     15  C   UNL     1       6.086  -5.639  28.510  0.00  0.00    +0.159 A 
ATOM     16  C   UNL     1       5.060  -6.070  29.347  0.00  0.00    +0.158 A 
ATOM     17  C   UNL     1       3.906  -5.312  29.446  0.00  0.00    +0.050 A 
BRANCH  16  18
ATOM     18  O   UNL     1       5.262  -7.217  30.061  0.00  0.00    -0.503 OA
ATOM     19  H   UNL     1       4.411  -7.508  30.431  0.00  0.00    +0.292 HD
ENDBRANCH  16  18
BRANCH  15  20
ATOM     20  O   UNL     1       7.205  -6.409  28.387  0.00  0.00    -0.503 OA
ATOM     21  H   UNL     1       7.160  -6.767  27.476  0.00  0.00    +0.292 HD
ENDBRANCH  15  20
ENDBRANCH   1  13
BRANCH   5  22
ATOM     22  O   UNL     1       4.304   2.076  24.704  0.00  0.00    -0.506 OA
ATOM     23  H   UNL     1       4.068   1.269  24.198  0.00  0.00    +0.292 HD
ENDBRANCH   5  22
BRANCH  11  24
ATOM     24  O   UNL     1       4.668  -3.034  25.180  0.00  0.00    -0.453 OA
BRANCH  24  25
ATOM     25  C   UNL     1       5.173  -2.976  23.835  0.00  0.00    +0.340 C 
ATOM     26  O   UNL     1       4.360  -3.799  22.995  0.00  0.00    -0.331 OA
ATOM     27  C   UNL     1       4.641  -5.186  22.862  0.00  0.00    +0.179 C 
ATOM     28  C   UNL     1       6.133  -5.437  22.655  0.00  0.00    +0.177 C 
ATOM     29  C   UNL     1       7.026  -4.699  23.664  0.00  0.00    +0.180 C 
ATOM     30  C   UNL     1       6.719  -3.212  23.880  0.00  0.00    +0.221 C 
BRANCH  29  31
ATOM     31  O   UNL     1       7.016  -5.360  24.936  0.00  0.00    -0.386 OA
ATOM     32  H   UNL     1       6.474  -6.179  24.855  0.00  0.00    +0.210 HD
ENDBRANCH  29  31
BRANCH  28  33
ATOM     33  O   UNL     1       6.413  -5.115  21.289  0.00  0.00    -0.386 OA
ATOM     34  H   UNL     1       7.016  -5.757  20.865  0.00  0.00    +0.210 HD
ENDBRANCH  28  33
BRANCH  27  35
ATOM     35  C   UNL     1       3.982  -6.056  23.942  0.00  0.00    +0.190 C 
BRANCH  35  36
ATOM     36  O   UNL     1       4.600  -7.329  24.071  0.00  0.00    -0.392 OA
ATOM     37  H   UNL     1       4.700  -7.674  23.159  0.00  0.00    +0.210 HD
ENDBRANCH  35  36
ENDBRANCH  27  35
BRANCH  30  38
ATOM     38  O   UNL     1       7.418  -2.306  22.992  0.00  0.00    -0.337 OA
BRANCH  38  39
ATOM     39  C   UNL     1       8.835  -2.502  22.815  0.00  0.00    +0.282 C 
ATOM     40  O   UNL     1       9.538  -2.454  24.077  0.00  0.00    -0.341 OA
ATOM     41  C   UNL     1       9.603  -1.181  24.768  0.00  0.00    +0.178 C 
ATOM     42  C   UNL     1       9.751   0.090  23.884  0.00  0.00    +0.177 C 
ATOM     43  C   UNL     1       9.156  -0.061  22.482  0.00  0.00    +0.179 C 
ATOM     44  C   UNL     1       9.506  -1.443  21.919  0.00  0.00    +0.201 C 
BRANCH  44  45
ATOM     45  O   UNL     1      10.937  -1.610  21.869  0.00  0.00    -0.384 OA
ATOM     46  H   UNL     1      11.166  -1.920  20.969  0.00  0.00    +0.210 HD
ENDBRANCH  44  45
BRANCH  43  47
ATOM     47  O   UNL     1       7.744   0.152  22.494  0.00  0.00    -0.386 OA
ATOM     48  H   UNL     1       7.582   1.117  22.632  0.00  0.00    +0.210 HD
ENDBRANCH  43  47
BRANCH  42  49
ATOM     49  O   UNL     1      11.154   0.404  23.767  0.00  0.00    -0.386 OA
ATOM     50  H   UNL     1      11.577   0.254  24.637  0.00  0.00    +0.210 HD
ENDBRANCH  42  49
BRANCH  41  51
ATOM     51  C   UNL     1       8.459  -1.090  25.786  0.00  0.00    +0.190 C 
BRANCH  51  52
ATOM     52  O   UNL     1       8.858  -0.425  26.975  0.00  0.00    -0.392 OA
ATOM     53  H   UNL     1       8.108   0.164  27.209  0.00  0.00    +0.210 HD
ENDBRANCH  51  52
ENDBRANCH  41  51
ENDBRANCH  38  39
ENDBRANCH  30  38
ENDBRANCH  24  25
ENDBRANCH  11  24
BRANCH   7  54
ATOM     54  O   UNL     1       3.903   3.664  29.194  0.00  0.00    -0.461 OA
BRANCH  54  55
ATOM     55  C   UNL     1       5.104   4.307  29.727  0.00  0.00    +0.340 C 
ATOM     56  O   UNL     1       4.861   5.666  30.109  0.00  0.00    -0.322 OA
ATOM     57  C   UNL     1       5.062   6.654  29.110  0.00  0.00    +0.261 C 
ATOM     58  C   UNL     1       6.542   6.686  28.711  0.00  0.00    +0.185 C 
ATOM     59  C   UNL     1       6.944   5.339  28.095  0.00  0.00    +0.180 C 
ATOM     60  C   UNL     1       6.467   4.140  28.949  0.00  0.00    +0.214 C 
BRANCH  60  61
ATOM     61  O   UNL     1       7.517   3.988  29.954  0.00  0.00    -0.383 OA
ATOM     62  H   UNL     1       8.326   3.707  29.476  0.00  0.00    +0.210 HD
ENDBRANCH  60  61
BRANCH  59  63
ATOM     63  O   UNL     1       6.555   5.260  26.727  0.00  0.00    -0.386 OA
ATOM     64  H   UNL     1       5.651   5.618  26.614  0.00  0.00    +0.210 HD
ENDBRANCH  59  63
BRANCH  58  65
ATOM     65  O   UNL     1       7.336   6.939  29.887  0.00  0.00    -0.386 OA
ATOM     66  H   UNL     1       8.126   6.367  29.844  0.00  0.00    +0.210 HD
ENDBRANCH  58  65
BRANCH  57  67
ATOM     67  C   UNL     1       4.214   6.601  27.825  0.00  0.00    +0.337 C 
ATOM     68  O   UNL     1       4.542   7.107  26.759  0.00  0.00    -0.248 OA
BRANCH  67  69
ATOM     69  O   UNL     1       2.990   6.048  27.991  0.00  0.00    -0.479 OA
ATOM     70  H   UNL     1       2.982   5.133  28.331  0.00  0.00    +0.295 HD
ENDBRANCH  67  69
ENDBRANCH  57  67
ENDBRANCH  54  55
ENDBRANCH   7  54
TORSDOF 24
ENDMDL
MODEL 8
REMARK VINA RESULT:      -5.3      2.213      4.843
REMARK  Name = 
REMARK  24 active torsions:
REMARK  status: ('A' for Active; 'I' for Inactive)
REMARK    1  A    between atoms: C_3  and  O_71
REMARK    2  A    between atoms: C_4  and  O_70
REMARK    3  A    between atoms: C_6  and  C_7
REMARK    4  A    between atoms: C_8  and  O_37
REMARK    5  A    between atoms: C_12  and  O_36
REMARK    6  A    between atoms: C_14  and  O_18
REMARK    7  A    between atoms: O_18  and  C_19
REMARK    8  A    between atoms: C_21  and  O_35
REMARK    9  A    between atoms: C_23  and  O_34
REMARK   10  A    between atoms: C_25  and  O_33
REMARK   11  A    between atoms: C_27  and  C_30
REMARK   12  A    between atoms: C_30  and  O_32
REMARK   13  A    between atoms: O_37  and  C_38
REMARK   14  A    between atoms: C_40  and  O_53
REMARK   15  A    between atoms: C_42  and  O_52
REMARK   16  A    between atoms: C_44  and  O_51
REMARK   17  A    between atoms: C_46  and  C_49
REMARK   18  A    between atoms: C_49  and  O_50
REMARK   19  A    between atoms: O_53  and  C_54
REMARK   20  A    between atoms: C_56  and  O_69
REMARK   21  A    between atoms: C_58  and  O_68
REMARK   22  A    between atoms: C_60  and  O_67
REMARK   23  A    between atoms: C_62  and  C_65
REMARK   24  A    between atoms: C_65  and  O_66
REMARK                            x       y       z     vdW  Elec       q    Type
REMARK                         _______ _______ _______ _____ _____    ______ ____
ROOT
ATOM      1  C   UNL     1       4.088  -0.444  26.835  0.00  0.00    +0.181 A 
ATOM      2  O   UNL     1       3.668  -1.606  26.119  0.00  0.00    -0.451 OA
ATOM      3  C   UNL     1       4.587  -2.646  25.917  0.00  0.00    +0.147 A 
ATOM      4  C   UNL     1       5.931  -2.463  26.207  0.00  0.00    +0.109 A 
ATOM      5  C   UNL     1       6.853  -3.505  26.063  0.00  0.00    +0.135 A 
ATOM      6  C   UNL     1       6.458  -4.750  25.597  0.00  0.00    +0.092 A 
ATOM      7  C   UNL     1       5.135  -4.983  25.215  0.00  0.00    +0.131 A 
ATOM      8  C   UNL     1       6.390  -1.150  26.628  0.00  0.00    +0.238 A 
ATOM      9  O   UNL     1       7.580  -0.887  26.474  0.00  0.00    -0.283 OA
ATOM     10  C   UNL     1       4.194  -3.916  25.394  0.00  0.00    +0.093 A 
ATOM     11  C   UNL     1       5.380  -0.214  27.184  0.00  0.00    +0.214 A 
ENDROOT
BRANCH   1  13
ATOM     12  C   UNL     1       2.303   1.381  26.432  0.00  0.00    +0.015 A 
ATOM     13  C   UNL     1       3.018   0.519  27.310  0.00  0.00    +0.025 A 
ATOM     14  C   UNL     1       2.807   0.717  28.681  0.00  0.00    +0.060 A 
ATOM     15  C   UNL     1       1.989   1.765  29.142  0.00  0.00    +0.159 A 
ATOM     16  C   UNL     1       1.367   2.650  28.265  0.00  0.00    +0.158 A 
ATOM     17  C   UNL     1       1.495   2.450  26.901  0.00  0.00    +0.050 A 
BRANCH  16  18
ATOM     18  O   UNL     1       0.680   3.701  28.804  0.00  0.00    -0.503 OA
ATOM     19  H   UNL     1      -0.140   3.365  29.204  0.00  0.00    +0.292 HD
ENDBRANCH  16  18
BRANCH  15  20
ATOM     20  O   UNL     1       1.828   1.945  30.485  0.00  0.00    -0.503 OA
ATOM     21  H   UNL     1       2.635   2.424  30.768  0.00  0.00    +0.292 HD
ENDBRANCH  15  20
ENDBRANCH   1  13
BRANCH   5  22
ATOM     22  O   UNL     1       8.187  -3.387  26.363  0.00  0.00    -0.506 OA
ATOM     23  H   UNL     1       8.580  -2.706  25.775  0.00  0.00    +0.292 HD
ENDBRANCH   5  22
BRANCH  11  24
ATOM     24  O   UNL     1       5.719   0.780  28.098  0.00  0.00    -0.453 OA
BRANCH  24  25
ATOM     25  C   UNL     1       6.866   1.615  27.860  0.00  0.00    +0.340 C 
ATOM     26  O   UNL     1       7.133   2.386  29.035  0.00  0.00    -0.331 OA
ATOM     27  C   UNL     1       6.479   3.630  29.241  0.00  0.00    +0.179 C 
ATOM     28  C   UNL     1       6.485   4.482  27.973  0.00  0.00    +0.177 C 
ATOM     29  C   UNL     1       6.028   3.720  26.719  0.00  0.00    +0.180 C 
ATOM     30  C   UNL     1       6.668   2.345  26.491  0.00  0.00    +0.221 C 
BRANCH  29  31
ATOM     31  O   UNL     1       4.601   3.571  26.702  0.00  0.00    -0.386 OA
ATOM     32  H   UNL     1       4.198   4.425  26.985  0.00  0.00    +0.210 HD
ENDBRANCH  29  31
BRANCH  28  33
ATOM     33  O   UNL     1       7.797   5.040  27.865  0.00  0.00    -0.386 OA
ATOM     34  H   UNL     1       7.787   5.996  27.658  0.00  0.00    +0.210 HD
ENDBRANCH  28  33
BRANCH  27  35
ATOM     35  C   UNL     1       5.112   3.504  29.929  0.00  0.00    +0.190 C 
BRANCH  35  36
ATOM     36  O   UNL     1       4.199   4.513  29.522  0.00  0.00    -0.392 OA
ATOM     37  H   UNL     1       4.511   4.822  28.646  0.00  0.00    +0.210 HD
ENDBRANCH  35  36
ENDBRANCH  27  35
BRANCH  30  38
ATOM     38  O   UNL     1       7.893   2.360  25.718  0.00  0.00    -0.337 OA
BRANCH  38  39
ATOM     39  C   UNL     1       8.003   3.329  24.656  0.00  0.00    +0.282 C 
ATOM     40  O   UNL     1       7.280   2.906  23.477  0.00  0.00    -0.341 OA
ATOM     41  C   UNL     1       7.784   1.759  22.748  0.00  0.00    +0.178 C 
ATOM     42  C   UNL     1       9.330   1.609  22.660  0.00  0.00    +0.177 C 
ATOM     43  C   UNL     1      10.078   2.233  23.840  0.00  0.00    +0.179 C 
ATOM     44  C   UNL     1       9.450   3.586  24.192  0.00  0.00    +0.201 C 
BRANCH  44  45
ATOM     45  O   UNL     1       9.499   4.468  23.052  0.00  0.00    -0.384 OA
ATOM     46  H   UNL     1      10.436   4.715  22.912  0.00  0.00    +0.210 HD
ENDBRANCH  44  45
BRANCH  43  47
ATOM     47  O   UNL     1      10.090   1.358  24.968  0.00  0.00    -0.386 OA
ATOM     48  H   UNL     1      10.097   1.913  25.785  0.00  0.00    +0.210 HD
ENDBRANCH  43  47
BRANCH  42  49
ATOM     49  O   UNL     1       9.781   2.227  21.438  0.00  0.00    -0.386 OA
ATOM     50  H   UNL     1      10.480   2.875  21.660  0.00  0.00    +0.210 HD
ENDBRANCH  42  49
BRANCH  41  51
ATOM     51  C   UNL     1       7.071   0.490  23.229  0.00  0.00    +0.190 C 
BRANCH  51  52
ATOM     52  O   UNL     1       7.988  -0.520  23.621  0.00  0.00    -0.392 OA
ATOM     53  H   UNL     1       7.443  -1.321  23.779  0.00  0.00    +0.210 HD
ENDBRANCH  51  52
ENDBRANCH  41  51
ENDBRANCH  38  39
ENDBRANCH  30  38
ENDBRANCH  24  25
ENDBRANCH  11  24
BRANCH   7  54
ATOM     54  O   UNL     1       4.718  -6.206  24.672  0.00  0.00    -0.461 OA
BRANCH  54  55
ATOM     55  C   UNL     1       4.061  -7.132  25.596  0.00  0.00    +0.340 C 
ATOM     56  O   UNL     1       3.476  -8.247  24.913  0.00  0.00    -0.322 OA
ATOM     57  C   UNL     1       2.132  -8.096  24.482  0.00  0.00    +0.261 C 
ATOM     58  C   UNL     1       1.217  -7.943  25.701  0.00  0.00    +0.185 C 
ATOM     59  C   UNL     1       1.585  -6.666  26.471  0.00  0.00    +0.180 C 
ATOM     60  C   UNL     1       3.109  -6.548  26.711  0.00  0.00    +0.214 C 
BRANCH  60  61
ATOM     61  O   UNL     1       3.334  -7.337  27.920  0.00  0.00    -0.383 OA
ATOM     62  H   UNL     1       3.206  -8.277  27.672  0.00  0.00    +0.210 HD
ENDBRANCH  60  61
BRANCH  59  63
ATOM     63  O   UNL     1       1.009  -5.513  25.867  0.00  0.00    -0.386 OA
ATOM     64  H   UNL     1       1.706  -4.974  25.441  0.00  0.00    +0.210 HD
ENDBRANCH  59  63
BRANCH  58  65
ATOM     65  O   UNL     1       1.383  -9.091  26.557  0.00  0.00    -0.386 OA
ATOM     66  H   UNL     1       0.495  -9.414  26.802  0.00  0.00    +0.210 HD
ENDBRANCH  58  65
BRANCH  57  67
ATOM     67  C   UNL     1       1.791  -6.981  23.475  0.00  0.00    +0.337 C 
ATOM     68  O   UNL     1       0.668  -6.525  23.305  0.00  0.00    -0.248 OA
BRANCH  67  69
ATOM     69  O   UNL     1       2.825  -6.616  22.682  0.00  0.00    -0.479 OA
ATOM     70  H   UNL     1       2.649  -5.876  22.071  0.00  0.00    +0.295 HD
ENDBRANCH  67  69
ENDBRANCH  57  67
ENDBRANCH  54  55
ENDBRANCH   7  54
TORSDOF 24
ENDMDL
MODEL 9
REMARK VINA RESULT:      -5.2      3.296      7.129
REMARK  Name = 
REMARK  24 active torsions:
REMARK  status: ('A' for Active; 'I' for Inactive)
REMARK    1  A    between atoms: C_3  and  O_71
REMARK    2  A    between atoms: C_4  and  O_70
REMARK    3  A    between atoms: C_6  and  C_7
REMARK    4  A    between atoms: C_8  and  O_37
REMARK    5  A    between atoms: C_12  and  O_36
REMARK    6  A    between atoms: C_14  and  O_18
REMARK    7  A    between atoms: O_18  and  C_19
REMARK    8  A    between atoms: C_21  and  O_35
REMARK    9  A    between atoms: C_23  and  O_34
REMARK   10  A    between atoms: C_25  and  O_33
REMARK   11  A    between atoms: C_27  and  C_30
REMARK   12  A    between atoms: C_30  and  O_32
REMARK   13  A    between atoms: O_37  and  C_38
REMARK   14  A    between atoms: C_40  and  O_53
REMARK   15  A    between atoms: C_42  and  O_52
REMARK   16  A    between atoms: C_44  and  O_51
REMARK   17  A    between atoms: C_46  and  C_49
REMARK   18  A    between atoms: C_49  and  O_50
REMARK   19  A    between atoms: O_53  and  C_54
REMARK   20  A    between atoms: C_56  and  O_69
REMARK   21  A    between atoms: C_58  and  O_68
REMARK   22  A    between atoms: C_60  and  O_67
REMARK   23  A    between atoms: C_62  and  C_65
REMARK   24  A    between atoms: C_65  and  O_66
REMARK                            x       y       z     vdW  Elec       q    Type
REMARK                         _______ _______ _______ _____ _____    ______ ____
ROOT
ATOM      1  C   UNL     1       6.057   3.758  23.038  0.00  0.00    +0.181 A 
ATOM      2  O   UNL     1       6.121   2.462  22.442  0.00  0.00    -0.451 OA
ATOM      3  C   UNL     1       7.045   1.532  22.940  0.00  0.00    +0.147 A 
ATOM      4  C   UNL     1       8.026   1.928  23.838  0.00  0.00    +0.109 A 
ATOM      5  C   UNL     1       8.922   1.005  24.387  0.00  0.00    +0.135 A 
ATOM      6  C   UNL     1       8.879  -0.333  24.029  0.00  0.00    +0.092 A 
ATOM      7  C   UNL     1       7.967  -0.788  23.073  0.00  0.00    +0.131 A 
ATOM      8  C   UNL     1       8.145   3.336  24.179  0.00  0.00    +0.238 A 
ATOM      9  O   UNL     1       9.226   3.727  24.611  0.00  0.00    -0.283 OA
ATOM     10  C   UNL     1       7.035   0.161  22.539  0.00  0.00    +0.093 A 
ATOM     11  C   UNL     1       6.960   4.201  23.950  0.00  0.00    +0.214 A 
ENDROOT
BRANCH   1  13
ATOM     12  C   UNL     1       4.971   6.022  22.424  0.00  0.00    +0.015 A 
ATOM     13  C   UNL     1       4.862   4.631  22.705  0.00  0.00    +0.025 A 
ATOM     14  C   UNL     1       3.563   4.122  22.828  0.00  0.00    +0.060 A 
ATOM     15  C   UNL     1       2.444   4.974  22.750  0.00  0.00    +0.159 A 
ATOM     16  C   UNL     1       2.578   6.346  22.559  0.00  0.00    +0.158 A 
ATOM     17  C   UNL     1       3.841   6.880  22.366  0.00  0.00    +0.050 A 
BRANCH  16  18
ATOM     18  O   UNL     1       1.445   7.108  22.604  0.00  0.00    -0.503 OA
ATOM     19  H   UNL     1       0.853   6.828  21.885  0.00  0.00    +0.292 HD
ENDBRANCH  16  18
BRANCH  15  20
ATOM     20  O   UNL     1       1.194   4.447  22.901  0.00  0.00    -0.503 OA
ATOM     21  H   UNL     1       0.697   5.133  23.395  0.00  0.00    +0.292 HD
ENDBRANCH  15  20
ENDBRANCH   1  13
BRANCH   5  22
ATOM     22  O   UNL     1       9.891   1.337  25.301  0.00  0.00    -0.506 OA
ATOM     23  H   UNL     1      10.699   0.816  25.101  0.00  0.00    +0.292 HD
ENDBRANCH   5  22
BRANCH  11  24
ATOM     24  O   UNL     1       6.729   5.350  24.702  0.00  0.00    -0.453 OA
BRANCH  24  25
ATOM     25  C   UNL     1       5.669   5.373  25.674  0.00  0.00    +0.340 C 
ATOM     26  O   UNL     1       5.817   6.532  26.498  0.00  0.00    -0.331 OA
ATOM     27  C   UNL     1       6.647   6.490  27.651  0.00  0.00    +0.179 C 
ATOM     28  C   UNL     1       6.407   5.223  28.468  0.00  0.00    +0.177 C 
ATOM     29  C   UNL     1       6.421   3.938  27.625  0.00  0.00    +0.180 C 
ATOM     30  C   UNL     1       5.583   3.961  26.341  0.00  0.00    +0.221 C 
BRANCH  29  31
ATOM     31  O   UNL     1       7.763   3.559  27.291  0.00  0.00    -0.386 OA
ATOM     32  H   UNL     1       8.269   4.375  27.067  0.00  0.00    +0.210 HD
ENDBRANCH  29  31
BRANCH  28  33
ATOM     33  O   UNL     1       5.190   5.428  29.191  0.00  0.00    -0.386 OA
ATOM     34  H   UNL     1       4.738   4.592  29.417  0.00  0.00    +0.210 HD
ENDBRANCH  28  33
BRANCH  27  35
ATOM     35  C   UNL     1       8.122   6.806  27.363  0.00  0.00    +0.190 C 
BRANCH  35  36
ATOM     36  O   UNL     1       8.724   5.857  26.494  0.00  0.00    -0.392 OA
ATOM     37  H   UNL     1       9.690   5.927  26.644  0.00  0.00    +0.210 HD
ENDBRANCH  35  36
ENDBRANCH  27  35
BRANCH  30  38
ATOM     38  O   UNL     1       4.208   3.533  26.498  0.00  0.00    -0.337 OA
BRANCH  38  39
ATOM     39  C   UNL     1       3.859   2.213  26.035  0.00  0.00    +0.282 C 
ATOM     40  O   UNL     1       2.532   2.185  25.464  0.00  0.00    -0.341 OA
ATOM     41  C   UNL     1       1.407   2.382  26.357  0.00  0.00    +0.178 C 
ATOM     42  C   UNL     1       1.523   1.764  27.779  0.00  0.00    +0.177 C 
ATOM     43  C   UNL     1       2.963   1.637  28.280  0.00  0.00    +0.179 C 
ATOM     44  C   UNL     1       3.864   1.141  27.143  0.00  0.00    +0.201 C 
BRANCH  44  45
ATOM     45  O   UNL     1       3.394  -0.133  26.658  0.00  0.00    -0.384 OA
ATOM     46  H   UNL     1       2.503   0.007  26.278  0.00  0.00    +0.210 HD
ENDBRANCH  44  45
BRANCH  43  47
ATOM     47  O   UNL     1       3.437   2.874  28.814  0.00  0.00    -0.386 OA
ATOM     48  H   UNL     1       2.814   3.156  29.527  0.00  0.00    +0.210 HD
ENDBRANCH  43  47
BRANCH  42  49
ATOM     49  O   UNL     1       0.916   0.456  27.760  0.00  0.00    -0.386 OA
ATOM     50  H   UNL     1       1.567  -0.181  27.399  0.00  0.00    +0.210 HD
ENDBRANCH  42  49
BRANCH  41  51
ATOM     51  C   UNL     1       1.008   3.863  26.362  0.00  0.00    +0.190 C 
BRANCH  51  52
ATOM     52  O   UNL     1       1.632   4.578  27.418  0.00  0.00    -0.392 OA
ATOM     53  H   UNL     1       2.584   4.343  27.366  0.00  0.00    +0.210 HD
ENDBRANCH  51  52
ENDBRANCH  41  51
ENDBRANCH  38  39
ENDBRANCH  30  38
ENDBRANCH  24  25
ENDBRANCH  11  24
BRANCH   7  54
ATOM     54  O   UNL     1       7.945  -2.120  22.635  0.00  0.00    -0.461 OA
BRANCH  54  55
ATOM     55  C   UNL     1       6.747  -2.889  22.971  0.00  0.00    +0.340 C 
ATOM     56  O   UNL     1       6.665  -3.173  24.372  0.00  0.00    -0.322 OA
ATOM     57  C   UNL     1       7.274  -4.376  24.816  0.00  0.00    +0.261 C 
ATOM     58  C   UNL     1       6.549  -5.576  24.197  0.00  0.00    +0.185 C 
ATOM     59  C   UNL     1       6.692  -5.539  22.669  0.00  0.00    +0.180 C 
ATOM     60  C   UNL     1       6.373  -4.141  22.086  0.00  0.00    +0.214 C 
BRANCH  60  61
ATOM     61  O   UNL     1       4.918  -4.146  21.945  0.00  0.00    -0.383 OA
ATOM     62  H   UNL     1       4.670  -5.036  21.614  0.00  0.00    +0.210 HD
ENDBRANCH  60  61
BRANCH  59  63
ATOM     63  O   UNL     1       7.951  -6.059  22.255  0.00  0.00    -0.386 OA
ATOM     64  H   UNL     1       8.627  -5.888  22.943  0.00  0.00    +0.210 HD
ENDBRANCH  59  63
BRANCH  58  65
ATOM     65  O   UNL     1       5.154  -5.513  24.556  0.00  0.00    -0.386 OA
ATOM     66  H   UNL     1       4.723  -6.326  24.230  0.00  0.00    +0.210 HD
ENDBRANCH  58  65
BRANCH  57  67
ATOM     67  C   UNL     1       8.789  -4.565  24.611  0.00  0.00    +0.337 C 
ATOM     68  O   UNL     1       9.347  -5.653  24.550  0.00  0.00    -0.248 OA
BRANCH  67  69
ATOM     69  O   UNL     1       9.499  -3.413  24.627  0.00  0.00    -0.479 OA
ATOM     70  H   UNL     1       9.054  -2.648  25.037  0.00  0.00    +0.295 HD
ENDBRANCH  67  69
ENDBRANCH  57  67
ENDBRANCH  54  55
ENDBRANCH   7  54
TORSDOF 24
ENDMDL
