MODEL 1
REMARK VINA RESULT:      -6.2      0.000      0.000
REMARK  Name = 
REMARK  28 active torsions:
REMARK  status: ('A' for Active; 'I' for Inactive)
REMARK    1  A    between atoms: C_1  and  C_2
REMARK    2  A    between atoms: C_2  and  O_4
REMARK    3  A    between atoms: O_4  and  C_5
REMARK    4  A    between atoms: C_5  and  C_6
REMARK    5  A    between atoms: C_8  and  O_59
REMARK    6  A    between atoms: C_10  and  O_55
REMARK    7  A    between atoms: C_12  and  O_51
REMARK    8  A    between atoms: C_14  and  O_17
REMARK    9  A    between atoms: O_17  and  C_18
REMARK   10  A    between atoms: C_19  and  C_37
REMARK   11  A    between atoms: C_25  and  O_33
REMARK   12  A    between atoms: C_27  and  O_29
REMARK   13  A    between atoms: O_29  and  C_30
REMARK   14  A    between atoms: C_30  and  C_32
REMARK   15  A    between atoms: O_33  and  C_34
REMARK   16  A    between atoms: C_34  and  C_36
REMARK   17  A    between atoms: C_39  and  O_47
REMARK   18  A    between atoms: C_40  and  O_43
REMARK   19  A    between atoms: O_43  and  C_44
REMARK   20  A    between atoms: C_44  and  C_46
REMARK   21  A    between atoms: O_47  and  C_48
REMARK   22  A    between atoms: C_48  and  C_50
REMARK   23  A    between atoms: O_51  and  C_52
REMARK   24  A    between atoms: C_52  and  C_54
REMARK   25  A    between atoms: O_55  and  C_56
REMARK   26  A    between atoms: C_56  and  C_58
REMARK   27  A    between atoms: O_59  and  C_60
REMARK   28  A    between atoms: C_60  and  C_62
REMARK                            x       y       z     vdW  Elec       q    Type
REMARK                         _______ _______ _______ _____ _____    ______ ____
ROOT
ATOM      1  C   UNL     1       6.983  -0.023  26.563  0.00  0.00    +0.214 A 
ATOM      2  C   UNL     1       7.653  -1.348  26.321  0.00  0.00    +0.238 A 
ATOM      3  O   UNL     1       8.798  -1.451  25.896  0.00  0.00    -0.283 OA
ATOM      4  C   UNL     1       6.879  -2.572  26.568  0.00  0.00    +0.110 A 
ATOM      5  C   UNL     1       7.447  -3.853  26.452  0.00  0.00    +0.150 A 
ATOM      6  C   UNL     1       6.672  -4.990  26.663  0.00  0.00    +0.093 A 
ATOM      7  C   UNL     1       5.319  -4.839  26.970  0.00  0.00    +0.139 A 
ATOM      8  C   UNL     1       4.751  -3.572  27.116  0.00  0.00    +0.093 A 
ATOM      9  C   UNL     1       5.541  -2.435  26.909  0.00  0.00    +0.147 A 
ATOM     10  O   UNL     1       4.933  -1.217  27.064  0.00  0.00    -0.451 OA
ATOM     11  C   UNL     1       5.671  -0.050  26.898  0.00  0.00    +0.181 A 
ENDROOT
BRANCH  11  12
ATOM     12  C   UNL     1       4.816   1.172  27.073  0.00  0.00    +0.025 A 
ATOM     13  C   UNL     1       4.625   1.762  28.334  0.00  0.00    +0.015 A 
ATOM     14  C   UNL     1       3.944   2.970  28.483  0.00  0.00    +0.051 A 
ATOM     15  C   UNL     1       3.505   3.671  27.362  0.00  0.00    +0.174 A 
ATOM     16  C   UNL     1       3.643   3.092  26.095  0.00  0.00    +0.174 A 
ATOM     17  C   UNL     1       4.270   1.838  25.958  0.00  0.00    +0.061 A 
BRANCH  15  18
ATOM     18  O   UNL     1       2.898   4.942  27.482  0.00  0.00    -0.422 OA
BRANCH  18  19
ATOM     19  C   UNL     1       3.694   6.092  27.410  0.00  0.00    +0.309 C 
ATOM     20  C   UNL     1       4.099   6.540  28.783  0.00  0.00    +0.136 C 
ATOM     21  O   UNL     1       4.048   6.680  26.397  0.00  0.00    -0.251 OA
ENDBRANCH  18  19
ENDBRANCH  15  18
BRANCH  16  22
ATOM     22  O   UNL     1       3.087   3.794  24.992  0.00  0.00    -0.422 OA
BRANCH  22  23
ATOM     23  C   UNL     1       2.259   3.185  24.046  0.00  0.00    +0.309 C 
ATOM     24  C   UNL     1       2.832   3.353  22.668  0.00  0.00    +0.136 C 
ATOM     25  O   UNL     1       1.214   2.587  24.265  0.00  0.00    -0.251 OA
ENDBRANCH  22  23
ENDBRANCH  16  22
ENDBRANCH  11  12
BRANCH   7  26
ATOM     26  O   UNL     1       4.622  -6.042  27.202  0.00  0.00    -0.426 OA
BRANCH  26  27
ATOM     27  C   UNL     1       4.790  -6.783  28.368  0.00  0.00    +0.309 C 
ATOM     28  C   UNL     1       3.630  -6.531  29.287  0.00  0.00    +0.136 C 
ATOM     29  O   UNL     1       5.727  -7.522  28.637  0.00  0.00    -0.251 OA
ENDBRANCH  26  27
ENDBRANCH   7  26
BRANCH   5  30
ATOM     30  O   UNL     1       8.843  -3.955  26.229  0.00  0.00    -0.425 OA
BRANCH  30  31
ATOM     31  C   UNL     1       9.419  -4.733  25.228  0.00  0.00    +0.309 C 
ATOM     32  C   UNL     1       8.453  -4.875  24.083  0.00  0.00    +0.136 C 
ATOM     33  O   UNL     1      10.533  -5.238  25.255  0.00  0.00    -0.251 OA
ENDBRANCH  30  31
ENDBRANCH   5  30
BRANCH   1  34
ATOM     34  O   UNL     1       7.657   1.192  26.429  0.00  0.00    -0.452 OA
BRANCH  34  37
ATOM     35  C   UNL     1       8.986   1.847  23.115  0.00  0.00    +0.204 C 
ATOM     36  O   UNL     1       8.945   1.352  24.472  0.00  0.00    -0.328 OA
ATOM     37  C   UNL     1       7.746   1.820  25.149  0.00  0.00    +0.353 C 
ATOM     38  C   UNL     1       7.826   3.372  25.269  0.00  0.00    +0.289 C 
ATOM     39  C   UNL     1       7.826   3.905  23.813  0.00  0.00    +0.266 C 
ATOM     40  C   UNL     1       9.117   3.387  23.129  0.00  0.00    +0.253 C 
BRANCH  38  41
ATOM     41  O   UNL     1       6.765   3.958  26.055  0.00  0.00    -0.451 OA
BRANCH  41  42
ATOM     42  C   UNL     1       7.164   4.544  27.220  0.00  0.00    +0.305 C 
ATOM     43  C   UNL     1       7.424   6.004  27.018  0.00  0.00    +0.136 C 
ATOM     44  O   UNL     1       7.255   3.987  28.311  0.00  0.00    -0.251 OA
ENDBRANCH  41  42
ENDBRANCH  38  41
BRANCH  39  45
ATOM     45  O   UNL     1       7.756   5.345  23.781  0.00  0.00    -0.454 OA
BRANCH  45  46
ATOM     46  C   UNL     1       6.677   5.853  23.129  0.00  0.00    +0.304 C 
ATOM     47  C   UNL     1       7.097   6.599  21.899  0.00  0.00    +0.136 C 
ATOM     48  O   UNL     1       5.519   5.769  23.516  0.00  0.00    -0.251 OA
ENDBRANCH  45  46
ENDBRANCH  39  45
BRANCH  35  49
ATOM     49  C   UNL     1      10.021   1.088  22.283  0.00  0.00    +0.267 C 
BRANCH  49  50
ATOM     50  O   UNL     1       9.393   0.043  21.508  0.00  0.00    -0.462 OA
BRANCH  50  52
ATOM     51  C   UNL     1       8.114  -1.733  22.386  0.00  0.00    +0.136 C 
ATOM     52  C   UNL     1       9.475  -1.216  22.025  0.00  0.00    +0.304 C 
ATOM     53  O   UNL     1      10.514  -1.832  22.220  0.00  0.00    -0.251 OA
ENDBRANCH  50  52
ENDBRANCH  49  50
ENDBRANCH  35  49
BRANCH  40  54
ATOM     54  O   UNL     1      10.167   3.884  24.008  0.00  0.00    -0.455 OA
BRANCH  54  55
ATOM     55  C   UNL     1      11.208   4.624  23.595  0.00  0.00    +0.304 C 
ATOM     56  C   UNL     1      11.015   6.037  24.067  0.00  0.00    +0.136 C 
ATOM     57  O   UNL     1      12.137   4.226  22.908  0.00  0.00    -0.251 OA
ENDBRANCH  54  55
ENDBRANCH  40  54
ENDBRANCH  34  37
ENDBRANCH   1  34
TORSDOF 20
ENDMDL
MODEL 2
REMARK VINA RESULT:      -6.1      2.252      9.460
REMARK  Name = 
REMARK  28 active torsions:
REMARK  status: ('A' for Active; 'I' for Inactive)
REMARK    1  A    between atoms: C_1  and  C_2
REMARK    2  A    between atoms: C_2  and  O_4
REMARK    3  A    between atoms: O_4  and  C_5
REMARK    4  A    between atoms: C_5  and  C_6
REMARK    5  A    between atoms: C_8  and  O_59
REMARK    6  A    between atoms: C_10  and  O_55
REMARK    7  A    between atoms: C_12  and  O_51
REMARK    8  A    between atoms: C_14  and  O_17
REMARK    9  A    between atoms: O_17  and  C_18
REMARK   10  A    between atoms: C_19  and  C_37
REMARK   11  A    between atoms: C_25  and  O_33
REMARK   12  A    between atoms: C_27  and  O_29
REMARK   13  A    between atoms: O_29  and  C_30
REMARK   14  A    between atoms: C_30  and  C_32
REMARK   15  A    between atoms: O_33  and  C_34
REMARK   16  A    between atoms: C_34  and  C_36
REMARK   17  A    between atoms: C_39  and  O_47
REMARK   18  A    between atoms: C_40  and  O_43
REMARK   19  A    between atoms: O_43  and  C_44
REMARK   20  A    between atoms: C_44  and  C_46
REMARK   21  A    between atoms: O_47  and  C_48
REMARK   22  A    between atoms: C_48  and  C_50
REMARK   23  A    between atoms: O_51  and  C_52
REMARK   24  A    between atoms: C_52  and  C_54
REMARK   25  A    between atoms: O_55  and  C_56
REMARK   26  A    between atoms: C_56  and  C_58
REMARK   27  A    between atoms: O_59  and  C_60
REMARK   28  A    between atoms: C_60  and  C_62
REMARK                            x       y       z     vdW  Elec       q    Type
REMARK                         _______ _______ _______ _____ _____    ______ ____
ROOT
ATOM      1  C   UNL     1       6.588   1.629  24.036  0.00  0.00    +0.214 A 
ATOM      2  C   UNL     1       6.397   3.119  23.947  0.00  0.00    +0.238 A 
ATOM      3  O   UNL     1       5.293   3.650  23.899  0.00  0.00    -0.283 OA
ATOM      4  C   UNL     1       7.593   3.970  23.873  0.00  0.00    +0.110 A 
ATOM      5  C   UNL     1       7.514   5.374  23.874  0.00  0.00    +0.150 A 
ATOM      6  C   UNL     1       8.668   6.144  23.771  0.00  0.00    +0.093 A 
ATOM      7  C   UNL     1       9.901   5.502  23.644  0.00  0.00    +0.139 A 
ATOM      8  C   UNL     1       9.994   4.110  23.671  0.00  0.00    +0.093 A 
ATOM      9  C   UNL     1       8.828   3.344  23.782  0.00  0.00    +0.147 A 
ATOM     10  O   UNL     1       8.976   1.982  23.803  0.00  0.00    -0.451 OA
ATOM     11  C   UNL     1       7.857   1.166  23.939  0.00  0.00    +0.181 A 
ENDROOT
BRANCH  11  12
ATOM     12  C   UNL     1       8.227  -0.288  23.901  0.00  0.00    +0.025 A 
ATOM     13  C   UNL     1       8.894  -0.907  24.972  0.00  0.00    +0.015 A 
ATOM     14  C   UNL     1       9.121  -2.282  24.999  0.00  0.00    +0.051 A 
ATOM     15  C   UNL     1       8.611  -3.097  23.991  0.00  0.00    +0.174 A 
ATOM     16  C   UNL     1       7.978  -2.509  22.890  0.00  0.00    +0.174 A 
ATOM     17  C   UNL     1       7.814  -1.111  22.834  0.00  0.00    +0.061 A 
BRANCH  15  18
ATOM     18  O   UNL     1       8.745  -4.504  24.046  0.00  0.00    -0.422 OA
BRANCH  18  19
ATOM     19  C   UNL     1       9.348  -5.092  25.165  0.00  0.00    +0.309 C 
ATOM     20  C   UNL     1       8.315  -5.452  26.191  0.00  0.00    +0.136 C 
ATOM     21  O   UNL     1      10.539  -5.317  25.327  0.00  0.00    -0.251 OA
ENDBRANCH  18  19
ENDBRANCH  15  18
BRANCH  16  22
ATOM     22  O   UNL     1       7.568  -3.370  21.836  0.00  0.00    -0.422 OA
BRANCH  22  23
ATOM     23  C   UNL     1       6.298  -3.951  21.783  0.00  0.00    +0.309 C 
ATOM     24  C   UNL     1       6.405  -5.402  21.411  0.00  0.00    +0.136 C 
ATOM     25  O   UNL     1       5.231  -3.396  22.006  0.00  0.00    -0.251 OA
ENDBRANCH  22  23
ENDBRANCH  16  22
ENDBRANCH  11  12
BRANCH   7  26
ATOM     26  O   UNL     1      11.017   6.361  23.581  0.00  0.00    -0.426 OA
BRANCH  26  27
ATOM     27  C   UNL     1      12.206   6.082  24.250  0.00  0.00    +0.309 C 
ATOM     28  C   UNL     1      12.245   6.861  25.533  0.00  0.00    +0.136 C 
ATOM     29  O   UNL     1      13.100   5.337  23.874  0.00  0.00    -0.251 OA
ENDBRANCH  26  27
ENDBRANCH   7  26
BRANCH   5  30
ATOM     30  O   UNL     1       6.252   5.979  24.096  0.00  0.00    -0.425 OA
BRANCH  30  31
ATOM     31  C   UNL     1       5.830   6.473  25.328  0.00  0.00    +0.309 C 
ATOM     32  C   UNL     1       4.473   7.104  25.178  0.00  0.00    +0.136 C 
ATOM     33  O   UNL     1       6.452   6.420  26.381  0.00  0.00    -0.251 OA
ENDBRANCH  30  31
ENDBRANCH   5  30
BRANCH   1  34
ATOM     34  O   UNL     1       5.519   0.745  24.185  0.00  0.00    -0.452 OA
BRANCH  34  37
ATOM     35  C   UNL     1       5.198  -2.382  26.001  0.00  0.00    +0.204 C 
ATOM     36  O   UNL     1       5.119  -1.458  24.892  0.00  0.00    -0.328 OA
ATOM     37  C   UNL     1       5.455  -0.111  25.327  0.00  0.00    +0.353 C 
ATOM     38  C   UNL     1       4.373   0.359  26.344  0.00  0.00    +0.289 C 
ATOM     39  C   UNL     1       4.487  -0.606  27.553  0.00  0.00    +0.266 C 
ATOM     40  C   UNL     1       4.121  -2.026  27.050  0.00  0.00    +0.253 C 
BRANCH  38  41
ATOM     41  O   UNL     1       4.502   1.740  26.747  0.00  0.00    -0.451 OA
BRANCH  41  42
ATOM     42  C   UNL     1       3.438   2.535  26.437  0.00  0.00    +0.305 C 
ATOM     43  C   UNL     1       3.576   3.880  27.079  0.00  0.00    +0.136 C 
ATOM     44  O   UNL     1       2.507   2.234  25.694  0.00  0.00    -0.251 OA
ENDBRANCH  41  42
ENDBRANCH  38  41
BRANCH  39  45
ATOM     45  O   UNL     1       3.630  -0.194  28.636  0.00  0.00    -0.454 OA
BRANCH  45  46
ATOM     46  C   UNL     1       4.111  -0.453  29.881  0.00  0.00    +0.304 C 
ATOM     47  C   UNL     1       3.428  -1.643  30.483  0.00  0.00    +0.136 C 
ATOM     48  O   UNL     1       4.949   0.222  30.463  0.00  0.00    -0.251 OA
ENDBRANCH  45  46
ENDBRANCH  39  45
BRANCH  35  49
ATOM     49  C   UNL     1       5.212  -3.831  25.510  0.00  0.00    +0.267 C 
BRANCH  49  50
ATOM     50  O   UNL     1       4.867  -4.740  26.579  0.00  0.00    -0.462 OA
BRANCH  50  52
ATOM     51  C   UNL     1       4.908  -6.226  24.750  0.00  0.00    +0.136 C 
ATOM     52  C   UNL     1       4.659  -6.037  26.216  0.00  0.00    +0.304 C 
ATOM     53  O   UNL     1       4.272  -6.925  26.964  0.00  0.00    -0.251 OA
ENDBRANCH  50  52
ENDBRANCH  49  50
ENDBRANCH  35  49
BRANCH  40  54
ATOM     54  O   UNL     1       2.790  -1.833  26.489  0.00  0.00    -0.455 OA
BRANCH  54  55
ATOM     55  C   UNL     1       1.720  -2.573  26.818  0.00  0.00    +0.304 C 
ATOM     56  C   UNL     1       0.494  -1.705  26.766  0.00  0.00    +0.136 C 
ATOM     57  O   UNL     1       1.742  -3.749  27.152  0.00  0.00    -0.251 OA
ENDBRANCH  54  55
ENDBRANCH  40  54
ENDBRANCH  34  37
ENDBRANCH   1  34
TORSDOF 20
ENDMDL
MODEL 3
REMARK VINA RESULT:      -5.9      2.356      9.689
REMARK  Name = 
REMARK  28 active torsions:
REMARK  status: ('A' for Active; 'I' for Inactive)
REMARK    1  A    between atoms: C_1  and  C_2
REMARK    2  A    between atoms: C_2  and  O_4
REMARK    3  A    between atoms: O_4  and  C_5
REMARK    4  A    between atoms: C_5  and  C_6
REMARK    5  A    between atoms: C_8  and  O_59
REMARK    6  A    between atoms: C_10  and  O_55
REMARK    7  A    between atoms: C_12  and  O_51
REMARK    8  A    between atoms: C_14  and  O_17
REMARK    9  A    between atoms: O_17  and  C_18
REMARK   10  A    between atoms: C_19  and  C_37
REMARK   11  A    between atoms: C_25  and  O_33
REMARK   12  A    between atoms: C_27  and  O_29
REMARK   13  A    between atoms: O_29  and  C_30
REMARK   14  A    between atoms: C_30  and  C_32
REMARK   15  A    between atoms: O_33  and  C_34
REMARK   16  A    between atoms: C_34  and  C_36
REMARK   17  A    between atoms: C_39  and  O_47
REMARK   18  A    between atoms: C_40  and  O_43
REMARK   19  A    between atoms: O_43  and  C_44
REMARK   20  A    between atoms: C_44  and  C_46
REMARK   21  A    between atoms: O_47  and  C_48
REMARK   22  A    between atoms: C_48  and  C_50
REMARK   23  A    between atoms: O_51  and  C_52
REMARK   24  A    between atoms: C_52  and  C_54
REMARK   25  A    between atoms: O_55  and  C_56
REMARK   26  A    between atoms: C_56  and  C_58
REMARK   27  A    between atoms: O_59  and  C_60
REMARK   28  A    between atoms: C_60  and  C_62
REMARK                            x       y       z     vdW  Elec       q    Type
REMARK                         _______ _______ _______ _____ _____    ______ ____
ROOT
ATOM      1  C   UNL     1       6.765   1.085  24.247  0.00  0.00    +0.214 A 
ATOM      2  C   UNL     1       7.116   2.543  24.369  0.00  0.00    +0.238 A 
ATOM      3  O   UNL     1       6.290   3.410  24.633  0.00  0.00    -0.283 OA
ATOM      4  C   UNL     1       8.506   2.946  24.117  0.00  0.00    +0.110 A 
ATOM      5  C   UNL     1       8.944   4.271  24.289  0.00  0.00    +0.150 A 
ATOM      6  C   UNL     1      10.262   4.619  24.010  0.00  0.00    +0.093 A 
ATOM      7  C   UNL     1      11.135   3.638  23.535  0.00  0.00    +0.139 A 
ATOM      8  C   UNL     1      10.719   2.314  23.387  0.00  0.00    +0.093 A 
ATOM      9  C   UNL     1       9.393   1.973  23.678  0.00  0.00    +0.147 A 
ATOM     10  O   UNL     1       9.037   0.660  23.515  0.00  0.00    -0.451 OA
ATOM     11  C   UNL     1       7.741   0.252  23.813  0.00  0.00    +0.181 A 
ENDROOT
BRANCH  11  12
ATOM     12  C   UNL     1       7.544  -1.209  23.532  0.00  0.00    +0.025 A 
ATOM     13  C   UNL     1       6.695  -1.654  22.504  0.00  0.00    +0.015 A 
ATOM     14  C   UNL     1       6.611  -3.001  22.153  0.00  0.00    +0.051 A 
ATOM     15  C   UNL     1       7.441  -3.938  22.764  0.00  0.00    +0.174 A 
ATOM     16  C   UNL     1       8.268  -3.535  23.819  0.00  0.00    +0.174 A 
ATOM     17  C   UNL     1       8.296  -2.184  24.217  0.00  0.00    +0.061 A 
BRANCH  15  18
ATOM     18  O   UNL     1       7.443  -5.293  22.358  0.00  0.00    -0.422 OA
BRANCH  18  19
ATOM     19  C   UNL     1       6.255  -5.871  21.896  0.00  0.00    +0.309 C 
ATOM     20  C   UNL     1       5.408  -6.326  23.047  0.00  0.00    +0.136 C 
ATOM     21  O   UNL     1       5.902  -6.001  20.731  0.00  0.00    -0.251 OA
ENDBRANCH  18  19
ENDBRANCH  15  18
BRANCH  16  22
ATOM     22  O   UNL     1       9.018  -4.543  24.482  0.00  0.00    -0.422 OA
BRANCH  22  23
ATOM     23  C   UNL     1       8.870  -4.827  25.842  0.00  0.00    +0.309 C 
ATOM     24  C   UNL     1       7.572  -5.541  26.087  0.00  0.00    +0.136 C 
ATOM     25  O   UNL     1       9.661  -4.556  26.736  0.00  0.00    -0.251 OA
ENDBRANCH  22  23
ENDBRANCH  16  22
ENDBRANCH  11  12
BRANCH   7  26
ATOM     26  O   UNL     1      12.457   4.073  23.312  0.00  0.00    -0.426 OA
BRANCH  26  27
ATOM     27  C   UNL     1      12.816   5.418  23.372  0.00  0.00    +0.309 C 
ATOM     28  C   UNL     1      13.416   5.829  22.060  0.00  0.00    +0.136 C 
ATOM     29  O   UNL     1      12.687   6.166  24.331  0.00  0.00    -0.251 OA
ENDBRANCH  26  27
ENDBRANCH   7  26
BRANCH   5  30
ATOM     30  O   UNL     1       8.049   5.209  24.859  0.00  0.00    -0.425 OA
BRANCH  30  31
ATOM     31  C   UNL     1       7.400   6.207  24.137  0.00  0.00    +0.309 C 
ATOM     32  C   UNL     1       8.022   6.326  22.773  0.00  0.00    +0.136 C 
ATOM     33  O   UNL     1       6.469   6.897  24.531  0.00  0.00    -0.251 OA
ENDBRANCH  30  31
ENDBRANCH   5  30
BRANCH   1  34
ATOM     34  O   UNL     1       5.491   0.595  24.539  0.00  0.00    -0.452 OA
BRANCH  34  37
ATOM     35  C   UNL     1       4.646  -2.493  26.251  0.00  0.00    +0.204 C 
ATOM     36  O   UNL     1       4.708  -1.525  25.181  0.00  0.00    -0.328 OA
ATOM     37  C   UNL     1       5.302  -0.282  25.651  0.00  0.00    +0.353 C 
ATOM     38  C   UNL     1       4.356   0.336  26.724  0.00  0.00    +0.289 C 
ATOM     39  C   UNL     1       4.323  -0.683  27.891  0.00  0.00    +0.266 C 
ATOM     40  C   UNL     1       3.684  -1.989  27.350  0.00  0.00    +0.253 C 
BRANCH  38  41
ATOM     41  O   UNL     1       4.751   1.651  27.171  0.00  0.00    -0.451 OA
BRANCH  41  42
ATOM     42  C   UNL     1       3.750   2.575  27.209  0.00  0.00    +0.305 C 
ATOM     43  C   UNL     1       3.089   2.698  25.872  0.00  0.00    +0.136 C 
ATOM     44  O   UNL     1       3.383   3.199  28.202  0.00  0.00    -0.251 OA
ENDBRANCH  41  42
ENDBRANCH  38  41
BRANCH  39  45
ATOM     45  O   UNL     1       3.589  -0.167  29.019  0.00  0.00    -0.454 OA
BRANCH  45  46
ATOM     46  C   UNL     1       3.329  -1.072  30.000  0.00  0.00    +0.304 C 
ATOM     47  C   UNL     1       1.917  -0.946  30.485  0.00  0.00    +0.136 C 
ATOM     48  O   UNL     1       4.148  -1.850  30.471  0.00  0.00    -0.251 OA
ENDBRANCH  45  46
ENDBRANCH  39  45
BRANCH  35  49
ATOM     49  C   UNL     1       4.376  -3.898  25.708  0.00  0.00    +0.267 C 
BRANCH  49  50
ATOM     50  O   UNL     1       4.129  -4.828  26.785  0.00  0.00    -0.462 OA
BRANCH  50  52
ATOM     51  C   UNL     1       2.520  -6.116  25.641  0.00  0.00    +0.136 C 
ATOM     52  C   UNL     1       3.804  -6.098  26.415  0.00  0.00    +0.304 C 
ATOM     53  O   UNL     1       4.438  -7.103  26.711  0.00  0.00    -0.251 OA
ENDBRANCH  50  52
ENDBRANCH  49  50
ENDBRANCH  35  49
BRANCH  40  54
ATOM     54  O   UNL     1       2.397  -1.529  26.846  0.00  0.00    -0.455 OA
BRANCH  54  55
ATOM     55  C   UNL     1       1.412  -2.346  26.441  0.00  0.00    +0.304 C 
ATOM     56  C   UNL     1       0.962  -3.179  27.608  0.00  0.00    +0.136 C 
ATOM     57  O   UNL     1       0.983  -2.434  25.300  0.00  0.00    -0.251 OA
ENDBRANCH  54  55
ENDBRANCH  40  54
ENDBRANCH  34  37
ENDBRANCH   1  34
TORSDOF 20
ENDMDL
MODEL 4
REMARK VINA RESULT:      -5.6      1.687      2.575
REMARK  Name = 
REMARK  28 active torsions:
REMARK  status: ('A' for Active; 'I' for Inactive)
REMARK    1  A    between atoms: C_1  and  C_2
REMARK    2  A    between atoms: C_2  and  O_4
REMARK    3  A    between atoms: O_4  and  C_5
REMARK    4  A    between atoms: C_5  and  C_6
REMARK    5  A    between atoms: C_8  and  O_59
REMARK    6  A    between atoms: C_10  and  O_55
REMARK    7  A    between atoms: C_12  and  O_51
REMARK    8  A    between atoms: C_14  and  O_17
REMARK    9  A    between atoms: O_17  and  C_18
REMARK   10  A    between atoms: C_19  and  C_37
REMARK   11  A    between atoms: C_25  and  O_33
REMARK   12  A    between atoms: C_27  and  O_29
REMARK   13  A    between atoms: O_29  and  C_30
REMARK   14  A    between atoms: C_30  and  C_32
REMARK   15  A    between atoms: O_33  and  C_34
REMARK   16  A    between atoms: C_34  and  C_36
REMARK   17  A    between atoms: C_39  and  O_47
REMARK   18  A    between atoms: C_40  and  O_43
REMARK   19  A    between atoms: O_43  and  C_44
REMARK   20  A    between atoms: C_44  and  C_46
REMARK   21  A    between atoms: O_47  and  C_48
REMARK   22  A    between atoms: C_48  and  C_50
REMARK   23  A    between atoms: O_51  and  C_52
REMARK   24  A    between atoms: C_52  and  C_54
REMARK   25  A    between atoms: O_55  and  C_56
REMARK   26  A    between atoms: C_56  and  C_58
REMARK   27  A    between atoms: O_59  and  C_60
REMARK   28  A    between atoms: C_60  and  C_62
REMARK                            x       y       z     vdW  Elec       q    Type
REMARK                         _______ _______ _______ _____ _____    ______ ____
ROOT
ATOM      1  C   UNL     1       6.282   0.169  25.918  0.00  0.00    +0.214 A 
ATOM      2  C   UNL     1       6.816  -1.183  25.529  0.00  0.00    +0.238 A 
ATOM      3  O   UNL     1       7.961  -1.359  25.127  0.00  0.00    -0.283 OA
ATOM      4  C   UNL     1       5.906  -2.334  25.597  0.00  0.00    +0.110 A 
ATOM      5  C   UNL     1       6.339  -3.646  25.335  0.00  0.00    +0.150 A 
ATOM      6  C   UNL     1       5.439  -4.707  25.378  0.00  0.00    +0.093 A 
ATOM      7  C   UNL     1       4.098  -4.445  25.663  0.00  0.00    +0.139 A 
ATOM      8  C   UNL     1       3.663  -3.151  25.953  0.00  0.00    +0.093 A 
ATOM      9  C   UNL     1       4.577  -2.092  25.913  0.00  0.00    +0.147 A 
ATOM     10  O   UNL     1       4.097  -0.842  26.205  0.00  0.00    -0.451 OA
ATOM     11  C   UNL     1       4.961   0.248  26.209  0.00  0.00    +0.181 A 
ENDROOT
BRANCH  11  12
ATOM     12  C   UNL     1       4.236   1.526  26.514  0.00  0.00    +0.025 A 
ATOM     13  C   UNL     1       3.563   2.247  25.512  0.00  0.00    +0.015 A 
ATOM     14  C   UNL     1       2.778   3.360  25.812  0.00  0.00    +0.051 A 
ATOM     15  C   UNL     1       2.571   3.737  27.137  0.00  0.00    +0.174 A 
ATOM     16  C   UNL     1       3.259   3.065  28.155  0.00  0.00    +0.174 A 
ATOM     17  C   UNL     1       4.107   1.986  27.839  0.00  0.00    +0.061 A 
BRANCH  15  18
ATOM     18  O   UNL     1       1.703   4.802  27.471  0.00  0.00    -0.422 OA
BRANCH  18  19
ATOM     19  C   UNL     1       1.484   5.825  26.540  0.00  0.00    +0.309 C 
ATOM     20  C   UNL     1       2.500   6.916  26.708  0.00  0.00    +0.136 C 
ATOM     21  O   UNL     1       0.613   5.867  25.683  0.00  0.00    -0.251 OA
ENDBRANCH  18  19
ENDBRANCH  15  18
BRANCH  16  22
ATOM     22  O   UNL     1       3.100   3.551  29.480  0.00  0.00    -0.422 OA
BRANCH  22  23
ATOM     23  C   UNL     1       4.060   4.341  30.118  0.00  0.00    +0.309 C 
ATOM     24  C   UNL     1       3.534   5.733  30.326  0.00  0.00    +0.136 C 
ATOM     25  O   UNL     1       5.176   3.989  30.477  0.00  0.00    -0.251 OA
ENDBRANCH  22  23
ENDBRANCH  16  22
ENDBRANCH  11  12
BRANCH   7  26
ATOM     26  O   UNL     1       3.267  -5.582  25.720  0.00  0.00    -0.426 OA
BRANCH  26  27
ATOM     27  C   UNL     1       3.199  -6.504  24.678  0.00  0.00    +0.309 C 
ATOM     28  C   UNL     1       2.515  -5.872  23.501  0.00  0.00    +0.136 C 
ATOM     29  O   UNL     1       3.610  -7.656  24.694  0.00  0.00    -0.251 OA
ENDBRANCH  26  27
ENDBRANCH   7  26
BRANCH   5  30
ATOM     30  O   UNL     1       7.724  -3.874  25.141  0.00  0.00    -0.425 OA
BRANCH  30  31
ATOM     31  C   UNL     1       8.252  -4.633  24.099  0.00  0.00    +0.309 C 
ATOM     32  C   UNL     1       7.655  -4.180  22.795  0.00  0.00    +0.136 C 
ATOM     33  O   UNL     1       9.070  -5.536  24.204  0.00  0.00    -0.251 OA
ENDBRANCH  30  31
ENDBRANCH   5  30
BRANCH   1  34
ATOM     34  O   UNL     1       7.087   1.308  25.959  0.00  0.00    -0.452 OA
BRANCH  34  37
ATOM     35  C   UNL     1       8.647   2.326  22.843  0.00  0.00    +0.204 C 
ATOM     36  O   UNL     1       8.504   1.666  24.120  0.00  0.00    -0.328 OA
ATOM     37  C   UNL     1       7.277   2.089  24.778  0.00  0.00    +0.353 C 
ATOM     38  C   UNL     1       7.395   3.609  25.099  0.00  0.00    +0.289 C 
ATOM     39  C   UNL     1       7.505   4.321  23.727  0.00  0.00    +0.266 C 
ATOM     40  C   UNL     1       8.822   3.845  23.061  0.00  0.00    +0.253 C 
BRANCH  38  41
ATOM     41  O   UNL     1       6.303   4.131  25.888  0.00  0.00    -0.451 OA
BRANCH  41  42
ATOM     42  C   UNL     1       6.647   4.579  27.129  0.00  0.00    +0.305 C 
ATOM     43  C   UNL     1       6.020   5.909  27.407  0.00  0.00    +0.136 C 
ATOM     44  O   UNL     1       7.333   3.972  27.948  0.00  0.00    -0.251 OA
ENDBRANCH  41  42
ENDBRANCH  38  41
BRANCH  39  45
ATOM     45  O   UNL     1       7.479   5.755  23.875  0.00  0.00    -0.454 OA
BRANCH  45  46
ATOM     46  C   UNL     1       6.697   6.412  22.977  0.00  0.00    +0.304 C 
ATOM     47  C   UNL     1       5.307   6.590  23.507  0.00  0.00    +0.136 C 
ATOM     48  O   UNL     1       7.054   6.763  21.861  0.00  0.00    -0.251 OA
ENDBRANCH  45  46
ENDBRANCH  39  45
BRANCH  35  49
ATOM     49  C   UNL     1       9.712   1.639  21.984  0.00  0.00    +0.267 C 
BRANCH  49  50
ATOM     50  O   UNL     1      10.259   0.488  22.665  0.00  0.00    -0.462 OA
BRANCH  50  52
ATOM     51  C   UNL     1      10.561  -1.834  22.933  0.00  0.00    +0.136 C 
ATOM     52  C   UNL     1       9.903  -0.728  22.163  0.00  0.00    +0.304 C 
ATOM     53  O   UNL     1       9.185  -0.906  21.188  0.00  0.00    -0.251 OA
ENDBRANCH  50  52
ENDBRANCH  49  50
ENDBRANCH  35  49
BRANCH  40  54
ATOM     54  O   UNL     1       9.826   4.188  24.059  0.00  0.00    -0.455 OA
BRANCH  54  55
ATOM     55  C   UNL     1      11.016   4.739  23.772  0.00  0.00    +0.304 C 
ATOM     56  C   UNL     1      10.988   6.188  24.171  0.00  0.00    +0.136 C 
ATOM     57  O   UNL     1      11.953   4.171  23.231  0.00  0.00    -0.251 OA
ENDBRANCH  54  55
ENDBRANCH  40  54
ENDBRANCH  34  37
ENDBRANCH   1  34
TORSDOF 20
ENDMDL
MODEL 5
REMARK VINA RESULT:      -5.6      2.252      7.733
REMARK  Name = 
REMARK  28 active torsions:
REMARK  status: ('A' for Active; 'I' for Inactive)
REMARK    1  A    between atoms: C_1  and  C_2
REMARK    2  A    between atoms: C_2  and  O_4
REMARK    3  A    between atoms: O_4  and  C_5
REMARK    4  A    between atoms: C_5  and  C_6
REMARK    5  A    between atoms: C_8  and  O_59
REMARK    6  A    between atoms: C_10  and  O_55
REMARK    7  A    between atoms: C_12  and  O_51
REMARK    8  A    between atoms: C_14  and  O_17
REMARK    9  A    between atoms: O_17  and  C_18
REMARK   10  A    between atoms: C_19  and  C_37
REMARK   11  A    between atoms: C_25  and  O_33
REMARK   12  A    between atoms: C_27  and  O_29
REMARK   13  A    between atoms: O_29  and  C_30
REMARK   14  A    between atoms: C_30  and  C_32
REMARK   15  A    between atoms: O_33  and  C_34
REMARK   16  A    between atoms: C_34  and  C_36
REMARK   17  A    between atoms: C_39  and  O_47
REMARK   18  A    between atoms: C_40  and  O_43
REMARK   19  A    between atoms: O_43  and  C_44
REMARK   20  A    between atoms: C_44  and  C_46
REMARK   21  A    between atoms: O_47  and  C_48
REMARK   22  A    between atoms: C_48  and  C_50
REMARK   23  A    between atoms: O_51  and  C_52
REMARK   24  A    between atoms: C_52  and  C_54
REMARK   25  A    between atoms: O_55  and  C_56
REMARK   26  A    between atoms: C_56  and  C_58
REMARK   27  A    between atoms: O_59  and  C_60
REMARK   28  A    between atoms: C_60  and  C_62
REMARK                            x       y       z     vdW  Elec       q    Type
REMARK                         _______ _______ _______ _____ _____    ______ ____
ROOT
ATOM      1  C   UNL     1       6.437   1.120  25.465  0.00  0.00    +0.214 A 
ATOM      2  C   UNL     1       7.829   0.897  24.939  0.00  0.00    +0.238 A 
ATOM      3  O   UNL     1       8.360  -0.208  24.901  0.00  0.00    -0.283 OA
ATOM      4  C   UNL     1       8.597   2.066  24.490  0.00  0.00    +0.110 A 
ATOM      5  C   UNL     1       9.871   1.945  23.906  0.00  0.00    +0.150 A 
ATOM      6  C   UNL     1      10.580   3.079  23.522  0.00  0.00    +0.093 A 
ATOM      7  C   UNL     1      10.019   4.337  23.747  0.00  0.00    +0.139 A 
ATOM      8  C   UNL     1       8.744   4.468  24.300  0.00  0.00    +0.093 A 
ATOM      9  C   UNL     1       8.035   3.321  24.676  0.00  0.00    +0.147 A 
ATOM     10  O   UNL     1       6.789   3.506  25.214  0.00  0.00    -0.451 OA
ATOM     11  C   UNL     1       6.023   2.404  25.583  0.00  0.00    +0.181 A 
ENDROOT
BRANCH  11  12
ATOM     12  C   UNL     1       4.712   2.820  26.184  0.00  0.00    +0.025 A 
ATOM     13  C   UNL     1       4.606   3.186  27.537  0.00  0.00    +0.015 A 
ATOM     14  C   UNL     1       3.422   3.699  28.067  0.00  0.00    +0.051 A 
ATOM     15  C   UNL     1       2.330   3.944  27.238  0.00  0.00    +0.174 A 
ATOM     16  C   UNL     1       2.390   3.553  25.895  0.00  0.00    +0.174 A 
ATOM     17  C   UNL     1       3.564   2.969  25.381  0.00  0.00    +0.061 A 
BRANCH  15  18
ATOM     18  O   UNL     1       1.154   4.553  27.733  0.00  0.00    -0.422 OA
BRANCH  18  19
ATOM     19  C   UNL     1       1.228   5.835  28.292  0.00  0.00    +0.309 C 
ATOM     20  C   UNL     1       1.469   6.861  27.226  0.00  0.00    +0.136 C 
ATOM     21  O   UNL     1       1.108   6.131  29.473  0.00  0.00    -0.251 OA
ENDBRANCH  18  19
ENDBRANCH  15  18
BRANCH  16  22
ATOM     22  O   UNL     1       1.216   3.725  25.112  0.00  0.00    -0.422 OA
BRANCH  22  23
ATOM     23  C   UNL     1       1.175   3.466  23.740  0.00  0.00    +0.309 C 
ATOM     24  C   UNL     1       1.552   4.698  22.966  0.00  0.00    +0.136 C 
ATOM     25  O   UNL     1       0.886   2.405  23.204  0.00  0.00    -0.251 OA
ENDBRANCH  22  23
ENDBRANCH  16  22
ENDBRANCH  11  12
BRANCH   7  26
ATOM     26  O   UNL     1      10.792   5.425  23.296  0.00  0.00    -0.426 OA
BRANCH  26  27
ATOM     27  C   UNL     1      12.098   5.638  23.731  0.00  0.00    +0.309 C 
ATOM     28  C   UNL     1      13.048   5.359  22.604  0.00  0.00    +0.136 C 
ATOM     29  O   UNL     1      12.447   5.986  24.851  0.00  0.00    -0.251 OA
ENDBRANCH  26  27
ENDBRANCH   7  26
BRANCH   5  30
ATOM     30  O   UNL     1      10.359   0.647  23.614  0.00  0.00    -0.425 OA
BRANCH  30  31
ATOM     31  C   UNL     1      10.119  -0.027  22.419  0.00  0.00    +0.309 C 
ATOM     32  C   UNL     1      10.489  -1.477  22.577  0.00  0.00    +0.136 C 
ATOM     33  O   UNL     1       9.681   0.463  21.387  0.00  0.00    -0.251 OA
ENDBRANCH  30  31
ENDBRANCH   5  30
BRANCH   1  34
ATOM     34  O   UNL     1       5.602   0.068  25.844  0.00  0.00    -0.452 OA
BRANCH  34  37
ATOM     35  C   UNL     1       6.116  -2.851  23.748  0.00  0.00    +0.204 C 
ATOM     36  O   UNL     1       5.622  -1.552  24.144  0.00  0.00    -0.328 OA
ATOM     37  C   UNL     1       5.965  -1.278  25.531  0.00  0.00    +0.353 C 
ATOM     38  C   UNL     1       5.216  -2.306  26.431  0.00  0.00    +0.289 C 
ATOM     39  C   UNL     1       5.777  -3.696  26.036  0.00  0.00    +0.266 C 
ATOM     40  C   UNL     1       5.390  -3.950  24.557  0.00  0.00    +0.253 C 
BRANCH  38  41
ATOM     41  O   UNL     1       5.350  -2.056  27.848  0.00  0.00    -0.451 OA
BRANCH  41  42
ATOM     42  C   UNL     1       4.178  -1.853  28.514  0.00  0.00    +0.305 C 
ATOM     43  C   UNL     1       4.013  -0.410  28.873  0.00  0.00    +0.136 C 
ATOM     44  O   UNL     1       3.329  -2.710  28.753  0.00  0.00    -0.251 OA
ENDBRANCH  41  42
ENDBRANCH  38  41
BRANCH  39  45
ATOM     45  O   UNL     1       5.266  -4.733  26.898  0.00  0.00    -0.454 OA
BRANCH  45  46
ATOM     46  C   UNL     1       6.210  -5.414  27.601  0.00  0.00    +0.304 C 
ATOM     47  C   UNL     1       5.761  -5.653  29.009  0.00  0.00    +0.136 C 
ATOM     48  O   UNL     1       7.306  -5.742  27.167  0.00  0.00    -0.251 OA
ENDBRANCH  45  46
ENDBRANCH  39  45
BRANCH  35  49
ATOM     49  C   UNL     1       6.095  -3.007  22.226  0.00  0.00    +0.267 C 
BRANCH  49  50
ATOM     50  O   UNL     1       7.031  -4.021  21.799  0.00  0.00    -0.462 OA
BRANCH  50  52
ATOM     51  C   UNL     1       6.765  -6.345  22.091  0.00  0.00    +0.136 C 
ATOM     52  C   UNL     1       6.488  -5.140  21.242  0.00  0.00    +0.304 C 
ATOM     53  O   UNL     1       5.896  -5.179  20.172  0.00  0.00    -0.251 OA
ENDBRANCH  50  52
ENDBRANCH  49  50
ENDBRANCH  35  49
BRANCH  40  54
ATOM     54  O   UNL     1       3.940  -3.810  24.577  0.00  0.00    -0.455 OA
BRANCH  54  55
ATOM     55  C   UNL     1       3.097  -4.610  23.906  0.00  0.00    +0.304 C 
ATOM     56  C   UNL     1       1.800  -4.691  24.661  0.00  0.00    +0.136 C 
ATOM     57  O   UNL     1       3.356  -5.213  22.874  0.00  0.00    -0.251 OA
ENDBRANCH  54  55
ENDBRANCH  40  54
ENDBRANCH  34  37
ENDBRANCH   1  34
TORSDOF 20
ENDMDL
MODEL 6
REMARK VINA RESULT:      -5.5      2.067      6.270
REMARK  Name = 
REMARK  28 active torsions:
REMARK  status: ('A' for Active; 'I' for Inactive)
REMARK    1  A    between atoms: C_1  and  C_2
REMARK    2  A    between atoms: C_2  and  O_4
REMARK    3  A    between atoms: O_4  and  C_5
REMARK    4  A    between atoms: C_5  and  C_6
REMARK    5  A    between atoms: C_8  and  O_59
REMARK    6  A    between atoms: C_10  and  O_55
REMARK    7  A    between atoms: C_12  and  O_51
REMARK    8  A    between atoms: C_14  and  O_17
REMARK    9  A    between atoms: O_17  and  C_18
REMARK   10  A    between atoms: C_19  and  C_37
REMARK   11  A    between atoms: C_25  and  O_33
REMARK   12  A    between atoms: C_27  and  O_29
REMARK   13  A    between atoms: O_29  and  C_30
REMARK   14  A    between atoms: C_30  and  C_32
REMARK   15  A    between atoms: O_33  and  C_34
REMARK   16  A    between atoms: C_34  and  C_36
REMARK   17  A    between atoms: C_39  and  O_47
REMARK   18  A    between atoms: C_40  and  O_43
REMARK   19  A    between atoms: O_43  and  C_44
REMARK   20  A    between atoms: C_44  and  C_46
REMARK   21  A    between atoms: O_47  and  C_48
REMARK   22  A    between atoms: C_48  and  C_50
REMARK   23  A    between atoms: O_51  and  C_52
REMARK   24  A    between atoms: C_52  and  C_54
REMARK   25  A    between atoms: O_55  and  C_56
REMARK   26  A    between atoms: C_56  and  C_58
REMARK   27  A    between atoms: O_59  and  C_60
REMARK   28  A    between atoms: C_60  and  C_62
REMARK                            x       y       z     vdW  Elec       q    Type
REMARK                         _______ _______ _______ _____ _____    ______ ____
ROOT
ATOM      1  C   UNL     1       7.454   0.497  26.029  0.00  0.00    +0.214 A 
ATOM      2  C   UNL     1       6.845  -0.852  26.300  0.00  0.00    +0.238 A 
ATOM      3  O   UNL     1       6.151  -1.087  27.283  0.00  0.00    -0.283 OA
ATOM      4  C   UNL     1       7.134  -1.945  25.362  0.00  0.00    +0.110 A 
ATOM      5  C   UNL     1       6.542  -3.214  25.487  0.00  0.00    +0.150 A 
ATOM      6  C   UNL     1       6.866  -4.233  24.596  0.00  0.00    +0.093 A 
ATOM      7  C   UNL     1       7.802  -3.982  23.592  0.00  0.00    +0.139 A 
ATOM      8  C   UNL     1       8.374  -2.718  23.440  0.00  0.00    +0.093 A 
ATOM      9  C   UNL     1       8.037  -1.698  24.337  0.00  0.00    +0.147 A 
ATOM     10  O   UNL     1       8.627  -0.477  24.144  0.00  0.00    -0.451 OA
ATOM     11  C   UNL     1       8.313   0.585  24.986  0.00  0.00    +0.181 A 
ENDROOT
BRANCH  11  12
ATOM     12  C   UNL     1       9.092   1.819  24.632  0.00  0.00    +0.025 A 
ATOM     13  C   UNL     1      10.263   1.753  23.857  0.00  0.00    +0.015 A 
ATOM     14  C   UNL     1      10.914   2.904  23.414  0.00  0.00    +0.051 A 
ATOM     15  C   UNL     1      10.365   4.160  23.661  0.00  0.00    +0.174 A 
ATOM     16  C   UNL     1       9.224   4.262  24.464  0.00  0.00    +0.174 A 
ATOM     17  C   UNL     1       8.609   3.099  24.968  0.00  0.00    +0.061 A 
BRANCH  15  18
ATOM     18  O   UNL     1      10.956   5.335  23.141  0.00  0.00    -0.422 OA
BRANCH  18  19
ATOM     19  C   UNL     1      12.253   5.685  23.539  0.00  0.00    +0.309 C 
ATOM     20  C   UNL     1      13.208   5.561  22.389  0.00  0.00    +0.136 C 
ATOM     21  O   UNL     1      12.607   6.057  24.648  0.00  0.00    -0.251 OA
ENDBRANCH  18  19
ENDBRANCH  15  18
BRANCH  16  22
ATOM     22  O   UNL     1       8.760   5.569  24.777  0.00  0.00    -0.422 OA
BRANCH  22  23
ATOM     23  C   UNL     1       7.515   6.050  24.364  0.00  0.00    +0.309 C 
ATOM     24  C   UNL     1       7.566   6.450  22.917  0.00  0.00    +0.136 C 
ATOM     25  O   UNL     1       6.505   6.145  25.047  0.00  0.00    -0.251 OA
ENDBRANCH  22  23
ENDBRANCH  16  22
ENDBRANCH  11  12
BRANCH   7  26
ATOM     26  O   UNL     1       8.041  -5.060  22.715  0.00  0.00    -0.426 OA
BRANCH  26  27
ATOM     27  C   UNL     1       7.010  -5.716  22.048  0.00  0.00    +0.309 C 
ATOM     28  C   UNL     1       6.302  -4.743  21.151  0.00  0.00    +0.136 C 
ATOM     29  O   UNL     1       6.697  -6.894  22.163  0.00  0.00    -0.251 OA
ENDBRANCH  26  27
ENDBRANCH   7  26
BRANCH   5  30
ATOM     30  O   UNL     1       5.531  -3.395  26.463  0.00  0.00    -0.425 OA
BRANCH  30  31
ATOM     31  C   UNL     1       5.674  -4.193  27.596  0.00  0.00    +0.309 C 
ATOM     32  C   UNL     1       4.372  -4.236  28.348  0.00  0.00    +0.136 C 
ATOM     33  O   UNL     1       6.691  -4.774  27.949  0.00  0.00    -0.251 OA
ENDBRANCH  30  31
ENDBRANCH   5  30
BRANCH   1  34
ATOM     34  O   UNL     1       7.179   1.614  26.819  0.00  0.00    -0.452 OA
BRANCH  34  37
ATOM     35  C   UNL     1       3.975   3.159  26.094  0.00  0.00    +0.204 C 
ATOM     36  O   UNL     1       5.385   2.870  25.970  0.00  0.00    -0.328 OA
ATOM     37  C   UNL     1       5.826   2.006  27.055  0.00  0.00    +0.353 C 
ATOM     38  C   UNL     1       5.672   2.786  28.394  0.00  0.00    +0.289 C 
ATOM     39  C   UNL     1       4.153   3.058  28.549  0.00  0.00    +0.266 C 
ATOM     40  C   UNL     1       3.725   3.981  27.379  0.00  0.00    +0.253 C 
BRANCH  38  41
ATOM     41  O   UNL     1       6.213   2.097  29.543  0.00  0.00    -0.451 OA
BRANCH  41  42
ATOM     42  C   UNL     1       7.362   2.630  30.049  0.00  0.00    +0.305 C 
ATOM     43  C   UNL     1       8.301   1.549  30.485  0.00  0.00    +0.136 C 
ATOM     44  O   UNL     1       7.638   3.826  30.104  0.00  0.00    -0.251 OA
ENDBRANCH  41  42
ENDBRANCH  38  41
BRANCH  39  45
ATOM     45  O   UNL     1       3.854   3.657  29.826  0.00  0.00    -0.454 OA
BRANCH  45  46
ATOM     46  C   UNL     1       2.531   3.739  30.127  0.00  0.00    +0.304 C 
ATOM     47  C   UNL     1       1.922   2.375  30.240  0.00  0.00    +0.136 C 
ATOM     48  O   UNL     1       1.900   4.781  30.236  0.00  0.00    -0.251 OA
ENDBRANCH  45  46
ENDBRANCH  39  45
BRANCH  35  49
ATOM     49  C   UNL     1       3.417   3.746  24.796  0.00  0.00    +0.267 C 
BRANCH  49  50
ATOM     50  O   UNL     1       4.485   4.130  23.903  0.00  0.00    -0.462 OA
BRANCH  50  52
ATOM     51  C   UNL     1       5.931   3.105  22.349  0.00  0.00    +0.136 C 
ATOM     52  C   UNL     1       4.524   3.483  22.705  0.00  0.00    +0.304 C 
ATOM     53  O   UNL     1       3.557   3.276  21.983  0.00  0.00    -0.251 OA
ENDBRANCH  50  52
ENDBRANCH  49  50
ENDBRANCH  35  49
BRANCH  40  54
ATOM     54  O   UNL     1       4.615   5.125  27.532  0.00  0.00    -0.455 OA
BRANCH  54  55
ATOM     55  C   UNL     1       4.199   6.368  27.820  0.00  0.00    +0.304 C 
ATOM     56  C   UNL     1       5.317   7.106  28.501  0.00  0.00    +0.136 C 
ATOM     57  O   UNL     1       3.081   6.813  27.608  0.00  0.00    -0.251 OA
ENDBRANCH  54  55
ENDBRANCH  40  54
ENDBRANCH  34  37
ENDBRANCH   1  34
TORSDOF 20
ENDMDL
MODEL 7
REMARK VINA RESULT:      -5.4      2.468     10.088
REMARK  Name = 
REMARK  28 active torsions:
REMARK  status: ('A' for Active; 'I' for Inactive)
REMARK    1  A    between atoms: C_1  and  C_2
REMARK    2  A    between atoms: C_2  and  O_4
REMARK    3  A    between atoms: O_4  and  C_5
REMARK    4  A    between atoms: C_5  and  C_6
REMARK    5  A    between atoms: C_8  and  O_59
REMARK    6  A    between atoms: C_10  and  O_55
REMARK    7  A    between atoms: C_12  and  O_51
REMARK    8  A    between atoms: C_14  and  O_17
REMARK    9  A    between atoms: O_17  and  C_18
REMARK   10  A    between atoms: C_19  and  C_37
REMARK   11  A    between atoms: C_25  and  O_33
REMARK   12  A    between atoms: C_27  and  O_29
REMARK   13  A    between atoms: O_29  and  C_30
REMARK   14  A    between atoms: C_30  and  C_32
REMARK   15  A    between atoms: O_33  and  C_34
REMARK   16  A    between atoms: C_34  and  C_36
REMARK   17  A    between atoms: C_39  and  O_47
REMARK   18  A    between atoms: C_40  and  O_43
REMARK   19  A    between atoms: O_43  and  C_44
REMARK   20  A    between atoms: C_44  and  C_46
REMARK   21  A    between atoms: O_47  and  C_48
REMARK   22  A    between atoms: C_48  and  C_50
REMARK   23  A    between atoms: O_51  and  C_52
REMARK   24  A    between atoms: C_52  and  C_54
REMARK   25  A    between atoms: O_55  and  C_56
REMARK   26  A    between atoms: C_56  and  C_58
REMARK   27  A    between atoms: O_59  and  C_60
REMARK   28  A    between atoms: C_60  and  C_62
REMARK                            x       y       z     vdW  Elec       q    Type
REMARK                         _______ _______ _______ _____ _____    ______ ____
ROOT
ATOM      1  C   UNL     1       5.280   0.423  25.546  0.00  0.00    +0.214 A 
ATOM      2  C   UNL     1       5.221   1.830  26.076  0.00  0.00    +0.238 A 
ATOM      3  O   UNL     1       4.244   2.285  26.660  0.00  0.00    -0.283 OA
ATOM      4  C   UNL     1       6.377   2.708  25.844  0.00  0.00    +0.110 A 
ATOM      5  C   UNL     1       6.447   4.008  26.375  0.00  0.00    +0.150 A 
ATOM      6  C   UNL     1       7.545   4.820  26.106  0.00  0.00    +0.093 A 
ATOM      7  C   UNL     1       8.562   4.333  25.284  0.00  0.00    +0.139 A 
ATOM      8  C   UNL     1       8.516   3.034  24.775  0.00  0.00    +0.093 A 
ATOM      9  C   UNL     1       7.411   2.222  25.057  0.00  0.00    +0.147 A 
ATOM     10  O   UNL     1       7.417   0.956  24.532  0.00  0.00    -0.451 OA
ATOM     11  C   UNL     1       6.360   0.092  24.799  0.00  0.00    +0.181 A 
ENDROOT
BRANCH  11  12
ATOM     12  C   UNL     1       6.537  -1.226  24.104  0.00  0.00    +0.025 A 
ATOM     13  C   UNL     1       6.002  -1.463  22.826  0.00  0.00    +0.015 A 
ATOM     14  C   UNL     1       6.276  -2.635  22.121  0.00  0.00    +0.051 A 
ATOM     15  C   UNL     1       7.166  -3.573  22.639  0.00  0.00    +0.174 A 
ATOM     16  C   UNL     1       7.683  -3.387  23.926  0.00  0.00    +0.174 A 
ATOM     17  C   UNL     1       7.347  -2.235  24.663  0.00  0.00    +0.061 A 
BRANCH  15  18
ATOM     18  O   UNL     1       7.533  -4.722  21.902  0.00  0.00    -0.422 OA
BRANCH  18  19
ATOM     19  C   UNL     1       6.533  -5.579  21.425  0.00  0.00    +0.309 C 
ATOM     20  C   UNL     1       6.167  -6.593  22.468  0.00  0.00    +0.136 C 
ATOM     21  O   UNL     1       5.992  -5.541  20.329  0.00  0.00    -0.251 OA
ENDBRANCH  18  19
ENDBRANCH  15  18
BRANCH  16  22
ATOM     22  O   UNL     1       8.503  -4.421  24.456  0.00  0.00    -0.422 OA
BRANCH  22  23
ATOM     23  C   UNL     1       8.242  -5.043  25.679  0.00  0.00    +0.309 C 
ATOM     24  C   UNL     1       9.287  -4.662  26.690  0.00  0.00    +0.136 C 
ATOM     25  O   UNL     1       7.308  -5.791  25.935  0.00  0.00    -0.251 OA
ENDBRANCH  22  23
ENDBRANCH  16  22
ENDBRANCH  11  12
BRANCH   7  26
ATOM     26  O   UNL     1       9.649   5.210  25.095  0.00  0.00    -0.426 OA
BRANCH  26  27
ATOM     27  C   UNL     1       9.926   5.792  23.861  0.00  0.00    +0.309 C 
ATOM     28  C   UNL     1      11.389   5.640  23.559  0.00  0.00    +0.136 C 
ATOM     29  O   UNL     1       9.130   6.355  23.123  0.00  0.00    -0.251 OA
ENDBRANCH  26  27
ENDBRANCH   7  26
BRANCH   5  30
ATOM     30  O   UNL     1       5.437   4.425  27.276  0.00  0.00    -0.425 OA
BRANCH  30  31
ATOM     31  C   UNL     1       5.148   5.757  27.564  0.00  0.00    +0.309 C 
ATOM     32  C   UNL     1       5.625   6.086  28.952  0.00  0.00    +0.136 C 
ATOM     33  O   UNL     1       4.590   6.553  26.821  0.00  0.00    -0.251 OA
ENDBRANCH  30  31
ENDBRANCH   5  30
BRANCH   1  34
ATOM     34  O   UNL     1       4.266  -0.507  25.780  0.00  0.00    -0.452 OA
BRANCH  34  37
ATOM     35  C   UNL     1       4.233  -4.128  25.519  0.00  0.00    +0.204 C 
ATOM     36  O   UNL     1       3.811  -2.763  25.307  0.00  0.00    -0.328 OA
ATOM     37  C   UNL     1       4.599  -1.853  26.126  0.00  0.00    +0.353 C 
ATOM     38  C   UNL     1       4.298  -2.159  27.623  0.00  0.00    +0.289 C 
ATOM     39  C   UNL     1       4.790  -3.609  27.862  0.00  0.00    +0.266 C 
ATOM     40  C   UNL     1       3.927  -4.544  26.976  0.00  0.00    +0.253 C 
BRANCH  38  41
ATOM     41  O   UNL     1       4.902  -1.228  28.548  0.00  0.00    -0.451 OA
BRANCH  41  42
ATOM     42  C   UNL     1       4.025  -0.453  29.247  0.00  0.00    +0.305 C 
ATOM     43  C   UNL     1       4.715   0.741  29.828  0.00  0.00    +0.136 C 
ATOM     44  O   UNL     1       2.817  -0.654  29.357  0.00  0.00    -0.251 OA
ENDBRANCH  41  42
ENDBRANCH  38  41
BRANCH  39  45
ATOM     45  O   UNL     1       4.698  -3.973  29.254  0.00  0.00    -0.454 OA
BRANCH  45  46
ATOM     46  C   UNL     1       5.275  -5.161  29.578  0.00  0.00    +0.304 C 
ATOM     47  C   UNL     1       4.388  -5.958  30.484  0.00  0.00    +0.136 C 
ATOM     48  O   UNL     1       6.392  -5.515  29.229  0.00  0.00    -0.251 OA
ENDBRANCH  45  46
ENDBRANCH  39  45
BRANCH  35  49
ATOM     49  C   UNL     1       3.690  -5.049  24.425  0.00  0.00    +0.267 C 
BRANCH  49  50
ATOM     50  O   UNL     1       3.468  -6.381  24.936  0.00  0.00    -0.462 OA
BRANCH  50  52
ATOM     51  C   UNL     1       2.153  -6.494  22.982  0.00  0.00    +0.136 C 
ATOM     52  C   UNL     1       2.815  -7.240  24.103  0.00  0.00    +0.304 C 
ATOM     53  O   UNL     1       2.728  -8.450  24.263  0.00  0.00    -0.251 OA
ENDBRANCH  50  52
ENDBRANCH  49  50
ENDBRANCH  35  49
BRANCH  40  54
ATOM     54  O   UNL     1       2.571  -4.233  27.408  0.00  0.00    -0.455 OA
BRANCH  54  55
ATOM     55  C   UNL     1       1.602  -5.149  27.565  0.00  0.00    +0.304 C 
ATOM     56  C   UNL     1       0.566  -4.947  26.496  0.00  0.00    +0.136 C 
ATOM     57  O   UNL     1       1.546  -5.981  28.459  0.00  0.00    -0.251 OA
ENDBRANCH  54  55
ENDBRANCH  40  54
ENDBRANCH  34  37
ENDBRANCH   1  34
TORSDOF 20
ENDMDL
MODEL 8
REMARK VINA RESULT:      -5.1      2.172      8.537
REMARK  Name = 
REMARK  28 active torsions:
REMARK  status: ('A' for Active; 'I' for Inactive)
REMARK    1  A    between atoms: C_1  and  C_2
REMARK    2  A    between atoms: C_2  and  O_4
REMARK    3  A    between atoms: O_4  and  C_5
REMARK    4  A    between atoms: C_5  and  C_6
REMARK    5  A    between atoms: C_8  and  O_59
REMARK    6  A    between atoms: C_10  and  O_55
REMARK    7  A    between atoms: C_12  and  O_51
REMARK    8  A    between atoms: C_14  and  O_17
REMARK    9  A    between atoms: O_17  and  C_18
REMARK   10  A    between atoms: C_19  and  C_37
REMARK   11  A    between atoms: C_25  and  O_33
REMARK   12  A    between atoms: C_27  and  O_29
REMARK   13  A    between atoms: O_29  and  C_30
REMARK   14  A    between atoms: C_30  and  C_32
REMARK   15  A    between atoms: O_33  and  C_34
REMARK   16  A    between atoms: C_34  and  C_36
REMARK   17  A    between atoms: C_39  and  O_47
REMARK   18  A    between atoms: C_40  and  O_43
REMARK   19  A    between atoms: O_43  and  C_44
REMARK   20  A    between atoms: C_44  and  C_46
REMARK   21  A    between atoms: O_47  and  C_48
REMARK   22  A    between atoms: C_48  and  C_50
REMARK   23  A    between atoms: O_51  and  C_52
REMARK   24  A    between atoms: C_52  and  C_54
REMARK   25  A    between atoms: O_55  and  C_56
REMARK   26  A    between atoms: C_56  and  C_58
REMARK   27  A    between atoms: O_59  and  C_60
REMARK   28  A    between atoms: C_60  and  C_62
REMARK                            x       y       z     vdW  Elec       q    Type
REMARK                         _______ _______ _______ _____ _____    ______ ____
ROOT
ATOM      1  C   UNL     1       4.634   0.318  26.011  0.00  0.00    +0.214 A 
ATOM      2  C   UNL     1       5.082   1.740  25.804  0.00  0.00    +0.238 A 
ATOM      3  O   UNL     1       5.910   2.064  24.959  0.00  0.00    -0.283 OA
ATOM      4  C   UNL     1       4.528   2.778  26.684  0.00  0.00    +0.110 A 
ATOM      5  C   UNL     1       4.822   4.142  26.510  0.00  0.00    +0.150 A 
ATOM      6  C   UNL     1       4.303   5.091  27.384  0.00  0.00    +0.093 A 
ATOM      7  C   UNL     1       3.506   4.667  28.448  0.00  0.00    +0.139 A 
ATOM      8  C   UNL     1       3.184   3.319  28.615  0.00  0.00    +0.093 A 
ATOM      9  C   UNL     1       3.706   2.372  27.725  0.00  0.00    +0.147 A 
ATOM     10  O   UNL     1       3.359   1.063  27.934  0.00  0.00    -0.451 OA
ATOM     11  C   UNL     1       3.823   0.078  27.069  0.00  0.00    +0.181 A 
ENDROOT
BRANCH  11  12
ATOM     12  C   UNL     1       3.365  -1.287  27.491  0.00  0.00    +0.025 A 
ATOM     13  C   UNL     1       2.163  -1.840  27.016  0.00  0.00    +0.015 A 
ATOM     14  C   UNL     1       1.798  -3.156  27.299  0.00  0.00    +0.051 A 
ATOM     15  C   UNL     1       2.669  -3.991  27.996  0.00  0.00    +0.174 A 
ATOM     16  C   UNL     1       3.854  -3.460  28.518  0.00  0.00    +0.174 A 
ATOM     17  C   UNL     1       4.184  -2.110  28.290  0.00  0.00    +0.061 A 
BRANCH  15  18
ATOM     18  O   UNL     1       2.364  -5.355  28.212  0.00  0.00    -0.422 OA
BRANCH  18  19
ATOM     19  C   UNL     1       2.307  -6.226  27.116  0.00  0.00    +0.309 C 
ATOM     20  C   UNL     1       3.432  -5.948  26.164  0.00  0.00    +0.136 C 
ATOM     21  O   UNL     1       1.487  -7.112  26.923  0.00  0.00    -0.251 OA
ENDBRANCH  18  19
ENDBRANCH  15  18
BRANCH  16  22
ATOM     22  O   UNL     1       4.660  -4.320  29.313  0.00  0.00    -0.422 OA
BRANCH  22  23
ATOM     23  C   UNL     1       5.730  -5.051  28.791  0.00  0.00    +0.309 C 
ATOM     24  C   UNL     1       5.748  -6.436  29.373  0.00  0.00    +0.136 C 
ATOM     25  O   UNL     1       6.553  -4.661  27.974  0.00  0.00    -0.251 OA
ENDBRANCH  22  23
ENDBRANCH  16  22
ENDBRANCH  11  12
BRANCH   7  26
ATOM     26  O   UNL     1       2.996   5.700  29.261  0.00  0.00    -0.426 OA
BRANCH  26  27
ATOM     27  C   UNL     1       1.632   5.853  29.498  0.00  0.00    +0.309 C 
ATOM     28  C   UNL     1       1.008   6.578  28.341  0.00  0.00    +0.136 C 
ATOM     29  O   UNL     1       1.015   5.478  30.485  0.00  0.00    -0.251 OA
ENDBRANCH  26  27
ENDBRANCH   7  26
BRANCH   5  30
ATOM     30  O   UNL     1       5.559   4.533  25.364  0.00  0.00    -0.425 OA
BRANCH  30  31
ATOM     31  C   UNL     1       6.574   5.487  25.377  0.00  0.00    +0.309 C 
ATOM     32  C   UNL     1       7.792   4.916  26.048  0.00  0.00    +0.136 C 
ATOM     33  O   UNL     1       6.506   6.621  24.924  0.00  0.00    -0.251 OA
ENDBRANCH  30  31
ENDBRANCH   5  30
BRANCH   1  34
ATOM     34  O   UNL     1       5.046  -0.724  25.180  0.00  0.00    -0.452 OA
BRANCH  34  37
ATOM     35  C   UNL     1       8.660  -0.860  25.490  0.00  0.00    +0.204 C 
ATOM     36  O   UNL     1       7.360  -0.327  25.153  0.00  0.00    -0.328 OA
ATOM     37  C   UNL     1       6.327  -1.327  25.372  0.00  0.00    +0.353 C 
ATOM     38  C   UNL     1       6.569  -2.505  24.382  0.00  0.00    +0.289 C 
ATOM     39  C   UNL     1       7.944  -3.104  24.772  0.00  0.00    +0.266 C 
ATOM     40  C   UNL     1       9.015  -2.011  24.522  0.00  0.00    +0.253 C 
BRANCH  38  41
ATOM     41  O   UNL     1       5.526  -3.505  24.390  0.00  0.00    -0.451 OA
BRANCH  41  42
ATOM     42  C   UNL     1       4.931  -3.730  23.184  0.00  0.00    +0.305 C 
ATOM     43  C   UNL     1       5.645  -2.995  22.093  0.00  0.00    +0.136 C 
ATOM     44  O   UNL     1       3.972  -4.472  22.982  0.00  0.00    -0.251 OA
ENDBRANCH  41  42
ENDBRANCH  38  41
BRANCH  39  45
ATOM     45  O   UNL     1       8.229  -4.300  24.018  0.00  0.00    -0.454 OA
BRANCH  45  46
ATOM     46  C   UNL     1       8.945  -5.244  24.686  0.00  0.00    +0.304 C 
ATOM     47  C   UNL     1       9.127  -4.861  26.123  0.00  0.00    +0.136 C 
ATOM     48  O   UNL     1       9.429  -6.246  24.178  0.00  0.00    -0.251 OA
ENDBRANCH  45  46
ENDBRANCH  39  45
BRANCH  35  49
ATOM     49  C   UNL     1       9.697   0.258  25.620  0.00  0.00    +0.267 C 
BRANCH  49  50
ATOM     50  O   UNL     1       9.179   1.504  25.104  0.00  0.00    -0.462 OA
BRANCH  50  52
ATOM     51  C   UNL     1       8.954   2.867  23.194  0.00  0.00    +0.136 C 
ATOM     52  C   UNL     1       9.865   2.051  24.061  0.00  0.00    +0.304 C 
ATOM     53  O   UNL     1      11.052   1.868  23.824  0.00  0.00    -0.251 OA
ENDBRANCH  50  52
ENDBRANCH  49  50
ENDBRANCH  35  49
BRANCH  40  54
ATOM     54  O   UNL     1       8.818  -1.685  23.116  0.00  0.00    -0.455 OA
BRANCH  54  55
ATOM     55  C   UNL     1       9.807  -1.342  22.277  0.00  0.00    +0.304 C 
ATOM     56  C   UNL     1       9.289  -0.311  21.314  0.00  0.00    +0.136 C 
ATOM     57  O   UNL     1      10.931  -1.822  22.265  0.00  0.00    -0.251 OA
ENDBRANCH  54  55
ENDBRANCH  40  54
ENDBRANCH  34  37
ENDBRANCH   1  34
TORSDOF 20
ENDMDL
MODEL 9
REMARK VINA RESULT:      -5.0      2.601      8.810
REMARK  Name = 
REMARK  28 active torsions:
REMARK  status: ('A' for Active; 'I' for Inactive)
REMARK    1  A    between atoms: C_1  and  C_2
REMARK    2  A    between atoms: C_2  and  O_4
REMARK    3  A    between atoms: O_4  and  C_5
REMARK    4  A    between atoms: C_5  and  C_6
REMARK    5  A    between atoms: C_8  and  O_59
REMARK    6  A    between atoms: C_10  and  O_55
REMARK    7  A    between atoms: C_12  and  O_51
REMARK    8  A    between atoms: C_14  and  O_17
REMARK    9  A    between atoms: O_17  and  C_18
REMARK   10  A    between atoms: C_19  and  C_37
REMARK   11  A    between atoms: C_25  and  O_33
REMARK   12  A    between atoms: C_27  and  O_29
REMARK   13  A    between atoms: O_29  and  C_30
REMARK   14  A    between atoms: C_30  and  C_32
REMARK   15  A    between atoms: O_33  and  C_34
REMARK   16  A    between atoms: C_34  and  C_36
REMARK   17  A    between atoms: C_39  and  O_47
REMARK   18  A    between atoms: C_40  and  O_43
REMARK   19  A    between atoms: O_43  and  C_44
REMARK   20  A    between atoms: C_44  and  C_46
REMARK   21  A    between atoms: O_47  and  C_48
REMARK   22  A    between atoms: C_48  and  C_50
REMARK   23  A    between atoms: O_51  and  C_52
REMARK   24  A    between atoms: C_52  and  C_54
REMARK   25  A    between atoms: O_55  and  C_56
REMARK   26  A    between atoms: C_56  and  C_58
REMARK   27  A    between atoms: O_59  and  C_60
REMARK   28  A    between atoms: C_60  and  C_62
REMARK                            x       y       z     vdW  Elec       q    Type
REMARK                         _______ _______ _______ _____ _____    ______ ____
ROOT
ATOM      1  C   UNL     1       7.150  -0.324  26.142  0.00  0.00    +0.214 A 
ATOM      2  C   UNL     1       8.282  -0.025  25.198  0.00  0.00    +0.238 A 
ATOM      3  O   UNL     1       9.005  -0.894  24.724  0.00  0.00    -0.283 OA
ATOM      4  C   UNL     1       8.556   1.380  24.864  0.00  0.00    +0.110 A 
ATOM      5  C   UNL     1       9.537   1.749  23.927  0.00  0.00    +0.150 A 
ATOM      6  C   UNL     1       9.787   3.092  23.662  0.00  0.00    +0.093 A 
ATOM      7  C   UNL     1       9.067   4.065  24.356  0.00  0.00    +0.139 A 
ATOM      8  C   UNL     1       8.071   3.710  25.268  0.00  0.00    +0.093 A 
ATOM      9  C   UNL     1       7.822   2.356  25.522  0.00  0.00    +0.147 A 
ATOM     10  O   UNL     1       6.835   2.063  26.426  0.00  0.00    -0.451 OA
ATOM     11  C   UNL     1       6.521   0.737  26.702  0.00  0.00    +0.181 A 
ENDROOT
BRANCH  11  12
ATOM     12  C   UNL     1       5.444   0.630  27.742  0.00  0.00    +0.025 A 
ATOM     13  C   UNL     1       4.542   1.682  27.980  0.00  0.00    +0.015 A 
ATOM     14  C   UNL     1       3.460   1.539  28.848  0.00  0.00    +0.051 A 
ATOM     15  C   UNL     1       3.196   0.307  29.443  0.00  0.00    +0.174 A 
ATOM     16  C   UNL     1       4.097  -0.748  29.260  0.00  0.00    +0.174 A 
ATOM     17  C   UNL     1       5.228  -0.576  28.438  0.00  0.00    +0.061 A 
BRANCH  15  18
ATOM     18  O   UNL     1       2.052   0.112  30.251  0.00  0.00    -0.422 OA
BRANCH  18  19
ATOM     19  C   UNL     1       0.957  -0.589  29.730  0.00  0.00    +0.309 C 
ATOM     20  C   UNL     1       0.466   0.061  28.471  0.00  0.00    +0.136 C 
ATOM     21  O   UNL     1       0.443  -1.600  30.189  0.00  0.00    -0.251 OA
ENDBRANCH  18  19
ENDBRANCH  15  18
BRANCH  16  22
ATOM     22  O   UNL     1       3.845  -1.952  29.971  0.00  0.00    -0.422 OA
BRANCH  22  23
ATOM     23  C   UNL     1       3.607  -3.173  29.334  0.00  0.00    +0.309 C 
ATOM     24  C   UNL     1       4.820  -4.054  29.425  0.00  0.00    +0.136 C 
ATOM     25  O   UNL     1       2.574  -3.517  28.775  0.00  0.00    -0.251 OA
ENDBRANCH  22  23
ENDBRANCH  16  22
ENDBRANCH  11  12
BRANCH   7  26
ATOM     26  O   UNL     1       9.363   5.396  23.998  0.00  0.00    -0.426 OA
BRANCH  26  27
ATOM     27  C   UNL     1       9.050   6.473  24.823  0.00  0.00    +0.309 C 
ATOM     28  C   UNL     1      10.241   6.806  25.674  0.00  0.00    +0.136 C 
ATOM     29  O   UNL     1       7.982   7.066  24.879  0.00  0.00    -0.251 OA
ENDBRANCH  26  27
ENDBRANCH   7  26
BRANCH   5  30
ATOM     30  O   UNL     1      10.177   0.728  23.182  0.00  0.00    -0.425 OA
BRANCH  30  31
ATOM     31  C   UNL     1       9.734   0.272  21.942  0.00  0.00    +0.309 C 
ATOM     32  C   UNL     1      10.161  -1.158  21.751  0.00  0.00    +0.136 C 
ATOM     33  O   UNL     1       9.100   0.917  21.118  0.00  0.00    -0.251 OA
ENDBRANCH  30  31
ENDBRANCH   5  30
BRANCH   1  34
ATOM     34  O   UNL     1       6.766  -1.627  26.461  0.00  0.00    -0.452 OA
BRANCH  34  37
ATOM     35  C   UNL     1       3.890  -3.333  25.048  0.00  0.00    +0.204 C 
ATOM     36  O   UNL     1       4.708  -2.680  26.043  0.00  0.00    -0.328 OA
ATOM     37  C   UNL     1       6.036  -2.407  25.513  0.00  0.00    +0.353 C 
ATOM     38  C   UNL     1       6.734  -3.769  25.220  0.00  0.00    +0.289 C 
ATOM     39  C   UNL     1       5.880  -4.451  24.121  0.00  0.00    +0.266 C 
ATOM     40  C   UNL     1       4.479  -4.725  24.725  0.00  0.00    +0.253 C 
BRANCH  38  41
ATOM     41  O   UNL     1       8.119  -3.648  24.826  0.00  0.00    -0.451 OA
BRANCH  41  42
ATOM     42  C   UNL     1       8.968  -4.536  25.415  0.00  0.00    +0.305 C 
ATOM     43  C   UNL     1       8.423  -5.001  26.729  0.00  0.00    +0.136 C 
ATOM     44  O   UNL     1      10.018  -4.956  24.934  0.00  0.00    -0.251 OA
ENDBRANCH  41  42
ENDBRANCH  38  41
BRANCH  39  45
ATOM     45  O   UNL     1       6.498  -5.666  23.653  0.00  0.00    -0.454 OA
BRANCH  45  46
ATOM     46  C   UNL     1       6.860  -5.661  22.342  0.00  0.00    +0.304 C 
ATOM     47  C   UNL     1       5.672  -5.892  21.459  0.00  0.00    +0.136 C 
ATOM     48  O   UNL     1       8.006  -5.542  21.931  0.00  0.00    -0.251 OA
ENDBRANCH  45  46
ENDBRANCH  39  45
BRANCH  35  49
ATOM     49  C   UNL     1       2.412  -3.299  25.441  0.00  0.00    +0.267 C 
BRANCH  49  50
ATOM     50  O   UNL     1       1.594  -3.920  24.425  0.00  0.00    -0.462 OA
BRANCH  50  52
ATOM     51  C   UNL     1       0.485  -4.940  26.238  0.00  0.00    +0.136 C 
ATOM     52  C   UNL     1       0.916  -5.040  24.805  0.00  0.00    +0.304 C 
ATOM     53  O   UNL     1       0.723  -6.021  24.100  0.00  0.00    -0.251 OA
ENDBRANCH  50  52
ENDBRANCH  49  50
ENDBRANCH  35  49
BRANCH  40  54
ATOM     54  O   UNL     1       4.789  -5.525  25.902  0.00  0.00    -0.455 OA
BRANCH  54  55
ATOM     55  C   UNL     1       4.028  -6.536  26.348  0.00  0.00    +0.304 C 
ATOM     56  C   UNL     1       3.710  -7.447  25.196  0.00  0.00    +0.136 C 
ATOM     57  O   UNL     1       3.620  -6.671  27.492  0.00  0.00    -0.251 OA
ENDBRANCH  54  55
ENDBRANCH  40  54
ENDBRANCH  34  37
ENDBRANCH   1  34
TORSDOF 20
ENDMDL
