MODEL 1
REMARK VINA RESULT:      -8.1      0.000      0.000
REMARK  Name = 
REMARK  14 active torsions:
REMARK  status: ('A' for Active; 'I' for Inactive)
REMARK    1  A    between atoms: C_1  and  C_2
REMARK    2  A    between atoms: C_2  and  O_4
REMARK    3  A    between atoms: O_4  and  C_5
REMARK    4  A    between atoms: C_5  and  C_6
REMARK    5  A    between atoms: C_7  and  O_39
REMARK    6  A    between atoms: C_9  and  O_38
REMARK    7  A    between atoms: C_11  and  O_37
REMARK    8  A    between atoms: C_12  and  O_15
REMARK    9  A    between atoms: O_15  and  C_16
REMARK   10  A    between atoms: C_18  and  O_36
REMARK   11  A    between atoms: C_23  and  C_28
REMARK   12  A    between atoms: C_24  and  O_27
REMARK   13  A    between atoms: C_30  and  O_35
REMARK   14  A    between atoms: C_31  and  O_34
REMARK                            x       y       z     vdW  Elec       q    Type
REMARK                         _______ _______ _______ _____ _____    ______ ____
ROOT
ATOM      1  C   UNL     1       7.311   0.654  23.402  0.00  0.00    +0.131 A 
ATOM      2  C   UNL     1       6.573  -0.495  23.729  0.00  0.00    +0.093 A 
ATOM      3  C   UNL     1       7.211  -1.737  23.905  0.00  0.00    +0.147 A 
ATOM      4  O   UNL     1       6.420  -2.820  24.227  0.00  0.00    -0.451 OA
ATOM      5  C   UNL     1       7.005  -4.085  24.328  0.00  0.00    +0.181 A 
ATOM      6  C   UNL     1       8.327  -4.309  24.158  0.00  0.00    +0.208 A 
ATOM      7  C   UNL     1       9.235  -3.147  23.960  0.00  0.00    +0.238 A 
ATOM      8  O   UNL     1      10.450  -3.306  23.950  0.00  0.00    -0.283 OA
ATOM      9  C   UNL     1       8.595  -1.834  23.769  0.00  0.00    +0.109 A 
ATOM     10  C   UNL     1       9.331  -0.686  23.463  0.00  0.00    +0.135 A 
ATOM     11  C   UNL     1       8.694   0.540  23.279  0.00  0.00    +0.092 A 
ENDROOT
BRANCH   5  12
ATOM     12  C   UNL     1       6.035  -5.174  24.647  0.00  0.00    +0.025 A 
ATOM     13  C   UNL     1       5.178  -5.709  23.657  0.00  0.00    +0.015 A 
ATOM     14  C   UNL     1       4.222  -6.682  23.961  0.00  0.00    +0.050 A 
ATOM     15  C   UNL     1       4.157  -7.180  25.249  0.00  0.00    +0.158 A 
ATOM     16  C   UNL     1       5.030  -6.720  26.228  0.00  0.00    +0.159 A 
ATOM     17  C   UNL     1       5.960  -5.717  25.943  0.00  0.00    +0.060 A 
BRANCH  15  18
ATOM     18  O   UNL     1       3.236  -8.143  25.540  0.00  0.00    -0.503 OA
ATOM     19  H   UNL     1       3.111  -8.627  24.698  0.00  0.00    +0.292 HD
ENDBRANCH  15  18
BRANCH  16  20
ATOM     20  O   UNL     1       4.936  -7.288  27.469  0.00  0.00    -0.503 OA
ATOM     21  H   UNL     1       4.578  -6.627  28.085  0.00  0.00    +0.292 HD
ENDBRANCH  16  20
ENDBRANCH   5  12
BRANCH   6  22
ATOM     22  O   UNL     1       8.930  -5.557  24.150  0.00  0.00    -0.501 OA
ATOM     23  H   UNL     1       8.447  -6.146  24.749  0.00  0.00    +0.292 HD
ENDBRANCH   6  22
BRANCH  10  24
ATOM     24  O   UNL     1      10.690  -0.726  23.325  0.00  0.00    -0.506 OA
ATOM     25  H   UNL     1      10.949  -0.380  22.456  0.00  0.00    +0.292 HD
ENDBRANCH  10  24
BRANCH   1  26
ATOM     26  O   UNL     1       6.615   1.833  23.295  0.00  0.00    -0.461 OA
BRANCH  26  29
ATOM     27  C   UNL     1       8.520   4.831  24.356  0.00  0.00    +0.191 C 
ATOM     28  O   UNL     1       7.714   3.643  24.425  0.00  0.00    -0.330 OA
ATOM     29  C   UNL     1       7.362   3.065  23.155  0.00  0.00    +0.339 C 
ATOM     30  C   UNL     1       6.479   4.101  22.408  0.00  0.00    +0.214 C 
ATOM     31  C   UNL     1       7.271   5.414  22.246  0.00  0.00    +0.180 C 
ATOM     32  C   UNL     1       7.752   5.934  23.612  0.00  0.00    +0.178 C 
BRANCH  30  33
ATOM     33  O   UNL     1       5.274   4.360  23.159  0.00  0.00    -0.383 OA
ATOM     34  H   UNL     1       4.593   3.732  22.851  0.00  0.00    +0.210 HD
ENDBRANCH  30  33
BRANCH  31  35
ATOM     35  O   UNL     1       6.495   6.428  21.598  0.00  0.00    -0.386 OA
ATOM     36  H   UNL     1       7.072   7.216  21.542  0.00  0.00    +0.210 HD
ENDBRANCH  31  35
BRANCH  32  37
ATOM     37  O   UNL     1       8.548   7.108  23.412  0.00  0.00    -0.386 OA
ATOM     38  H   UNL     1       8.017   7.876  23.698  0.00  0.00    +0.210 HD
ENDBRANCH  32  37
BRANCH  27  39
ATOM     39  C   UNL     1       9.934   4.596  23.769  0.00  0.00    +0.266 C 
BRANCH  39  40
ATOM     40  O   UNL     1      10.690   5.804  23.565  0.00  0.00    -0.462 OA
BRANCH  40  42
ATOM     41  C   UNL     1      12.803   4.944  23.021  0.00  0.00    +0.136 C 
ATOM     42  C   UNL     1      11.983   5.755  23.977  0.00  0.00    +0.304 C 
ATOM     43  O   UNL     1      12.434   6.340  24.952  0.00  0.00    -0.251 OA
ENDBRANCH  40  42
ENDBRANCH  39  40
ENDBRANCH  27  39
ENDBRANCH  26  29
ENDBRANCH   1  26
TORSDOF 13
ENDMDL
MODEL 2
REMARK VINA RESULT:      -7.8      2.224      9.844
REMARK  Name = 
REMARK  14 active torsions:
REMARK  status: ('A' for Active; 'I' for Inactive)
REMARK    1  A    between atoms: C_1  and  C_2
REMARK    2  A    between atoms: C_2  and  O_4
REMARK    3  A    between atoms: O_4  and  C_5
REMARK    4  A    between atoms: C_5  and  C_6
REMARK    5  A    between atoms: C_7  and  O_39
REMARK    6  A    between atoms: C_9  and  O_38
REMARK    7  A    between atoms: C_11  and  O_37
REMARK    8  A    between atoms: C_12  and  O_15
REMARK    9  A    between atoms: O_15  and  C_16
REMARK   10  A    between atoms: C_18  and  O_36
REMARK   11  A    between atoms: C_23  and  C_28
REMARK   12  A    between atoms: C_24  and  O_27
REMARK   13  A    between atoms: C_30  and  O_35
REMARK   14  A    between atoms: C_31  and  O_34
REMARK                            x       y       z     vdW  Elec       q    Type
REMARK                         _______ _______ _______ _____ _____    ______ ____
ROOT
ATOM      1  C   UNL     1       7.746  -2.564  25.680  0.00  0.00    +0.131 A 
ATOM      2  C   UNL     1       7.218  -1.316  25.315  0.00  0.00    +0.093 A 
ATOM      3  C   UNL     1       7.798  -0.562  24.277  0.00  0.00    +0.147 A 
ATOM      4  O   UNL     1       7.223   0.654  23.974  0.00  0.00    -0.451 OA
ATOM      5  C   UNL     1       7.820   1.468  23.007  0.00  0.00    +0.181 A 
ATOM      6  C   UNL     1       8.926   1.115  22.318  0.00  0.00    +0.208 A 
ATOM      7  C   UNL     1       9.488  -0.250  22.507  0.00  0.00    +0.238 A 
ATOM      8  O   UNL     1      10.400  -0.649  21.791  0.00  0.00    -0.283 OA
ATOM      9  C   UNL     1       8.903  -1.061  23.589  0.00  0.00    +0.109 A 
ATOM     10  C   UNL     1       9.416  -2.312  23.940  0.00  0.00    +0.135 A 
ATOM     11  C   UNL     1       8.844  -3.051  24.975  0.00  0.00    +0.092 A 
ENDROOT
BRANCH   5  12
ATOM     12  C   UNL     1       7.118   2.770  22.799  0.00  0.00    +0.025 A 
ATOM     13  C   UNL     1       5.732   2.904  23.042  0.00  0.00    +0.015 A 
ATOM     14  C   UNL     1       5.054   4.100  22.788  0.00  0.00    +0.050 A 
ATOM     15  C   UNL     1       5.771   5.197  22.348  0.00  0.00    +0.158 A 
ATOM     16  C   UNL     1       7.146   5.113  22.160  0.00  0.00    +0.159 A 
ATOM     17  C   UNL     1       7.824   3.909  22.372  0.00  0.00    +0.060 A 
BRANCH  15  18
ATOM     18  O   UNL     1       5.111   6.369  22.117  0.00  0.00    -0.503 OA
ATOM     19  H   UNL     1       5.813   6.998  21.853  0.00  0.00    +0.292 HD
ENDBRANCH  15  18
BRANCH  16  20
ATOM     20  O   UNL     1       7.795   6.250  21.764  0.00  0.00    -0.503 OA
ATOM     21  H   UNL     1       7.800   6.877  22.506  0.00  0.00    +0.292 HD
ENDBRANCH  16  20
ENDBRANCH   5  12
BRANCH   6  22
ATOM     22  O   UNL     1       9.606   1.931  21.427  0.00  0.00    -0.501 OA
ATOM     23  H   UNL     1       8.966   2.361  20.840  0.00  0.00    +0.292 HD
ENDBRANCH   6  22
BRANCH  10  24
ATOM     24  O   UNL     1      10.493  -2.849  23.293  0.00  0.00    -0.506 OA
ATOM     25  H   UNL     1      10.221  -3.220  22.439  0.00  0.00    +0.292 HD
ENDBRANCH  10  24
BRANCH   1  26
ATOM     26  O   UNL     1       7.090  -3.253  26.671  0.00  0.00    -0.461 OA
BRANCH  26  29
ATOM     27  C   UNL     1       4.419  -5.454  25.343  0.00  0.00    +0.191 C 
ATOM     28  O   UNL     1       5.109  -4.270  25.774  0.00  0.00    -0.330 OA
ATOM     29  C   UNL     1       6.420  -4.488  26.325  0.00  0.00    +0.339 C 
ATOM     30  C   UNL     1       6.241  -5.337  27.613  0.00  0.00    +0.214 C 
ATOM     31  C   UNL     1       5.537  -6.660  27.252  0.00  0.00    +0.180 C 
ATOM     32  C   UNL     1       4.199  -6.390  26.541  0.00  0.00    +0.178 C 
BRANCH  30  33
ATOM     33  O   UNL     1       5.440  -4.616  28.575  0.00  0.00    -0.383 OA
ATOM     34  H   UNL     1       5.378  -3.690  28.271  0.00  0.00    +0.210 HD
ENDBRANCH  30  33
BRANCH  31  35
ATOM     35  O   UNL     1       5.305  -7.473  28.408  0.00  0.00    -0.386 OA
ATOM     36  H   UNL     1       4.881  -8.292  28.082  0.00  0.00    +0.210 HD
ENDBRANCH  31  35
BRANCH  32  37
ATOM     37  O   UNL     1       3.616  -7.639  26.153  0.00  0.00    -0.386 OA
ATOM     38  H   UNL     1       3.206  -8.032  26.946  0.00  0.00    +0.210 HD
ENDBRANCH  32  37
BRANCH  27  39
ATOM     39  C   UNL     1       5.093  -6.171  24.147  0.00  0.00    +0.266 C 
BRANCH  39  40
ATOM     40  O   UNL     1       4.750  -5.615  22.864  0.00  0.00    -0.462 OA
BRANCH  40  42
ATOM     41  C   UNL     1       7.082  -5.429  22.689  0.00  0.00    +0.136 C 
ATOM     42  C   UNL     1       5.744  -4.922  22.249  0.00  0.00    +0.304 C 
ATOM     43  O   UNL     1       5.576  -4.052  21.405  0.00  0.00    -0.251 OA
ENDBRANCH  40  42
ENDBRANCH  39  40
ENDBRANCH  27  39
ENDBRANCH  26  29
ENDBRANCH   1  26
TORSDOF 13
ENDMDL
MODEL 3
REMARK VINA RESULT:      -7.7      2.019      2.388
REMARK  Name = 
REMARK  14 active torsions:
REMARK  status: ('A' for Active; 'I' for Inactive)
REMARK    1  A    between atoms: C_1  and  C_2
REMARK    2  A    between atoms: C_2  and  O_4
REMARK    3  A    between atoms: O_4  and  C_5
REMARK    4  A    between atoms: C_5  and  C_6
REMARK    5  A    between atoms: C_7  and  O_39
REMARK    6  A    between atoms: C_9  and  O_38
REMARK    7  A    between atoms: C_11  and  O_37
REMARK    8  A    between atoms: C_12  and  O_15
REMARK    9  A    between atoms: O_15  and  C_16
REMARK   10  A    between atoms: C_18  and  O_36
REMARK   11  A    between atoms: C_23  and  C_28
REMARK   12  A    between atoms: C_24  and  O_27
REMARK   13  A    between atoms: C_30  and  O_35
REMARK   14  A    between atoms: C_31  and  O_34
REMARK                            x       y       z     vdW  Elec       q    Type
REMARK                         _______ _______ _______ _____ _____    ______ ____
ROOT
ATOM      1  C   UNL     1       7.040  -0.662  23.014  0.00  0.00    +0.131 A 
ATOM      2  C   UNL     1       6.424  -1.548  23.912  0.00  0.00    +0.093 A 
ATOM      3  C   UNL     1       7.130  -2.642  24.447  0.00  0.00    +0.147 A 
ATOM      4  O   UNL     1       6.459  -3.467  25.324  0.00  0.00    -0.451 OA
ATOM      5  C   UNL     1       7.099  -4.609  25.812  0.00  0.00    +0.181 A 
ATOM      6  C   UNL     1       8.369  -4.942  25.494  0.00  0.00    +0.208 A 
ATOM      7  C   UNL     1       9.177  -4.001  24.672  0.00  0.00    +0.238 A 
ATOM      8  O   UNL     1      10.372  -4.206  24.491  0.00  0.00    -0.283 OA
ATOM      9  C   UNL     1       8.464  -2.848  24.096  0.00  0.00    +0.109 A 
ATOM     10  C   UNL     1       9.082  -1.955  23.217  0.00  0.00    +0.135 A 
ATOM     11  C   UNL     1       8.376  -0.879  22.682  0.00  0.00    +0.092 A 
ENDROOT
BRANCH   5  12
ATOM     12  C   UNL     1       6.252  -5.433  26.724  0.00  0.00    +0.025 A 
ATOM     13  C   UNL     1       5.025  -5.986  26.289  0.00  0.00    +0.015 A 
ATOM     14  C   UNL     1       4.194  -6.703  27.154  0.00  0.00    +0.050 A 
ATOM     15  C   UNL     1       4.613  -6.931  28.451  0.00  0.00    +0.158 A 
ATOM     16  C   UNL     1       5.844  -6.454  28.890  0.00  0.00    +0.159 A 
ATOM     17  C   UNL     1       6.661  -5.700  28.043  0.00  0.00    +0.060 A 
BRANCH  15  18
ATOM     18  O   UNL     1       3.809  -7.646  29.290  0.00  0.00    -0.503 OA
ATOM     19  H   UNL     1       4.245  -8.520  29.363  0.00  0.00    +0.292 HD
ENDBRANCH  15  18
BRANCH  16  20
ATOM     20  O   UNL     1       6.211  -6.754  30.173  0.00  0.00    -0.503 OA
ATOM     21  H   UNL     1       5.800  -6.106  30.770  0.00  0.00    +0.292 HD
ENDBRANCH  16  20
ENDBRANCH   5  12
BRANCH   6  22
ATOM     22  O   UNL     1       9.005  -6.114  25.872  0.00  0.00    -0.501 OA
ATOM     23  H   UNL     1       8.390  -6.657  26.387  0.00  0.00    +0.292 HD
ENDBRANCH   6  22
BRANCH  10  24
ATOM     24  O   UNL     1      10.388  -2.108  22.845  0.00  0.00    -0.506 OA
ATOM     25  H   UNL     1      10.567  -1.611  22.032  0.00  0.00    +0.292 HD
ENDBRANCH  10  24
BRANCH   1  26
ATOM     26  O   UNL     1       6.293   0.404  22.578  0.00  0.00    -0.461 OA
BRANCH  26  29
ATOM     27  C   UNL     1       7.583   3.274  24.537  0.00  0.00    +0.191 C 
ATOM     28  O   UNL     1       7.023   1.988  24.227  0.00  0.00    -0.330 OA
ATOM     29  C   UNL     1       6.787   1.741  22.830  0.00  0.00    +0.339 C 
ATOM     30  C   UNL     1       5.718   2.765  22.357  0.00  0.00    +0.214 C 
ATOM     31  C   UNL     1       6.240   4.192  22.614  0.00  0.00    +0.180 C 
ATOM     32  C   UNL     1       6.613   4.381  24.094  0.00  0.00    +0.178 C 
BRANCH  30  33
ATOM     33  O   UNL     1       4.487   2.568  23.086  0.00  0.00    -0.383 OA
ATOM     34  H   UNL     1       3.755   2.597  22.441  0.00  0.00    +0.210 HD
ENDBRANCH  30  33
BRANCH  31  35
ATOM     35  O   UNL     1       5.280   5.186  22.236  0.00  0.00    -0.386 OA
ATOM     36  H   UNL     1       4.997   4.958  21.328  0.00  0.00    +0.210 HD
ENDBRANCH  31  35
BRANCH  32  37
ATOM     37  O   UNL     1       7.166   5.689  24.275  0.00  0.00    -0.386 OA
ATOM     38  H   UNL     1       6.593   6.167  24.904  0.00  0.00    +0.210 HD
ENDBRANCH  32  37
BRANCH  27  39
ATOM     39  C   UNL     1       9.014   3.485  23.985  0.00  0.00    +0.266 C 
BRANCH  39  40
ATOM     40  O   UNL     1      10.006   2.636  24.591  0.00  0.00    -0.462 OA
BRANCH  40  42
ATOM     41  C   UNL     1      10.390   2.117  22.336  0.00  0.00    +0.136 C 
ATOM     42  C   UNL     1      10.556   1.706  23.767  0.00  0.00    +0.304 C 
ATOM     43  O   UNL     1      11.159   0.708  24.136  0.00  0.00    -0.251 OA
ENDBRANCH  40  42
ENDBRANCH  39  40
ENDBRANCH  27  39
ENDBRANCH  26  29
ENDBRANCH   1  26
TORSDOF 13
ENDMDL
MODEL 4
REMARK VINA RESULT:      -7.6      2.120      9.595
REMARK  Name = 
REMARK  14 active torsions:
REMARK  status: ('A' for Active; 'I' for Inactive)
REMARK    1  A    between atoms: C_1  and  C_2
REMARK    2  A    between atoms: C_2  and  O_4
REMARK    3  A    between atoms: O_4  and  C_5
REMARK    4  A    between atoms: C_5  and  C_6
REMARK    5  A    between atoms: C_7  and  O_39
REMARK    6  A    between atoms: C_9  and  O_38
REMARK    7  A    between atoms: C_11  and  O_37
REMARK    8  A    between atoms: C_12  and  O_15
REMARK    9  A    between atoms: O_15  and  C_16
REMARK   10  A    between atoms: C_18  and  O_36
REMARK   11  A    between atoms: C_23  and  C_28
REMARK   12  A    between atoms: C_24  and  O_27
REMARK   13  A    between atoms: C_30  and  O_35
REMARK   14  A    between atoms: C_31  and  O_34
REMARK                            x       y       z     vdW  Elec       q    Type
REMARK                         _______ _______ _______ _____ _____    ______ ____
ROOT
ATOM      1  C   UNL     1       6.846  -3.019  22.799  0.00  0.00    +0.131 A 
ATOM      2  C   UNL     1       6.466  -1.668  22.770  0.00  0.00    +0.093 A 
ATOM      3  C   UNL     1       7.397  -0.649  23.047  0.00  0.00    +0.147 A 
ATOM      4  O   UNL     1       6.950   0.654  22.997  0.00  0.00    -0.451 OA
ATOM      5  C   UNL     1       7.823   1.688  23.346  0.00  0.00    +0.181 A 
ATOM      6  C   UNL     1       9.110   1.485  23.706  0.00  0.00    +0.208 A 
ATOM      7  C   UNL     1       9.672   0.109  23.626  0.00  0.00    +0.238 A 
ATOM      8  O   UNL     1      10.870  -0.081  23.804  0.00  0.00    -0.283 OA
ATOM      9  C   UNL     1       8.720  -0.978  23.342  0.00  0.00    +0.109 A 
ATOM     10  C   UNL     1       9.101  -2.322  23.351  0.00  0.00    +0.135 A 
ATOM     11  C   UNL     1       8.173  -3.327  23.086  0.00  0.00    +0.092 A 
ENDROOT
BRANCH   5  12
ATOM     12  C   UNL     1       7.206   3.046  23.283  0.00  0.00    +0.025 A 
ATOM     13  C   UNL     1       6.200   3.439  24.195  0.00  0.00    +0.015 A 
ATOM     14  C   UNL     1       5.570   4.684  24.103  0.00  0.00    +0.050 A 
ATOM     15  C   UNL     1       5.988   5.577  23.134  0.00  0.00    +0.158 A 
ATOM     16  C   UNL     1       7.019   5.242  22.264  0.00  0.00    +0.159 A 
ATOM     17  C   UNL     1       7.625   3.984  22.322  0.00  0.00    +0.060 A 
BRANCH  15  18
ATOM     18  O   UNL     1       5.385   6.798  23.057  0.00  0.00    -0.503 OA
ATOM     19  H   UNL     1       4.800   6.834  23.841  0.00  0.00    +0.292 HD
ENDBRANCH  15  18
BRANCH  16  20
ATOM     20  O   UNL     1       7.407   6.192  21.358  0.00  0.00    -0.503 OA
ATOM     21  H   UNL     1       6.628   6.469  20.849  0.00  0.00    +0.292 HD
ENDBRANCH  16  20
ENDBRANCH   5  12
BRANCH   6  22
ATOM     22  O   UNL     1       9.977   2.468  24.155  0.00  0.00    -0.501 OA
ATOM     23  H   UNL     1      10.755   2.493  23.578  0.00  0.00    +0.292 HD
ENDBRANCH   6  22
BRANCH  10  24
ATOM     24  O   UNL     1      10.386  -2.697  23.628  0.00  0.00    -0.506 OA
ATOM     25  H   UNL     1      11.000  -1.978  23.409  0.00  0.00    +0.292 HD
ENDBRANCH  10  24
BRANCH   1  26
ATOM     26  O   UNL     1       5.886  -3.944  22.471  0.00  0.00    -0.461 OA
BRANCH  26  29
ATOM     27  C   UNL     1       5.258  -5.453  25.798  0.00  0.00    +0.191 C 
ATOM     28  O   UNL     1       5.957  -4.896  24.673  0.00  0.00    -0.330 OA
ATOM     29  C   UNL     1       5.135  -4.568  23.539  0.00  0.00    +0.339 C 
ATOM     30  C   UNL     1       4.528  -5.898  23.012  0.00  0.00    +0.214 C 
ATOM     31  C   UNL     1       3.718  -6.564  24.142  0.00  0.00    +0.180 C 
ATOM     32  C   UNL     1       4.592  -6.777  25.390  0.00  0.00    +0.178 C 
BRANCH  30  33
ATOM     33  O   UNL     1       5.582  -6.790  22.589  0.00  0.00    -0.383 OA
ATOM     34  H   UNL     1       5.669  -6.704  21.620  0.00  0.00    +0.210 HD
ENDBRANCH  30  33
BRANCH  31  35
ATOM     35  O   UNL     1       3.164  -7.820  23.731  0.00  0.00    -0.386 OA
ATOM     36  H   UNL     1       2.232  -7.813  24.026  0.00  0.00    +0.210 HD
ENDBRANCH  31  35
BRANCH  32  37
ATOM     37  O   UNL     1       3.786  -7.323  26.439  0.00  0.00    -0.386 OA
ATOM     38  H   UNL     1       4.163  -8.191  26.679  0.00  0.00    +0.210 HD
ENDBRANCH  32  37
BRANCH  27  39
ATOM     39  C   UNL     1       4.263  -4.472  26.466  0.00  0.00    +0.266 C 
BRANCH  39  40
ATOM     40  O   UNL     1       4.896  -3.387  27.170  0.00  0.00    -0.462 OA
BRANCH  40  42
ATOM     41  C   UNL     1       6.590  -1.885  26.558  0.00  0.00    +0.136 C 
ATOM     42  C   UNL     1       5.153  -2.283  26.422  0.00  0.00    +0.304 C 
ATOM     43  O   UNL     1       4.346  -1.727  25.689  0.00  0.00    -0.251 OA
ENDBRANCH  40  42
ENDBRANCH  39  40
ENDBRANCH  27  39
ENDBRANCH  26  29
ENDBRANCH   1  26
TORSDOF 13
ENDMDL
MODEL 5
REMARK VINA RESULT:      -7.4      2.070     10.470
REMARK  Name = 
REMARK  14 active torsions:
REMARK  status: ('A' for Active; 'I' for Inactive)
REMARK    1  A    between atoms: C_1  and  C_2
REMARK    2  A    between atoms: C_2  and  O_4
REMARK    3  A    between atoms: O_4  and  C_5
REMARK    4  A    between atoms: C_5  and  C_6
REMARK    5  A    between atoms: C_7  and  O_39
REMARK    6  A    between atoms: C_9  and  O_38
REMARK    7  A    between atoms: C_11  and  O_37
REMARK    8  A    between atoms: C_12  and  O_15
REMARK    9  A    between atoms: O_15  and  C_16
REMARK   10  A    between atoms: C_18  and  O_36
REMARK   11  A    between atoms: C_23  and  C_28
REMARK   12  A    between atoms: C_24  and  O_27
REMARK   13  A    between atoms: C_30  and  O_35
REMARK   14  A    between atoms: C_31  and  O_34
REMARK                            x       y       z     vdW  Elec       q    Type
REMARK                         _______ _______ _______ _____ _____    ______ ____
ROOT
ATOM      1  C   UNL     1       7.226  -3.438  26.736  0.00  0.00    +0.131 A 
ATOM      2  C   UNL     1       6.994  -2.175  26.169  0.00  0.00    +0.093 A 
ATOM      3  C   UNL     1       7.797  -1.699  25.115  0.00  0.00    +0.147 A 
ATOM      4  O   UNL     1       7.508  -0.450  24.608  0.00  0.00    -0.451 OA
ATOM      5  C   UNL     1       8.333   0.092  23.619  0.00  0.00    +0.181 A 
ATOM      6  C   UNL     1       9.396  -0.559  23.098  0.00  0.00    +0.208 A 
ATOM      7  C   UNL     1       9.651  -1.966  23.509  0.00  0.00    +0.238 A 
ATOM      8  O   UNL     1      10.516  -2.628  22.948  0.00  0.00    -0.283 OA
ATOM      9  C   UNL     1       8.829  -2.491  24.613  0.00  0.00    +0.109 A 
ATOM     10  C   UNL     1       9.045  -3.756  25.165  0.00  0.00    +0.135 A 
ATOM     11  C   UNL     1       8.255  -4.220  26.215  0.00  0.00    +0.092 A 
ENDROOT
BRANCH   5  12
ATOM     12  C   UNL     1       7.930   1.462  23.182  0.00  0.00    +0.025 A 
ATOM     13  C   UNL     1       6.721   1.685  22.482  0.00  0.00    +0.015 A 
ATOM     14  C   UNL     1       6.367   2.952  22.012  0.00  0.00    +0.050 A 
ATOM     15  C   UNL     1       7.190   4.027  22.295  0.00  0.00    +0.158 A 
ATOM     16  C   UNL     1       8.353   3.849  23.036  0.00  0.00    +0.159 A 
ATOM     17  C   UNL     1       8.735   2.578  23.473  0.00  0.00    +0.060 A 
BRANCH  15  18
ATOM     18  O   UNL     1       6.835   5.267  21.850  0.00  0.00    -0.503 OA
ATOM     19  H   UNL     1       6.957   5.225  20.880  0.00  0.00    +0.292 HD
ENDBRANCH  15  18
BRANCH  16  20
ATOM     20  O   UNL     1       9.096   4.964  23.313  0.00  0.00    -0.503 OA
ATOM     21  H   UNL     1       8.496   5.726  23.377  0.00  0.00    +0.292 HD
ENDBRANCH  16  20
ENDBRANCH   5  12
BRANCH   6  22
ATOM     22  O   UNL     1      10.296  -0.020  22.193  0.00  0.00    -0.501 OA
ATOM     23  H   UNL     1      10.826   0.657  22.638  0.00  0.00    +0.292 HD
ENDBRANCH   6  22
BRANCH  10  24
ATOM     24  O   UNL     1      10.039  -4.574  24.705  0.00  0.00    -0.506 OA
ATOM     25  H   UNL     1      10.881  -4.354  25.135  0.00  0.00    +0.292 HD
ENDBRANCH  10  24
BRANCH   1  26
ATOM     26  O   UNL     1       6.367  -3.844  27.728  0.00  0.00    -0.461 OA
BRANCH  26  29
ATOM     27  C   UNL     1       3.687  -6.018  26.372  0.00  0.00    +0.191 C 
ATOM     28  O   UNL     1       4.453  -4.840  26.675  0.00  0.00    -0.330 OA
ATOM     29  C   UNL     1       5.597  -5.052  27.522  0.00  0.00    +0.339 C 
ATOM     30  C   UNL     1       5.066  -5.545  28.896  0.00  0.00    +0.214 C 
ATOM     31  C   UNL     1       4.252  -6.838  28.687  0.00  0.00    +0.180 C 
ATOM     32  C   UNL     1       3.120  -6.613  27.670  0.00  0.00    +0.178 C 
BRANCH  30  33
ATOM     33  O   UNL     1       4.218  -4.538  29.490  0.00  0.00    -0.383 OA
ATOM     34  H   UNL     1       4.315  -3.723  28.962  0.00  0.00    +0.210 HD
ENDBRANCH  30  33
BRANCH  31  35
ATOM     35  O   UNL     1       3.699  -7.324  29.915  0.00  0.00    -0.386 OA
ATOM     36  H   UNL     1       4.213  -6.900  30.631  0.00  0.00    +0.210 HD
ENDBRANCH  31  35
BRANCH  32  37
ATOM     37  O   UNL     1       2.440  -7.853  27.445  0.00  0.00    -0.386 OA
ATOM     38  H   UNL     1       3.109  -8.514  27.185  0.00  0.00    +0.210 HD
ENDBRANCH  32  37
BRANCH  27  39
ATOM     39  C   UNL     1       4.454  -7.064  25.527  0.00  0.00    +0.266 C 
BRANCH  39  40
ATOM     40  O   UNL     1       3.989  -7.172  24.169  0.00  0.00    -0.462 OA
BRANCH  40  42
ATOM     41  C   UNL     1       1.932  -6.799  23.106  0.00  0.00    +0.136 C 
ATOM     42  C   UNL     1       2.734  -7.670  24.023  0.00  0.00    +0.304 C 
ATOM     43  O   UNL     1       2.330  -8.715  24.515  0.00  0.00    -0.251 OA
ENDBRANCH  40  42
ENDBRANCH  39  40
ENDBRANCH  27  39
ENDBRANCH  26  29
ENDBRANCH   1  26
TORSDOF 13
ENDMDL
MODEL 6
REMARK VINA RESULT:      -7.2      1.888      3.798
REMARK  Name = 
REMARK  14 active torsions:
REMARK  status: ('A' for Active; 'I' for Inactive)
REMARK    1  A    between atoms: C_1  and  C_2
REMARK    2  A    between atoms: C_2  and  O_4
REMARK    3  A    between atoms: O_4  and  C_5
REMARK    4  A    between atoms: C_5  and  C_6
REMARK    5  A    between atoms: C_7  and  O_39
REMARK    6  A    between atoms: C_9  and  O_38
REMARK    7  A    between atoms: C_11  and  O_37
REMARK    8  A    between atoms: C_12  and  O_15
REMARK    9  A    between atoms: O_15  and  C_16
REMARK   10  A    between atoms: C_18  and  O_36
REMARK   11  A    between atoms: C_23  and  C_28
REMARK   12  A    between atoms: C_24  and  O_27
REMARK   13  A    between atoms: C_30  and  O_35
REMARK   14  A    between atoms: C_31  and  O_34
REMARK                            x       y       z     vdW  Elec       q    Type
REMARK                         _______ _______ _______ _____ _____    ______ ____
ROOT
ATOM      1  C   UNL     1       7.455  -0.669  22.953  0.00  0.00    +0.131 A 
ATOM      2  C   UNL     1       6.741  -1.501  23.829  0.00  0.00    +0.093 A 
ATOM      3  C   UNL     1       7.350  -2.631  24.408  0.00  0.00    +0.147 A 
ATOM      4  O   UNL     1       6.586  -3.400  25.261  0.00  0.00    -0.451 OA
ATOM      5  C   UNL     1       7.128  -4.575  25.789  0.00  0.00    +0.181 A 
ATOM      6  C   UNL     1       8.387  -4.993  25.534  0.00  0.00    +0.208 A 
ATOM      7  C   UNL     1       9.292  -4.116  24.742  0.00  0.00    +0.238 A 
ATOM      8  O   UNL     1      10.478  -4.400  24.620  0.00  0.00    -0.283 OA
ATOM      9  C   UNL     1       8.682  -2.928  24.121  0.00  0.00    +0.109 A 
ATOM     10  C   UNL     1       9.396  -2.087  23.264  0.00  0.00    +0.135 A 
ATOM     11  C   UNL     1       8.787  -0.975  22.686  0.00  0.00    +0.092 A 
ENDROOT
BRANCH   5  12
ATOM     12  C   UNL     1       6.187  -5.331  26.669  0.00  0.00    +0.025 A 
ATOM     13  C   UNL     1       6.263  -5.235  28.077  0.00  0.00    +0.015 A 
ATOM     14  C   UNL     1       5.430  -5.988  28.910  0.00  0.00    +0.050 A 
ATOM     15  C   UNL     1       4.466  -6.798  28.340  0.00  0.00    +0.158 A 
ATOM     16  C   UNL     1       4.326  -6.863  26.958  0.00  0.00    +0.159 A 
ATOM     17  C   UNL     1       5.182  -6.145  26.118  0.00  0.00    +0.060 A 
BRANCH  15  18
ATOM     18  O   UNL     1       3.642  -7.519  29.154  0.00  0.00    -0.503 OA
ATOM     19  H   UNL     1       3.118  -6.845  29.633  0.00  0.00    +0.292 HD
ENDBRANCH  15  18
BRANCH  16  20
ATOM     20  O   UNL     1       3.323  -7.653  26.466  0.00  0.00    -0.503 OA
ATOM     21  H   UNL     1       2.891  -8.102  27.212  0.00  0.00    +0.292 HD
ENDBRANCH  16  20
ENDBRANCH   5  12
BRANCH   6  22
ATOM     22  O   UNL     1       8.928  -6.198  25.954  0.00  0.00    -0.501 OA
ATOM     23  H   UNL     1       8.281  -6.660  26.508  0.00  0.00    +0.292 HD
ENDBRANCH   6  22
BRANCH  10  24
ATOM     24  O   UNL     1      10.706  -2.329  22.956  0.00  0.00    -0.506 OA
ATOM     25  H   UNL     1      10.826  -2.352  21.994  0.00  0.00    +0.292 HD
ENDBRANCH  10  24
BRANCH   1  26
ATOM     26  O   UNL     1       6.799   0.438  22.471  0.00  0.00    -0.461 OA
BRANCH  26  29
ATOM     27  C   UNL     1       6.234   4.001  23.323  0.00  0.00    +0.191 C 
ATOM     28  O   UNL     1       6.123   2.733  22.656  0.00  0.00    -0.330 OA
ATOM     29  C   UNL     1       7.012   1.708  23.132  0.00  0.00    +0.339 C 
ATOM     30  C   UNL     1       8.462   2.185  22.842  0.00  0.00    +0.214 C 
ATOM     31  C   UNL     1       8.700   3.533  23.550  0.00  0.00    +0.180 C 
ATOM     32  C   UNL     1       7.648   4.570  23.121  0.00  0.00    +0.178 C 
BRANCH  30  33
ATOM     33  O   UNL     1       8.653   2.352  21.420  0.00  0.00    -0.383 OA
ATOM     34  H   UNL     1       9.387   2.982  21.293  0.00  0.00    +0.210 HD
ENDBRANCH  30  33
BRANCH  31  35
ATOM     35  O   UNL     1      10.010   4.049  23.287  0.00  0.00    -0.386 OA
ATOM     36  H   UNL     1       9.956   5.014  23.440  0.00  0.00    +0.210 HD
ENDBRANCH  31  35
BRANCH  32  37
ATOM     37  O   UNL     1       7.855   5.780  23.858  0.00  0.00    -0.386 OA
ATOM     38  H   UNL     1       7.508   6.516  23.319  0.00  0.00    +0.210 HD
ENDBRANCH  32  37
BRANCH  27  39
ATOM     39  C   UNL     1       5.820   3.962  24.815  0.00  0.00    +0.266 C 
BRANCH  39  40
ATOM     40  O   UNL     1       4.398   4.030  25.028  0.00  0.00    -0.462 OA
BRANCH  40  42
ATOM     41  C   UNL     1       4.602   1.916  26.023  0.00  0.00    +0.136 C 
ATOM     42  C   UNL     1       3.776   2.831  25.173  0.00  0.00    +0.304 C 
ATOM     43  O   UNL     1       2.670   2.554  24.729  0.00  0.00    -0.251 OA
ENDBRANCH  40  42
ENDBRANCH  39  40
ENDBRANCH  27  39
ENDBRANCH  26  29
ENDBRANCH   1  26
TORSDOF 13
ENDMDL
MODEL 7
REMARK VINA RESULT:      -7.1      2.430      9.781
REMARK  Name = 
REMARK  14 active torsions:
REMARK  status: ('A' for Active; 'I' for Inactive)
REMARK    1  A    between atoms: C_1  and  C_2
REMARK    2  A    between atoms: C_2  and  O_4
REMARK    3  A    between atoms: O_4  and  C_5
REMARK    4  A    between atoms: C_5  and  C_6
REMARK    5  A    between atoms: C_7  and  O_39
REMARK    6  A    between atoms: C_9  and  O_38
REMARK    7  A    between atoms: C_11  and  O_37
REMARK    8  A    between atoms: C_12  and  O_15
REMARK    9  A    between atoms: O_15  and  C_16
REMARK   10  A    between atoms: C_18  and  O_36
REMARK   11  A    between atoms: C_23  and  C_28
REMARK   12  A    between atoms: C_24  and  O_27
REMARK   13  A    between atoms: C_30  and  O_35
REMARK   14  A    between atoms: C_31  and  O_34
REMARK                            x       y       z     vdW  Elec       q    Type
REMARK                         _______ _______ _______ _____ _____    ______ ____
ROOT
ATOM      1  C   UNL     1       9.646  -2.174  23.842  0.00  0.00    +0.131 A 
ATOM      2  C   UNL     1       9.270  -1.091  24.652  0.00  0.00    +0.093 A 
ATOM      3  C   UNL     1       8.938   0.154  24.085  0.00  0.00    +0.147 A 
ATOM      4  O   UNL     1       8.577   1.170  24.944  0.00  0.00    -0.451 OA
ATOM      5  C   UNL     1       8.322   2.443  24.426  0.00  0.00    +0.181 A 
ATOM      6  C   UNL     1       8.378   2.734  23.107  0.00  0.00    +0.208 A 
ATOM      7  C   UNL     1       8.615   1.632  22.136  0.00  0.00    +0.238 A 
ATOM      8  O   UNL     1       8.526   1.839  20.931  0.00  0.00    -0.283 OA
ATOM      9  C   UNL     1       8.968   0.318  22.700  0.00  0.00    +0.109 A 
ATOM     10  C   UNL     1       9.323  -0.767  21.894  0.00  0.00    +0.135 A 
ATOM     11  C   UNL     1       9.661  -1.994  22.461  0.00  0.00    +0.092 A 
ENDROOT
BRANCH   5  12
ATOM     12  C   UNL     1       7.975   3.459  25.464  0.00  0.00    +0.025 A 
ATOM     13  C   UNL     1       8.465   4.783  25.389  0.00  0.00    +0.015 A 
ATOM     14  C   UNL     1       8.200   5.722  26.389  0.00  0.00    +0.050 A 
ATOM     15  C   UNL     1       7.384   5.364  27.446  0.00  0.00    +0.158 A 
ATOM     16  C   UNL     1       6.835   4.088  27.513  0.00  0.00    +0.159 A 
ATOM     17  C   UNL     1       7.130   3.131  26.539  0.00  0.00    +0.060 A 
BRANCH  15  18
ATOM     18  O   UNL     1       7.111   6.287  28.412  0.00  0.00    -0.503 OA
ATOM     19  H   UNL     1       7.653   7.066  28.170  0.00  0.00    +0.292 HD
ENDBRANCH  15  18
BRANCH  16  20
ATOM     20  O   UNL     1       6.004   3.819  28.566  0.00  0.00    -0.503 OA
ATOM     21  H   UNL     1       6.456   4.070  29.388  0.00  0.00    +0.292 HD
ENDBRANCH  16  20
ENDBRANCH   5  12
BRANCH   6  22
ATOM     22  O   UNL     1       8.231   3.999  22.563  0.00  0.00    -0.501 OA
ATOM     23  H   UNL     1       7.504   3.987  21.923  0.00  0.00    +0.292 HD
ENDBRANCH   6  22
BRANCH  10  24
ATOM     24  O   UNL     1       9.361  -0.661  20.532  0.00  0.00    -0.506 OA
ATOM     25  H   UNL     1      10.280  -0.670  20.221  0.00  0.00    +0.292 HD
ENDBRANCH  10  24
BRANCH   1  26
ATOM     26  O   UNL     1       9.907  -3.364  24.475  0.00  0.00    -0.461 OA
BRANCH  26  29
ATOM     27  C   UNL     1       6.384  -4.492  24.719  0.00  0.00    +0.191 C 
ATOM     28  O   UNL     1       7.523  -3.635  24.537  0.00  0.00    -0.330 OA
ATOM     29  C   UNL     1       8.802  -4.259  24.746  0.00  0.00    +0.339 C 
ATOM     30  C   UNL     1       8.864  -4.692  26.236  0.00  0.00    +0.214 C 
ATOM     31  C   UNL     1       7.695  -5.653  26.531  0.00  0.00    +0.180 C 
ATOM     32  C   UNL     1       6.349  -5.004  26.168  0.00  0.00    +0.178 C 
BRANCH  30  33
ATOM     33  O   UNL     1       8.759  -3.534  27.093  0.00  0.00    -0.383 OA
ATOM     34  H   UNL     1       9.584  -3.021  26.998  0.00  0.00    +0.210 HD
ENDBRANCH  30  33
BRANCH  31  35
ATOM     35  O   UNL     1       7.672  -6.058  27.904  0.00  0.00    -0.386 OA
ATOM     36  H   UNL     1       6.729  -6.181  28.135  0.00  0.00    +0.210 HD
ENDBRANCH  31  35
BRANCH  32  37
ATOM     37  O   UNL     1       5.299  -5.954  26.381  0.00  0.00    -0.386 OA
ATOM     38  H   UNL     1       4.617  -5.797  25.700  0.00  0.00    +0.210 HD
ENDBRANCH  32  37
BRANCH  27  39
ATOM     39  C   UNL     1       6.292  -5.640  23.684  0.00  0.00    +0.266 C 
BRANCH  39  40
ATOM     40  O   UNL     1       5.025  -6.323  23.681  0.00  0.00    -0.462 OA
BRANCH  40  42
ATOM     41  C   UNL     1       2.733  -6.429  23.194  0.00  0.00    +0.136 C 
ATOM     42  C   UNL     1       4.014  -5.666  23.055  0.00  0.00    +0.304 C 
ATOM     43  O   UNL     1       4.115  -4.575  22.510  0.00  0.00    -0.251 OA
ENDBRANCH  40  42
ENDBRANCH  39  40
ENDBRANCH  27  39
ENDBRANCH  26  29
ENDBRANCH   1  26
TORSDOF 13
ENDMDL
MODEL 8
REMARK VINA RESULT:      -7.1      1.908     10.162
REMARK  Name = 
REMARK  14 active torsions:
REMARK  status: ('A' for Active; 'I' for Inactive)
REMARK    1  A    between atoms: C_1  and  C_2
REMARK    2  A    between atoms: C_2  and  O_4
REMARK    3  A    between atoms: O_4  and  C_5
REMARK    4  A    between atoms: C_5  and  C_6
REMARK    5  A    between atoms: C_7  and  O_39
REMARK    6  A    between atoms: C_9  and  O_38
REMARK    7  A    between atoms: C_11  and  O_37
REMARK    8  A    between atoms: C_12  and  O_15
REMARK    9  A    between atoms: O_15  and  C_16
REMARK   10  A    between atoms: C_18  and  O_36
REMARK   11  A    between atoms: C_23  and  C_28
REMARK   12  A    between atoms: C_24  and  O_27
REMARK   13  A    between atoms: C_30  and  O_35
REMARK   14  A    between atoms: C_31  and  O_34
REMARK                            x       y       z     vdW  Elec       q    Type
REMARK                         _______ _______ _______ _____ _____    ______ ____
ROOT
ATOM      1  C   UNL     1       5.381  -4.102  23.231  0.00  0.00    +0.131 A 
ATOM      2  C   UNL     1       5.574  -2.712  23.205  0.00  0.00    +0.093 A 
ATOM      3  C   UNL     1       6.851  -2.156  23.410  0.00  0.00    +0.147 A 
ATOM      4  O   UNL     1       6.962  -0.782  23.368  0.00  0.00    -0.451 OA
ATOM      5  C   UNL     1       8.196  -0.190  23.649  0.00  0.00    +0.181 A 
ATOM      6  C   UNL     1       9.313  -0.895  23.932  0.00  0.00    +0.208 A 
ATOM      7  C   UNL     1       9.270  -2.380  23.838  0.00  0.00    +0.238 A 
ATOM      8  O   UNL     1      10.299  -3.037  23.945  0.00  0.00    -0.283 OA
ATOM      9  C   UNL     1       7.946  -2.990  23.628  0.00  0.00    +0.109 A 
ATOM     10  C   UNL     1       7.756  -4.375  23.634  0.00  0.00    +0.135 A 
ATOM     11  C   UNL     1       6.489  -4.920  23.441  0.00  0.00    +0.092 A 
ENDROOT
BRANCH   5  12
ATOM     12  C   UNL     1       8.173   1.303  23.604  0.00  0.00    +0.025 A 
ATOM     13  C   UNL     1       8.979   2.077  24.470  0.00  0.00    +0.015 A 
ATOM     14  C   UNL     1       8.916   3.473  24.480  0.00  0.00    +0.050 A 
ATOM     15  C   UNL     1       8.090   4.114  23.575  0.00  0.00    +0.158 A 
ATOM     16  C   UNL     1       7.334   3.381  22.667  0.00  0.00    +0.159 A 
ATOM     17  C   UNL     1       7.360   1.984  22.679  0.00  0.00    +0.060 A 
BRANCH  15  18
ATOM     18  O   UNL     1       8.043   5.477  23.574  0.00  0.00    -0.503 OA
ATOM     19  H   UNL     1       8.885   5.753  23.157  0.00  0.00    +0.292 HD
ENDBRANCH  15  18
BRANCH  16  20
ATOM     20  O   UNL     1       6.573   4.084  21.774  0.00  0.00    -0.503 OA
ATOM     21  H   UNL     1       6.394   4.963  22.147  0.00  0.00    +0.292 HD
ENDBRANCH  16  20
ENDBRANCH   5  12
BRANCH   6  22
ATOM     22  O   UNL     1      10.527  -0.348  24.314  0.00  0.00    -0.501 OA
ATOM     23  H   UNL     1      11.121  -0.330  23.549  0.00  0.00    +0.292 HD
ENDBRANCH   6  22
BRANCH  10  24
ATOM     24  O   UNL     1       8.798  -5.237  23.836  0.00  0.00    -0.506 OA
ATOM     25  H   UNL     1       8.614  -5.811  24.596  0.00  0.00    +0.292 HD
ENDBRANCH  10  24
BRANCH   1  26
ATOM     26  O   UNL     1       4.112  -4.561  22.975  0.00  0.00    -0.461 OA
BRANCH  26  29
ATOM     27  C   UNL     1       3.673  -6.955  25.771  0.00  0.00    +0.191 C 
ATOM     28  O   UNL     1       4.278  -6.242  24.680  0.00  0.00    -0.330 OA
ATOM     29  C   UNL     1       3.423  -5.297  24.013  0.00  0.00    +0.339 C 
ATOM     30  C   UNL     1       2.264  -6.105  23.366  0.00  0.00    +0.214 C 
ATOM     31  C   UNL     1       1.518  -6.885  24.466  0.00  0.00    +0.180 C 
ATOM     32  C   UNL     1       2.488  -7.785  25.251  0.00  0.00    +0.178 C 
BRANCH  30  33
ATOM     33  O   UNL     1       2.790  -7.034  22.393  0.00  0.00    -0.383 OA
ATOM     34  H   UNL     1       3.609  -6.648  22.030  0.00  0.00    +0.210 HD
ENDBRANCH  30  33
BRANCH  31  35
ATOM     35  O   UNL     1       0.459  -7.685  23.927  0.00  0.00    -0.386 OA
ATOM     36  H   UNL     1       0.540  -8.563  24.351  0.00  0.00    +0.210 HD
ENDBRANCH  31  35
BRANCH  32  37
ATOM     37  O   UNL     1       1.773  -8.431  26.311  0.00  0.00    -0.386 OA
ATOM     38  H   UNL     1       0.941  -8.777  25.938  0.00  0.00    +0.210 HD
ENDBRANCH  32  37
BRANCH  27  39
ATOM     39  C   UNL     1       3.285  -6.055  26.969  0.00  0.00    +0.266 C 
BRANCH  39  40
ATOM     40  O   UNL     1       4.409  -5.447  27.631  0.00  0.00    -0.462 OA
BRANCH  40  42
ATOM     41  C   UNL     1       6.714  -5.659  27.251  0.00  0.00    +0.136 C 
ATOM     42  C   UNL     1       5.475  -6.265  27.834  0.00  0.00    +0.304 C 
ATOM     43  O   UNL     1       5.445  -7.316  28.459  0.00  0.00    -0.251 OA
ENDBRANCH  40  42
ENDBRANCH  39  40
ENDBRANCH  27  39
ENDBRANCH  26  29
ENDBRANCH   1  26
TORSDOF 13
ENDMDL
MODEL 9
REMARK VINA RESULT:      -7.1      2.175      3.903
REMARK  Name = 
REMARK  14 active torsions:
REMARK  status: ('A' for Active; 'I' for Inactive)
REMARK    1  A    between atoms: C_1  and  C_2
REMARK    2  A    between atoms: C_2  and  O_4
REMARK    3  A    between atoms: O_4  and  C_5
REMARK    4  A    between atoms: C_5  and  C_6
REMARK    5  A    between atoms: C_7  and  O_39
REMARK    6  A    between atoms: C_9  and  O_38
REMARK    7  A    between atoms: C_11  and  O_37
REMARK    8  A    between atoms: C_12  and  O_15
REMARK    9  A    between atoms: O_15  and  C_16
REMARK   10  A    between atoms: C_18  and  O_36
REMARK   11  A    between atoms: C_23  and  C_28
REMARK   12  A    between atoms: C_24  and  O_27
REMARK   13  A    between atoms: C_30  and  O_35
REMARK   14  A    between atoms: C_31  and  O_34
REMARK                            x       y       z     vdW  Elec       q    Type
REMARK                         _______ _______ _______ _____ _____    ______ ____
ROOT
ATOM      1  C   UNL     1       9.535   0.280  24.376  0.00  0.00    +0.131 A 
ATOM      2  C   UNL     1       8.856  -0.463  25.354  0.00  0.00    +0.093 A 
ATOM      3  C   UNL     1       8.383  -1.760  25.077  0.00  0.00    +0.147 A 
ATOM      4  O   UNL     1       7.727  -2.428  26.089  0.00  0.00    -0.451 OA
ATOM      5  C   UNL     1       7.170  -3.683  25.827  0.00  0.00    +0.181 A 
ATOM      6  C   UNL     1       7.266  -4.305  24.632  0.00  0.00    +0.208 A 
ATOM      7  C   UNL     1       8.094  -3.685  23.562  0.00  0.00    +0.238 A 
ATOM      8  O   UNL     1       8.318  -4.294  22.522  0.00  0.00    -0.283 OA
ATOM      9  C   UNL     1       8.600  -2.326  23.822  0.00  0.00    +0.109 A 
ATOM     10  C   UNL     1       9.293  -1.593  22.855  0.00  0.00    +0.135 A 
ATOM     11  C   UNL     1       9.751  -0.306  23.130  0.00  0.00    +0.092 A 
ENDROOT
BRANCH   5  12
ATOM     12  C   UNL     1       6.460  -4.283  26.996  0.00  0.00    +0.025 A 
ATOM     13  C   UNL     1       5.334  -3.652  27.574  0.00  0.00    +0.015 A 
ATOM     14  C   UNL     1       4.702  -4.171  28.708  0.00  0.00    +0.050 A 
ATOM     15  C   UNL     1       5.151  -5.367  29.237  0.00  0.00    +0.158 A 
ATOM     16  C   UNL     1       6.215  -6.043  28.651  0.00  0.00    +0.159 A 
ATOM     17  C   UNL     1       6.878  -5.509  27.543  0.00  0.00    +0.060 A 
BRANCH  15  18
ATOM     18  O   UNL     1       4.522  -5.882  30.332  0.00  0.00    -0.503 OA
ATOM     19  H   UNL     1       4.160  -6.740  30.028  0.00  0.00    +0.292 HD
ENDBRANCH  15  18
BRANCH  16  20
ATOM     20  O   UNL     1       6.577  -7.241  29.204  0.00  0.00    -0.503 OA
ATOM     21  H   UNL     1       6.035  -7.942  28.803  0.00  0.00    +0.292 HD
ENDBRANCH  16  20
ENDBRANCH   5  12
BRANCH   6  22
ATOM     22  O   UNL     1       6.645  -5.498  24.301  0.00  0.00    -0.501 OA
ATOM     23  H   UNL     1       7.098  -6.227  24.752  0.00  0.00    +0.292 HD
ENDBRANCH   6  22
BRANCH  10  24
ATOM     24  O   UNL     1       9.537  -2.105  21.611  0.00  0.00    -0.506 OA
ATOM     25  H   UNL     1       9.759  -3.047  21.674  0.00  0.00    +0.292 HD
ENDBRANCH  10  24
BRANCH   1  26
ATOM     26  O   UNL     1      10.004   1.517  24.745  0.00  0.00    -0.461 OA
BRANCH  26  29
ATOM     27  C   UNL     1       7.108   3.463  23.491  0.00  0.00    +0.191 C 
ATOM     28  O   UNL     1       8.036   2.381  23.675  0.00  0.00    -0.330 OA
ATOM     29  C   UNL     1       9.149   2.667  24.542  0.00  0.00    +0.339 C 
ATOM     30  C   UNL     1       9.979   3.793  23.867  0.00  0.00    +0.214 C 
ATOM     31  C   UNL     1       9.078   5.026  23.656  0.00  0.00    +0.180 C 
ATOM     32  C   UNL     1       7.827   4.655  22.840  0.00  0.00    +0.178 C 
BRANCH  30  33
ATOM     33  O   UNL     1      10.480   3.342  22.590  0.00  0.00    -0.383 OA
ATOM     34  H   UNL     1      10.104   3.926  21.903  0.00  0.00    +0.210 HD
ENDBRANCH  30  33
BRANCH  31  35
ATOM     35  O   UNL     1       9.776   6.089  22.998  0.00  0.00    -0.386 OA
ATOM     36  H   UNL     1       9.218   6.349  22.237  0.00  0.00    +0.210 HD
ENDBRANCH  31  35
BRANCH  32  37
ATOM     37  O   UNL     1       6.980   5.805  22.734  0.00  0.00    -0.386 OA
ATOM     38  H   UNL     1       7.494   6.579  23.033  0.00  0.00    +0.210 HD
ENDBRANCH  32  37
BRANCH  27  39
ATOM     39  C   UNL     1       6.346   3.861  24.778  0.00  0.00    +0.266 C 
BRANCH  39  40
ATOM     40  O   UNL     1       6.002   2.747  25.622  0.00  0.00    -0.462 OA
BRANCH  40  42
ATOM     41  C   UNL     1       5.352   0.499  25.463  0.00  0.00    +0.136 C 
ATOM     42  C   UNL     1       5.038   1.925  25.132  0.00  0.00    +0.304 C 
ATOM     43  O   UNL     1       4.022   2.296  24.559  0.00  0.00    -0.251 OA
ENDBRANCH  40  42
ENDBRANCH  39  40
ENDBRANCH  27  39
ENDBRANCH  26  29
ENDBRANCH   1  26
TORSDOF 13
ENDMDL
