MODEL 1
REMARK VINA RESULT:      -7.4      0.000      0.000
REMARK  Name = 
REMARK  20 active torsions:
REMARK  status: ('A' for Active; 'I' for Inactive)
REMARK    1  A    between atoms: C_1  and  C_2
REMARK    2  A    between atoms: C_2  and  C_3
REMARK    3  A    between atoms: C_2  and  C_7
REMARK    4  A    between atoms: C_2  and  O_46
REMARK    5  A    between atoms: C_3  and  C_4
REMARK    6  A    between atoms: C_4  and  O_6
REMARK    7  A    between atoms: C_7  and  C_8
REMARK    8  A    between atoms: C_8  and  O_10
REMARK    9  A    between atoms: O_10  and  C_11
REMARK   10  A    between atoms: C_11  and  C_12
REMARK   11  A    between atoms: C_14  and  O_45
REMARK   12  A    between atoms: C_16  and  O_44
REMARK   13  A    between atoms: C_17  and  O_43
REMARK   14  A    between atoms: C_18  and  O_21
REMARK   15  A    between atoms: O_21  and  C_22
REMARK   16  A    between atoms: C_23  and  C_35
REMARK   17  A    between atoms: C_27  and  O_34
REMARK   18  A    between atoms: C_29  and  O_33
REMARK   19  A    between atoms: C_37  and  O_42
REMARK   20  A    between atoms: C_38  and  O_41
REMARK                            x       y       z     vdW  Elec       q    Type
REMARK                         _______ _______ _______ _____ _____    ______ ____
ROOT
ATOM      1  C   UNL     1       6.270   2.793  26.658  0.00  0.00    +0.191 C 
ATOM      2  O   UNL     1       7.235   1.837  26.176  0.00  0.00    -0.330 OA
ATOM      3  C   UNL     1       6.787   0.489  26.387  0.00  0.00    +0.340 C 
ATOM      4  C   UNL     1       6.838   0.246  27.910  0.00  0.00    +0.214 C 
ATOM      5  C   UNL     1       5.964   1.288  28.629  0.00  0.00    +0.180 C 
ATOM      6  C   UNL     1       6.295   2.730  28.193  0.00  0.00    +0.178 C 
ENDROOT
BRANCH   6   7
ATOM      7  O   UNL     1       7.593   3.104  28.685  0.00  0.00    -0.386 OA
ATOM      8  H   UNL     1       8.218   2.412  28.393  0.00  0.00    +0.210 HD
ENDBRANCH   6   7
BRANCH   5   9
ATOM      9  O   UNL     1       6.122   1.160  30.043  0.00  0.00    -0.386 OA
ATOM     10  H   UNL     1       6.149   2.085  30.368  0.00  0.00    +0.210 HD
ENDBRANCH   5   9
BRANCH   4  11
ATOM     11  O   UNL     1       8.205   0.369  28.377  0.00  0.00    -0.383 OA
ATOM     12  H   UNL     1       8.603  -0.519  28.284  0.00  0.00    +0.210 HD
ENDBRANCH   4  11
BRANCH   3  13
ATOM     13  O   UNL     1       7.702  -0.456  25.807  0.00  0.00    -0.453 OA
BRANCH  13  14
ATOM     14  C   UNL     1       7.180  -1.357  24.895  0.00  0.00    +0.214 A 
ATOM     15  C   UNL     1       6.736  -2.709  25.351  0.00  0.00    +0.238 A 
ATOM     16  O   UNL     1       6.559  -2.963  26.534  0.00  0.00    -0.283 OA
ATOM     17  C   UNL     1       6.439  -3.704  24.324  0.00  0.00    +0.109 A 
ATOM     18  C   UNL     1       6.220  -3.243  23.032  0.00  0.00    +0.147 A 
ATOM     19  C   UNL     1       5.779  -4.133  22.048  0.00  0.00    +0.092 A 
ATOM     20  C   UNL     1       5.589  -5.476  22.376  0.00  0.00    +0.124 A 
ATOM     21  C   UNL     1       5.861  -5.954  23.653  0.00  0.00    +0.091 A 
ATOM     22  O   UNL     1       6.401  -1.929  22.673  0.00  0.00    -0.451 OA
ATOM     23  C   UNL     1       6.295  -5.065  24.627  0.00  0.00    +0.135 A 
ATOM     24  C   UNL     1       6.946  -1.031  23.600  0.00  0.00    +0.181 A 
BRANCH  24  25
ATOM     25  C   UNL     1       7.191   0.327  23.003  0.00  0.00    +0.025 A 
ATOM     26  C   UNL     1       6.176   1.311  23.032  0.00  0.00    +0.015 A 
ATOM     27  C   UNL     1       6.404   2.622  22.583  0.00  0.00    +0.050 A 
ATOM     28  C   UNL     1       7.649   2.964  22.088  0.00  0.00    +0.158 A 
ATOM     29  C   UNL     1       8.658   2.014  22.017  0.00  0.00    +0.159 A 
ATOM     30  C   UNL     1       8.442   0.712  22.477  0.00  0.00    +0.060 A 
BRANCH  29  31
ATOM     31  O   UNL     1       9.860   2.406  21.496  0.00  0.00    -0.503 OA
ATOM     32  H   UNL     1      10.470   1.648  21.527  0.00  0.00    +0.292 HD
ENDBRANCH  29  31
BRANCH  28  33
ATOM     33  O   UNL     1       7.886   4.246  21.687  0.00  0.00    -0.503 OA
ATOM     34  H   UNL     1       7.752   4.786  22.492  0.00  0.00    +0.292 HD
ENDBRANCH  28  33
ENDBRANCH  24  25
BRANCH  23  35
ATOM     35  O   UNL     1       6.613  -5.540  25.866  0.00  0.00    -0.506 OA
ATOM     36  H   UNL     1       5.824  -5.886  26.312  0.00  0.00    +0.292 HD
ENDBRANCH  23  35
BRANCH  20  37
ATOM     37  O   UNL     1       5.145  -6.385  21.465  0.00  0.00    -0.507 OA
ATOM     38  H   UNL     1       5.870  -6.602  20.849  0.00  0.00    +0.292 HD
ENDBRANCH  20  37
ENDBRANCH  13  14
ENDBRANCH   3  13
BRANCH   1  39
ATOM     39  C   UNL     1       6.616   4.186  26.120  0.00  0.00    +0.266 C 
BRANCH  39  40
ATOM     40  O   UNL     1       8.036   4.408  26.097  0.00  0.00    -0.462 OA
BRANCH  40  41
ATOM     41  C   UNL     1       8.539   5.009  24.989  0.00  0.00    +0.310 C 
ATOM     42  O   UNL     1       8.069   5.998  24.442  0.00  0.00    -0.251 OA
BRANCH  41  43
ATOM     43  C   UNL     1       9.815   4.338  24.543  0.00  0.00    +0.155 C 
BRANCH  43  45
ATOM     44  C   UNL     1      11.266   6.384  24.860  0.00  0.00    +0.042 C 
ATOM     45  C   UNL     1      10.814   5.299  23.874  0.00  0.00    +0.083 C 
BRANCH  45  46
ATOM     46  O   UNL     1      10.163   5.904  22.757  0.00  0.00    -0.388 OA
ATOM     47  H   UNL     1      10.481   5.456  21.945  0.00  0.00    +0.210 HD
ENDBRANCH  45  46
BRANCH  45  48
ATOM     48  C   UNL     1      11.998   4.453  23.350  0.00  0.00    +0.155 C 
BRANCH  48  49
ATOM     49  C   UNL     1      13.111   5.265  22.727  0.00  0.00    +0.307 C 
ATOM     50  O   UNL     1      12.977   6.046  21.797  0.00  0.00    -0.251 OA
BRANCH  49  51
ATOM     51  O   UNL     1      14.314   5.025  23.297  0.00  0.00    -0.481 OA
ATOM     52  H   UNL     1      14.418   4.124  23.657  0.00  0.00    +0.295 HD
ENDBRANCH  49  51
ENDBRANCH  48  49
ENDBRANCH  45  48
ENDBRANCH  43  45
ENDBRANCH  41  43
ENDBRANCH  40  41
ENDBRANCH  39  40
ENDBRANCH   1  39
TORSDOF 19
ENDMDL
MODEL 2
REMARK VINA RESULT:      -7.3      2.162      6.570
REMARK  Name = 
REMARK  20 active torsions:
REMARK  status: ('A' for Active; 'I' for Inactive)
REMARK    1  A    between atoms: C_1  and  C_2
REMARK    2  A    between atoms: C_2  and  C_3
REMARK    3  A    between atoms: C_2  and  C_7
REMARK    4  A    between atoms: C_2  and  O_46
REMARK    5  A    between atoms: C_3  and  C_4
REMARK    6  A    between atoms: C_4  and  O_6
REMARK    7  A    between atoms: C_7  and  C_8
REMARK    8  A    between atoms: C_8  and  O_10
REMARK    9  A    between atoms: O_10  and  C_11
REMARK   10  A    between atoms: C_11  and  C_12
REMARK   11  A    between atoms: C_14  and  O_45
REMARK   12  A    between atoms: C_16  and  O_44
REMARK   13  A    between atoms: C_17  and  O_43
REMARK   14  A    between atoms: C_18  and  O_21
REMARK   15  A    between atoms: O_21  and  C_22
REMARK   16  A    between atoms: C_23  and  C_35
REMARK   17  A    between atoms: C_27  and  O_34
REMARK   18  A    between atoms: C_29  and  O_33
REMARK   19  A    between atoms: C_37  and  O_42
REMARK   20  A    between atoms: C_38  and  O_41
REMARK                            x       y       z     vdW  Elec       q    Type
REMARK                         _______ _______ _______ _____ _____    ______ ____
ROOT
ATOM      1  C   UNL     1       9.717  -2.871  24.590  0.00  0.00    +0.191 C 
ATOM      2  O   UNL     1       8.422  -2.473  25.081  0.00  0.00    -0.330 OA
ATOM      3  C   UNL     1       8.268  -2.794  26.473  0.00  0.00    +0.340 C 
ATOM      4  C   UNL     1       8.177  -4.332  26.557  0.00  0.00    +0.214 C 
ATOM      5  C   UNL     1       9.434  -4.959  25.932  0.00  0.00    +0.180 C 
ATOM      6  C   UNL     1       9.725  -4.405  24.522  0.00  0.00    +0.178 C 
ENDROOT
BRANCH   6   7
ATOM      7  O   UNL     1       8.725  -4.868  23.599  0.00  0.00    -0.386 OA
ATOM      8  H   UNL     1       8.721  -4.243  22.847  0.00  0.00    +0.210 HD
ENDBRANCH   6   7
BRANCH   5   9
ATOM      9  O   UNL     1       9.290  -6.379  25.875  0.00  0.00    -0.386 OA
ATOM     10  H   UNL     1      10.209  -6.714  25.813  0.00  0.00    +0.210 HD
ENDBRANCH   5   9
BRANCH   4  11
ATOM     11  O   UNL     1       7.006  -4.790  25.832  0.00  0.00    -0.383 OA
ATOM     12  H   UNL     1       7.184  -5.721  25.593  0.00  0.00    +0.210 HD
ENDBRANCH   4  11
BRANCH   3  13
ATOM     13  O   UNL     1       7.019  -2.296  26.981  0.00  0.00    -0.453 OA
BRANCH  13  14
ATOM     14  C   UNL     1       6.543  -1.117  26.432  0.00  0.00    +0.214 A 
ATOM     15  C   UNL     1       7.105   0.194  26.878  0.00  0.00    +0.238 A 
ATOM     16  O   UNL     1       8.152   0.267  27.504  0.00  0.00    -0.283 OA
ATOM     17  C   UNL     1       6.398   1.405  26.467  0.00  0.00    +0.109 A 
ATOM     18  C   UNL     1       5.505   1.295  25.408  0.00  0.00    +0.147 A 
ATOM     19  C   UNL     1       4.924   2.450  24.875  0.00  0.00    +0.092 A 
ATOM     20  C   UNL     1       5.233   3.691  25.432  0.00  0.00    +0.124 A 
ATOM     21  C   UNL     1       6.082   3.801  26.527  0.00  0.00    +0.091 A 
ATOM     22  O   UNL     1       5.175   0.090  24.838  0.00  0.00    -0.451 OA
ATOM     23  C   UNL     1       6.659   2.652  27.050  0.00  0.00    +0.135 A 
ATOM     24  C   UNL     1       5.649  -1.097  25.413  0.00  0.00    +0.181 A 
BRANCH  24  25
ATOM     25  C   UNL     1       5.092  -2.320  24.742  0.00  0.00    +0.025 A 
ATOM     26  C   UNL     1       4.002  -3.014  25.317  0.00  0.00    +0.015 A 
ATOM     27  C   UNL     1       3.385  -4.094  24.667  0.00  0.00    +0.050 A 
ATOM     28  C   UNL     1       3.858  -4.505  23.434  0.00  0.00    +0.158 A 
ATOM     29  C   UNL     1       4.946  -3.867  22.855  0.00  0.00    +0.159 A 
ATOM     30  C   UNL     1       5.553  -2.780  23.490  0.00  0.00    +0.060 A 
BRANCH  29  31
ATOM     31  O   UNL     1       5.383  -4.332  21.646  0.00  0.00    -0.503 OA
ATOM     32  H   UNL     1       6.356  -4.331  21.649  0.00  0.00    +0.292 HD
ENDBRANCH  29  31
BRANCH  28  33
ATOM     33  O   UNL     1       3.238  -5.529  22.781  0.00  0.00    -0.503 OA
ATOM     34  H   UNL     1       2.299  -5.260  22.734  0.00  0.00    +0.292 HD
ENDBRANCH  28  33
ENDBRANCH  24  25
BRANCH  23  35
ATOM     35  O   UNL     1       7.451   2.751  28.157  0.00  0.00    -0.506 OA
ATOM     36  H   UNL     1       7.847   1.892  28.372  0.00  0.00    +0.292 HD
ENDBRANCH  23  35
BRANCH  20  37
ATOM     37  O   UNL     1       4.711   4.850  24.943  0.00  0.00    -0.507 OA
ATOM     38  H   UNL     1       4.534   5.460  25.684  0.00  0.00    +0.292 HD
ENDBRANCH  20  37
ENDBRANCH  13  14
ENDBRANCH   3  13
BRANCH   1  39
ATOM     39  C   UNL     1       9.971  -2.219  23.225  0.00  0.00    +0.266 C 
BRANCH  39  40
ATOM     40  O   UNL     1       9.681  -0.811  23.248  0.00  0.00    -0.462 OA
BRANCH  40  41
ATOM     41  C   UNL     1       8.984  -0.317  22.194  0.00  0.00    +0.310 C 
ATOM     42  O   UNL     1       9.124  -0.661  21.027  0.00  0.00    -0.251 OA
BRANCH  41  43
ATOM     43  C   UNL     1       7.946   0.678  22.651  0.00  0.00    +0.155 C 
BRANCH  43  45
ATOM     44  C   UNL     1       7.176   3.008  22.047  0.00  0.00    +0.042 C 
ATOM     45  C   UNL     1       8.373   2.143  22.463  0.00  0.00    +0.083 C 
BRANCH  45  46
ATOM     46  O   UNL     1       9.374   2.184  21.445  0.00  0.00    -0.388 OA
ATOM     47  H   UNL     1      10.091   1.567  21.703  0.00  0.00    +0.210 HD
ENDBRANCH  45  46
BRANCH  45  48
ATOM     48  C   UNL     1       9.008   2.621  23.790  0.00  0.00    +0.155 C 
BRANCH  48  49
ATOM     49  C   UNL     1      10.517   2.716  23.755  0.00  0.00    +0.307 C 
ATOM     50  O   UNL     1      11.151   3.695  23.394  0.00  0.00    -0.251 OA
BRANCH  49  51
ATOM     51  O   UNL     1      11.121   1.573  24.152  0.00  0.00    -0.481 OA
ATOM     52  H   UNL     1      10.691   1.130  24.909  0.00  0.00    +0.295 HD
ENDBRANCH  49  51
ENDBRANCH  48  49
ENDBRANCH  45  48
ENDBRANCH  43  45
ENDBRANCH  41  43
ENDBRANCH  40  41
ENDBRANCH  39  40
ENDBRANCH   1  39
TORSDOF 19
ENDMDL
MODEL 3
REMARK VINA RESULT:      -7.1      1.285      1.805
REMARK  Name = 
REMARK  20 active torsions:
REMARK  status: ('A' for Active; 'I' for Inactive)
REMARK    1  A    between atoms: C_1  and  C_2
REMARK    2  A    between atoms: C_2  and  C_3
REMARK    3  A    between atoms: C_2  and  C_7
REMARK    4  A    between atoms: C_2  and  O_46
REMARK    5  A    between atoms: C_3  and  C_4
REMARK    6  A    between atoms: C_4  and  O_6
REMARK    7  A    between atoms: C_7  and  C_8
REMARK    8  A    between atoms: C_8  and  O_10
REMARK    9  A    between atoms: O_10  and  C_11
REMARK   10  A    between atoms: C_11  and  C_12
REMARK   11  A    between atoms: C_14  and  O_45
REMARK   12  A    between atoms: C_16  and  O_44
REMARK   13  A    between atoms: C_17  and  O_43
REMARK   14  A    between atoms: C_18  and  O_21
REMARK   15  A    between atoms: O_21  and  C_22
REMARK   16  A    between atoms: C_23  and  C_35
REMARK   17  A    between atoms: C_27  and  O_34
REMARK   18  A    between atoms: C_29  and  O_33
REMARK   19  A    between atoms: C_37  and  O_42
REMARK   20  A    between atoms: C_38  and  O_41
REMARK                            x       y       z     vdW  Elec       q    Type
REMARK                         _______ _______ _______ _____ _____    ______ ____
ROOT
ATOM      1  C   UNL     1       6.370   2.614  26.183  0.00  0.00    +0.191 C 
ATOM      2  O   UNL     1       7.227   1.457  26.238  0.00  0.00    -0.330 OA
ATOM      3  C   UNL     1       6.583   0.360  26.907  0.00  0.00    +0.340 C 
ATOM      4  C   UNL     1       6.488   0.753  28.396  0.00  0.00    +0.214 C 
ATOM      5  C   UNL     1       5.716   2.076  28.533  0.00  0.00    +0.180 C 
ATOM      6  C   UNL     1       6.275   3.177  27.608  0.00  0.00    +0.178 C 
ENDROOT
BRANCH   6   7
ATOM      7  O   UNL     1       7.572   3.592  28.068  0.00  0.00    -0.386 OA
ATOM      8  H   UNL     1       7.634   3.339  29.010  0.00  0.00    +0.210 HD
ENDBRANCH   6   7
BRANCH   5   9
ATOM      9  O   UNL     1       5.752   2.519  29.891  0.00  0.00    -0.386 OA
ATOM     10  H   UNL     1       5.868   3.491  29.826  0.00  0.00    +0.210 HD
ENDBRANCH   5   9
BRANCH   4  11
ATOM     11  O   UNL     1       7.822   0.922  28.940  0.00  0.00    -0.383 OA
ATOM     12  H   UNL     1       7.714   0.976  29.910  0.00  0.00    +0.210 HD
ENDBRANCH   4  11
BRANCH   3  13
ATOM     13  O   UNL     1       7.399  -0.822  26.862  0.00  0.00    -0.453 OA
BRANCH  13  14
ATOM     14  C   UNL     1       6.937  -1.875  26.090  0.00  0.00    +0.214 A 
ATOM     15  C   UNL     1       6.075  -2.929  26.705  0.00  0.00    +0.238 A 
ATOM     16  O   UNL     1       5.532  -2.766  27.789  0.00  0.00    -0.283 OA
ATOM     17  C   UNL     1       5.831  -4.141  25.926  0.00  0.00    +0.109 A 
ATOM     18  C   UNL     1       6.083  -4.084  24.562  0.00  0.00    +0.147 A 
ATOM     19  C   UNL     1       5.719  -5.162  23.748  0.00  0.00    +0.092 A 
ATOM     20  C   UNL     1       5.130  -6.286  24.326  0.00  0.00    +0.124 A 
ATOM     21  C   UNL     1       4.927  -6.372  25.699  0.00  0.00    +0.091 A 
ATOM     22  O   UNL     1       6.665  -2.995  23.959  0.00  0.00    -0.451 OA
ATOM     23  C   UNL     1       5.287  -5.297  26.501  0.00  0.00    +0.135 A 
ATOM     24  C   UNL     1       7.143  -1.943  24.752  0.00  0.00    +0.181 A 
BRANCH  24  25
ATOM     25  C   UNL     1       7.860  -0.898  23.944  0.00  0.00    +0.025 A 
ATOM     26  C   UNL     1       9.272  -0.899  23.871  0.00  0.00    +0.015 A 
ATOM     27  C   UNL     1       9.971  -0.007  23.042  0.00  0.00    +0.050 A 
ATOM     28  C   UNL     1       9.266   0.908  22.281  0.00  0.00    +0.158 A 
ATOM     29  C   UNL     1       7.881   0.957  22.353  0.00  0.00    +0.159 A 
ATOM     30  C   UNL     1       7.179   0.061  23.164  0.00  0.00    +0.060 A 
BRANCH  29  31
ATOM     31  O   UNL     1       7.240   1.899  21.596  0.00  0.00    -0.503 OA
ATOM     32  H   UNL     1       6.564   2.328  22.147  0.00  0.00    +0.292 HD
ENDBRANCH  29  31
BRANCH  28  33
ATOM     33  O   UNL     1       9.938   1.751  21.445  0.00  0.00    -0.503 OA
ATOM     34  H   UNL     1      10.269   2.464  22.028  0.00  0.00    +0.292 HD
ENDBRANCH  28  33
ENDBRANCH  24  25
BRANCH  23  35
ATOM     35  O   UNL     1       5.138  -5.399  27.854  0.00  0.00    -0.506 OA
ATOM     36  H   UNL     1       5.918  -5.047  28.311  0.00  0.00    +0.292 HD
ENDBRANCH  23  35
BRANCH  20  37
ATOM     37  O   UNL     1       4.739  -7.358  23.582  0.00  0.00    -0.507 OA
ATOM     38  H   UNL     1       3.868  -7.171  23.184  0.00  0.00    +0.292 HD
ENDBRANCH  20  37
ENDBRANCH  13  14
ENDBRANCH   3  13
BRANCH   1  39
ATOM     39  C   UNL     1       6.943   3.628  25.185  0.00  0.00    +0.266 C 
BRANCH  39  40
ATOM     40  O   UNL     1       8.375   3.531  25.094  0.00  0.00    -0.462 OA
BRANCH  40  41
ATOM     41  C   UNL     1       8.945   4.010  23.959  0.00  0.00    +0.310 C 
ATOM     42  O   UNL     1       8.362   4.207  22.901  0.00  0.00    -0.251 OA
BRANCH  41  43
ATOM     43  C   UNL     1      10.399   4.345  24.185  0.00  0.00    +0.155 C 
BRANCH  43  45
ATOM     44  C   UNL     1       9.998   6.617  25.216  0.00  0.00    +0.042 C 
ATOM     45  C   UNL     1      10.705   5.849  24.092  0.00  0.00    +0.083 C 
BRANCH  45  46
ATOM     46  O   UNL     1      10.243   6.316  22.825  0.00  0.00    -0.388 OA
ATOM     47  H   UNL     1       9.336   5.970  22.689  0.00  0.00    +0.210 HD
ENDBRANCH  45  46
BRANCH  45  48
ATOM     48  C   UNL     1      12.242   6.019  24.143  0.00  0.00    +0.155 C 
BRANCH  48  49
ATOM     49  C   UNL     1      12.971   5.407  22.968  0.00  0.00    +0.307 C 
ATOM     50  O   UNL     1      12.530   5.326  21.832  0.00  0.00    -0.251 OA
BRANCH  49  51
ATOM     51  O   UNL     1      14.188   4.921  23.304  0.00  0.00    -0.481 OA
ATOM     52  H   UNL     1      14.176   4.010  23.655  0.00  0.00    +0.295 HD
ENDBRANCH  49  51
ENDBRANCH  48  49
ENDBRANCH  45  48
ENDBRANCH  43  45
ENDBRANCH  41  43
ENDBRANCH  40  41
ENDBRANCH  39  40
ENDBRANCH   1  39
TORSDOF 19
ENDMDL
MODEL 4
REMARK VINA RESULT:      -7.1      2.047      8.481
REMARK  Name = 
REMARK  20 active torsions:
REMARK  status: ('A' for Active; 'I' for Inactive)
REMARK    1  A    between atoms: C_1  and  C_2
REMARK    2  A    between atoms: C_2  and  C_3
REMARK    3  A    between atoms: C_2  and  C_7
REMARK    4  A    between atoms: C_2  and  O_46
REMARK    5  A    between atoms: C_3  and  C_4
REMARK    6  A    between atoms: C_4  and  O_6
REMARK    7  A    between atoms: C_7  and  C_8
REMARK    8  A    between atoms: C_8  and  O_10
REMARK    9  A    between atoms: O_10  and  C_11
REMARK   10  A    between atoms: C_11  and  C_12
REMARK   11  A    between atoms: C_14  and  O_45
REMARK   12  A    between atoms: C_16  and  O_44
REMARK   13  A    between atoms: C_17  and  O_43
REMARK   14  A    between atoms: C_18  and  O_21
REMARK   15  A    between atoms: O_21  and  C_22
REMARK   16  A    between atoms: C_23  and  C_35
REMARK   17  A    between atoms: C_27  and  O_34
REMARK   18  A    between atoms: C_29  and  O_33
REMARK   19  A    between atoms: C_37  and  O_42
REMARK   20  A    between atoms: C_38  and  O_41
REMARK                            x       y       z     vdW  Elec       q    Type
REMARK                         _______ _______ _______ _____ _____    ______ ____
ROOT
ATOM      1  C   UNL     1       5.576  -0.596  27.115  0.00  0.00    +0.191 C 
ATOM      2  O   UNL     1       5.830  -0.170  25.761  0.00  0.00    -0.330 OA
ATOM      3  C   UNL     1       6.259   1.200  25.716  0.00  0.00    +0.340 C 
ATOM      4  C   UNL     1       5.028   2.054  26.088  0.00  0.00    +0.214 C 
ATOM      5  C   UNL     1       4.508   1.634  27.473  0.00  0.00    +0.180 C 
ATOM      6  C   UNL     1       4.294   0.111  27.580  0.00  0.00    +0.178 C 
ENDROOT
BRANCH   6   7
ATOM      7  O   UNL     1       3.181  -0.286  26.761  0.00  0.00    -0.386 OA
ATOM      8  H   UNL     1       3.359   0.048  25.860  0.00  0.00    +0.210 HD
ENDBRANCH   6   7
BRANCH   5   9
ATOM      9  O   UNL     1       3.287   2.317  27.760  0.00  0.00    -0.386 OA
ATOM     10  H   UNL     1       3.571   3.159  28.175  0.00  0.00    +0.210 HD
ENDBRANCH   5   9
BRANCH   4  11
ATOM     11  O   UNL     1       3.980   1.852  25.106  0.00  0.00    -0.383 OA
ATOM     12  H   UNL     1       3.452   2.674  25.102  0.00  0.00    +0.210 HD
ENDBRANCH   4  11
BRANCH   3  13
ATOM     13  O   UNL     1       6.614   1.585  24.377  0.00  0.00    -0.453 OA
BRANCH  13  14
ATOM     14  C   UNL     1       7.877   2.122  24.193  0.00  0.00    +0.214 A 
ATOM     15  C   UNL     1       8.109   3.580  24.421  0.00  0.00    +0.238 A 
ATOM     16  O   UNL     1       7.303   4.274  25.024  0.00  0.00    -0.283 OA
ATOM     17  C   UNL     1       9.380   4.140  23.968  0.00  0.00    +0.109 A 
ATOM     18  C   UNL     1      10.415   3.251  23.712  0.00  0.00    +0.147 A 
ATOM     19  C   UNL     1      11.693   3.743  23.430  0.00  0.00    +0.092 A 
ATOM     20  C   UNL     1      11.900   5.122  23.386  0.00  0.00    +0.124 A 
ATOM     21  C   UNL     1      10.856   6.017  23.585  0.00  0.00    +0.091 A 
ATOM     22  O   UNL     1      10.246   1.887  23.743  0.00  0.00    -0.451 OA
ATOM     23  C   UNL     1       9.590   5.523  23.868  0.00  0.00    +0.135 A 
ATOM     24  C   UNL     1       8.961   1.356  23.913  0.00  0.00    +0.181 A 
BRANCH  24  25
ATOM     25  C   UNL     1       8.941  -0.142  23.796  0.00  0.00    +0.025 A 
ATOM     26  C   UNL     1       9.577  -0.941  24.774  0.00  0.00    +0.015 A 
ATOM     27  C   UNL     1       9.488  -2.342  24.758  0.00  0.00    +0.050 A 
ATOM     28  C   UNL     1       8.769  -2.965  23.753  0.00  0.00    +0.158 A 
ATOM     29  C   UNL     1       8.159  -2.212  22.760  0.00  0.00    +0.159 A 
ATOM     30  C   UNL     1       8.231  -0.817  22.781  0.00  0.00    +0.060 A 
BRANCH  29  31
ATOM     31  O   UNL     1       7.482  -2.886  21.781  0.00  0.00    -0.503 OA
ATOM     32  H   UNL     1       6.885  -3.527  22.205  0.00  0.00    +0.292 HD
ENDBRANCH  29  31
BRANCH  28  33
ATOM     33  O   UNL     1       8.648  -4.324  23.755  0.00  0.00    -0.503 OA
ATOM     34  H   UNL     1       9.066  -4.610  22.918  0.00  0.00    +0.292 HD
ENDBRANCH  28  33
ENDBRANCH  24  25
BRANCH  23  35
ATOM     35  O   UNL     1       8.552   6.397  24.013  0.00  0.00    -0.506 OA
ATOM     36  H   UNL     1       7.839   6.188  23.388  0.00  0.00    +0.292 HD
ENDBRANCH  23  35
BRANCH  20  37
ATOM     37  O   UNL     1      13.126   5.658  23.132  0.00  0.00    -0.507 OA
ATOM     38  H   UNL     1      13.599   5.789  23.976  0.00  0.00    +0.292 HD
ENDBRANCH  20  37
ENDBRANCH  13  14
ENDBRANCH   3  13
BRANCH   1  39
ATOM     39  C   UNL     1       5.456  -2.124  27.157  0.00  0.00    +0.266 C 
BRANCH  39  40
ATOM     40  O   UNL     1       6.651  -2.763  26.678  0.00  0.00    -0.462 OA
BRANCH  40  41
ATOM     41  C   UNL     1       6.760  -4.097  26.907  0.00  0.00    +0.310 C 
ATOM     42  O   UNL     1       7.793  -4.682  27.205  0.00  0.00    -0.251 OA
BRANCH  41  43
ATOM     43  C   UNL     1       5.414  -4.772  26.817  0.00  0.00    +0.155 C 
BRANCH  43  45
ATOM     44  C   UNL     1       4.656  -6.869  25.626  0.00  0.00    +0.042 C 
ATOM     45  C   UNL     1       5.145  -5.425  25.450  0.00  0.00    +0.083 C 
BRANCH  45  46
ATOM     46  O   UNL     1       6.365  -5.417  24.708  0.00  0.00    -0.388 OA
ATOM     47  H   UNL     1       7.106  -5.397  25.349  0.00  0.00    +0.210 HD
ENDBRANCH  45  46
BRANCH  45  48
ATOM     48  C   UNL     1       4.115  -4.544  24.705  0.00  0.00    +0.155 C 
BRANCH  48  49
ATOM     49  C   UNL     1       4.699  -3.736  23.568  0.00  0.00    +0.307 C 
ATOM     50  O   UNL     1       4.754  -4.099  22.403  0.00  0.00    -0.251 OA
BRANCH  49  51
ATOM     51  O   UNL     1       5.194  -2.545  23.974  0.00  0.00    -0.481 OA
ATOM     52  H   UNL     1       4.533  -1.827  24.020  0.00  0.00    +0.295 HD
ENDBRANCH  49  51
ENDBRANCH  48  49
ENDBRANCH  45  48
ENDBRANCH  43  45
ENDBRANCH  41  43
ENDBRANCH  40  41
ENDBRANCH  39  40
ENDBRANCH   1  39
TORSDOF 19
ENDMDL
MODEL 5
REMARK VINA RESULT:      -7.0      2.125      2.879
REMARK  Name = 
REMARK  20 active torsions:
REMARK  status: ('A' for Active; 'I' for Inactive)
REMARK    1  A    between atoms: C_1  and  C_2
REMARK    2  A    between atoms: C_2  and  C_3
REMARK    3  A    between atoms: C_2  and  C_7
REMARK    4  A    between atoms: C_2  and  O_46
REMARK    5  A    between atoms: C_3  and  C_4
REMARK    6  A    between atoms: C_4  and  O_6
REMARK    7  A    between atoms: C_7  and  C_8
REMARK    8  A    between atoms: C_8  and  O_10
REMARK    9  A    between atoms: O_10  and  C_11
REMARK   10  A    between atoms: C_11  and  C_12
REMARK   11  A    between atoms: C_14  and  O_45
REMARK   12  A    between atoms: C_16  and  O_44
REMARK   13  A    between atoms: C_17  and  O_43
REMARK   14  A    between atoms: C_18  and  O_21
REMARK   15  A    between atoms: O_21  and  C_22
REMARK   16  A    between atoms: C_23  and  C_35
REMARK   17  A    between atoms: C_27  and  O_34
REMARK   18  A    between atoms: C_29  and  O_33
REMARK   19  A    between atoms: C_37  and  O_42
REMARK   20  A    between atoms: C_38  and  O_41
REMARK                            x       y       z     vdW  Elec       q    Type
REMARK                         _______ _______ _______ _____ _____    ______ ____
ROOT
ATOM      1  C   UNL     1       5.548   1.311  26.575  0.00  0.00    +0.191 C 
ATOM      2  O   UNL     1       6.395   0.282  26.026  0.00  0.00    -0.330 OA
ATOM      3  C   UNL     1       6.642  -0.759  26.984  0.00  0.00    +0.340 C 
ATOM      4  C   UNL     1       7.555  -0.146  28.067  0.00  0.00    +0.214 C 
ATOM      5  C   UNL     1       6.871   1.086  28.683  0.00  0.00    +0.180 C 
ATOM      6  C   UNL     1       6.383   2.081  27.610  0.00  0.00    +0.178 C 
ENDROOT
BRANCH   6   7
ATOM      7  O   UNL     1       7.510   2.708  26.975  0.00  0.00    -0.386 OA
ATOM      8  H   UNL     1       7.797   3.436  27.559  0.00  0.00    +0.210 HD
ENDBRANCH   6   7
BRANCH   5   9
ATOM      9  O   UNL     1       7.769   1.742  29.579  0.00  0.00    -0.386 OA
ATOM     10  H   UNL     1       8.026   2.563  29.108  0.00  0.00    +0.210 HD
ENDBRANCH   5   9
BRANCH   4  11
ATOM     11  O   UNL     1       8.814   0.258  27.471  0.00  0.00    -0.383 OA
ATOM     12  H   UNL     1       9.511  -0.227  27.955  0.00  0.00    +0.210 HD
ENDBRANCH   4  11
BRANCH   3  13
ATOM     13  O   UNL     1       7.395  -1.833  26.396  0.00  0.00    -0.453 OA
BRANCH  13  14
ATOM     14  C   UNL     1       6.675  -2.822  25.746  0.00  0.00    +0.214 A 
ATOM     15  C   UNL     1       5.815  -3.757  26.531  0.00  0.00    +0.238 A 
ATOM     16  O   UNL     1       5.501  -3.525  27.690  0.00  0.00    -0.283 OA
ATOM     17  C   UNL     1       5.287  -4.931  25.838  0.00  0.00    +0.109 A 
ATOM     18  C   UNL     1       5.294  -4.909  24.450  0.00  0.00    +0.147 A 
ATOM     19  C   UNL     1       4.659  -5.934  23.741  0.00  0.00    +0.092 A 
ATOM     20  C   UNL     1       4.050  -6.974  24.443  0.00  0.00    +0.124 A 
ATOM     21  C   UNL     1       4.089  -7.030  25.832  0.00  0.00    +0.091 A 
ATOM     22  O   UNL     1       5.887  -3.902  23.726  0.00  0.00    -0.451 OA
ATOM     23  C   UNL     1       4.718  -6.008  26.530  0.00  0.00    +0.135 A 
ATOM     24  C   UNL     1       6.626  -2.918  24.394  0.00  0.00    +0.181 A 
BRANCH  24  25
ATOM     25  C   UNL     1       7.308  -1.972  23.446  0.00  0.00    +0.025 A 
ATOM     26  C   UNL     1       6.710  -0.733  23.123  0.00  0.00    +0.015 A 
ATOM     27  C   UNL     1       7.365   0.221  22.328  0.00  0.00    +0.050 A 
ATOM     28  C   UNL     1       8.627  -0.057  21.833  0.00  0.00    +0.158 A 
ATOM     29  C   UNL     1       9.229  -1.277  22.104  0.00  0.00    +0.159 A 
ATOM     30  C   UNL     1       8.589  -2.224  22.909  0.00  0.00    +0.060 A 
BRANCH  29  31
ATOM     31  O   UNL     1      10.467  -1.505  21.569  0.00  0.00    -0.503 OA
ATOM     32  H   UNL     1      11.088  -1.686  22.295  0.00  0.00    +0.292 HD
ENDBRANCH  29  31
BRANCH  28  33
ATOM     33  O   UNL     1       9.283   0.881  21.092  0.00  0.00    -0.503 OA
ATOM     34  H   UNL     1       8.738   1.689  21.178  0.00  0.00    +0.292 HD
ENDBRANCH  28  33
ENDBRANCH  24  25
BRANCH  23  35
ATOM     35  O   UNL     1       4.804  -6.087  27.890  0.00  0.00    -0.506 OA
ATOM     36  H   UNL     1       3.958  -5.848  28.300  0.00  0.00    +0.292 HD
ENDBRANCH  23  35
BRANCH  20  37
ATOM     37  O   UNL     1       3.402  -7.990  23.808  0.00  0.00    -0.507 OA
ATOM     38  H   UNL     1       3.901  -8.818  23.936  0.00  0.00    +0.292 HD
ENDBRANCH  20  37
ENDBRANCH  13  14
ENDBRANCH   3  13
BRANCH   1  39
ATOM     39  C   UNL     1       5.036   2.211  25.444  0.00  0.00    +0.266 C 
BRANCH  39  40
ATOM     40  O   UNL     1       6.037   2.410  24.431  0.00  0.00    -0.462 OA
BRANCH  40  41
ATOM     41  C   UNL     1       5.869   3.481  23.614  0.00  0.00    +0.310 C 
ATOM     42  O   UNL     1       5.064   3.554  22.695  0.00  0.00    -0.251 OA
BRANCH  41  43
ATOM     43  C   UNL     1       6.767   4.622  24.028  0.00  0.00    +0.155 C 
BRANCH  43  45
ATOM     44  C   UNL     1       8.420   6.027  22.732  0.00  0.00    +0.042 C 
ATOM     45  C   UNL     1       8.122   4.633  23.300  0.00  0.00    +0.083 C 
BRANCH  45  46
ATOM     46  O   UNL     1       8.060   3.683  22.237  0.00  0.00    -0.388 OA
ATOM     47  H   UNL     1       8.143   4.171  21.391  0.00  0.00    +0.210 HD
ENDBRANCH  45  46
BRANCH  45  48
ATOM     48  C   UNL     1       9.199   4.168  24.308  0.00  0.00    +0.155 C 
BRANCH  48  49
ATOM     49  C   UNL     1       9.648   2.737  24.117  0.00  0.00    +0.307 C 
ATOM     50  O   UNL     1      10.567   2.378  23.397  0.00  0.00    -0.251 OA
BRANCH  49  51
ATOM     51  O   UNL     1       8.900   1.857  24.821  0.00  0.00    -0.481 OA
ATOM     52  H   UNL     1       9.076   1.855  25.782  0.00  0.00    +0.295 HD
ENDBRANCH  49  51
ENDBRANCH  48  49
ENDBRANCH  45  48
ENDBRANCH  43  45
ENDBRANCH  41  43
ENDBRANCH  40  41
ENDBRANCH  39  40
ENDBRANCH   1  39
TORSDOF 19
ENDMDL
MODEL 6
REMARK VINA RESULT:      -6.9      1.464      2.399
REMARK  Name = 
REMARK  20 active torsions:
REMARK  status: ('A' for Active; 'I' for Inactive)
REMARK    1  A    between atoms: C_1  and  C_2
REMARK    2  A    between atoms: C_2  and  C_3
REMARK    3  A    between atoms: C_2  and  C_7
REMARK    4  A    between atoms: C_2  and  O_46
REMARK    5  A    between atoms: C_3  and  C_4
REMARK    6  A    between atoms: C_4  and  O_6
REMARK    7  A    between atoms: C_7  and  C_8
REMARK    8  A    between atoms: C_8  and  O_10
REMARK    9  A    between atoms: O_10  and  C_11
REMARK   10  A    between atoms: C_11  and  C_12
REMARK   11  A    between atoms: C_14  and  O_45
REMARK   12  A    between atoms: C_16  and  O_44
REMARK   13  A    between atoms: C_17  and  O_43
REMARK   14  A    between atoms: C_18  and  O_21
REMARK   15  A    between atoms: O_21  and  C_22
REMARK   16  A    between atoms: C_23  and  C_35
REMARK   17  A    between atoms: C_27  and  O_34
REMARK   18  A    between atoms: C_29  and  O_33
REMARK   19  A    between atoms: C_37  and  O_42
REMARK   20  A    between atoms: C_38  and  O_41
REMARK                            x       y       z     vdW  Elec       q    Type
REMARK                         _______ _______ _______ _____ _____    ______ ____
ROOT
ATOM      1  C   UNL     1       6.002   2.158  26.543  0.00  0.00    +0.191 C 
ATOM      2  O   UNL     1       7.040   1.213  26.217  0.00  0.00    -0.330 OA
ATOM      3  C   UNL     1       6.772  -0.077  26.790  0.00  0.00    +0.340 C 
ATOM      4  C   UNL     1       6.955   0.077  28.315  0.00  0.00    +0.214 C 
ATOM      5  C   UNL     1       6.013   1.174  28.839  0.00  0.00    +0.180 C 
ATOM      6  C   UNL     1       6.139   2.486  28.038  0.00  0.00    +0.178 C 
ENDROOT
BRANCH   6   7
ATOM      7  O   UNL     1       7.412   3.099  28.299  0.00  0.00    -0.386 OA
ATOM      8  H   UNL     1       7.916   3.075  27.462  0.00  0.00    +0.210 HD
ENDBRANCH   6   7
BRANCH   5   9
ATOM      9  O   UNL     1       6.280   1.422  30.221  0.00  0.00    -0.386 OA
ATOM     10  H   UNL     1       6.110   0.561  30.659  0.00  0.00    +0.210 HD
ENDBRANCH   5   9
BRANCH   4  11
ATOM     11  O   UNL     1       8.326   0.449  28.606  0.00  0.00    -0.383 OA
ATOM     12  H   UNL     1       8.508   0.126  29.510  0.00  0.00    +0.210 HD
ENDBRANCH   4  11
BRANCH   3  13
ATOM     13  O   UNL     1       7.753  -1.041  26.371  0.00  0.00    -0.453 OA
BRANCH  13  14
ATOM     14  C   UNL     1       7.422  -1.845  25.293  0.00  0.00    +0.214 A 
ATOM     15  C   UNL     1       6.550  -3.042  25.494  0.00  0.00    +0.238 A 
ATOM     16  O   UNL     1       5.891  -3.195  26.513  0.00  0.00    -0.283 OA
ATOM     17  C   UNL     1       6.445  -3.993  24.390  0.00  0.00    +0.109 A 
ATOM     18  C   UNL     1       6.834  -3.555  23.131  0.00  0.00    +0.147 A 
ATOM     19  C   UNL     1       6.606  -4.369  22.017  0.00  0.00    +0.092 A 
ATOM     20  C   UNL     1       6.013  -5.619  22.195  0.00  0.00    +0.124 A 
ATOM     21  C   UNL     1       5.673  -6.086  23.459  0.00  0.00    +0.091 A 
ATOM     22  O   UNL     1       7.424  -2.332  22.920  0.00  0.00    -0.451 OA
ATOM     23  C   UNL     1       5.898  -5.272  24.561  0.00  0.00    +0.135 A 
ATOM     24  C   UNL     1       7.769  -1.535  24.020  0.00  0.00    +0.181 A 
BRANCH  24  25
ATOM     25  C   UNL     1       8.517  -0.295  23.615  0.00  0.00    +0.025 A 
ATOM     26  C   UNL     1       9.744   0.031  24.238  0.00  0.00    +0.015 A 
ATOM     27  C   UNL     1      10.523   1.119  23.814  0.00  0.00    +0.050 A 
ATOM     28  C   UNL     1      10.078   1.905  22.766  0.00  0.00    +0.158 A 
ATOM     29  C   UNL     1       8.863   1.632  22.154  0.00  0.00    +0.159 A 
ATOM     30  C   UNL     1       8.092   0.540  22.561  0.00  0.00    +0.060 A 
BRANCH  29  31
ATOM     31  O   UNL     1       8.466   2.458  21.139  0.00  0.00    -0.503 OA
ATOM     32  H   UNL     1       7.583   2.806  21.354  0.00  0.00    +0.292 HD
ENDBRANCH  29  31
BRANCH  28  33
ATOM     33  O   UNL     1      10.850   2.940  22.325  0.00  0.00    -0.503 OA
ATOM     34  H   UNL     1      11.718   2.802  22.755  0.00  0.00    +0.292 HD
ENDBRANCH  28  33
ENDBRANCH  24  25
BRANCH  23  35
ATOM     35  O   UNL     1       5.614  -5.747  25.808  0.00  0.00    -0.506 OA
ATOM     36  H   UNL     1       5.179  -6.612  25.753  0.00  0.00    +0.292 HD
ENDBRANCH  23  35
BRANCH  20  37
ATOM     37  O   UNL     1       5.751  -6.448  21.146  0.00  0.00    -0.507 OA
ATOM     38  H   UNL     1       5.824  -5.944  20.313  0.00  0.00    +0.292 HD
ENDBRANCH  20  37
ENDBRANCH  13  14
ENDBRANCH   3  13
BRANCH   1  39
ATOM     39  C   UNL     1       6.141   3.399  25.653  0.00  0.00    +0.266 C 
BRANCH  39  40
ATOM     40  O   UNL     1       6.637   3.061  24.346  0.00  0.00    -0.462 OA
BRANCH  40  41
ATOM     41  C   UNL     1       6.044   3.679  23.293  0.00  0.00    +0.310 C 
ATOM     42  O   UNL     1       5.561   3.116  22.320  0.00  0.00    -0.251 OA
BRANCH  41  43
ATOM     43  C   UNL     1       5.989   5.172  23.505  0.00  0.00    +0.155 C 
BRANCH  43  45
ATOM     44  C   UNL     1       6.574   7.103  21.983  0.00  0.00    +0.042 C 
ATOM     45  C   UNL     1       7.129   5.935  22.807  0.00  0.00    +0.083 C 
BRANCH  45  46
ATOM     46  O   UNL     1       7.811   5.020  21.949  0.00  0.00    -0.388 OA
ATOM     47  H   UNL     1       7.281   4.924  21.130  0.00  0.00    +0.210 HD
ENDBRANCH  45  46
BRANCH  45  48
ATOM     48  C   UNL     1       8.116   6.405  23.901  0.00  0.00    +0.155 C 
BRANCH  48  49
ATOM     49  C   UNL     1       9.409   5.622  23.947  0.00  0.00    +0.307 C 
ATOM     50  O   UNL     1      10.449   5.948  23.395  0.00  0.00    -0.251 OA
BRANCH  49  51
ATOM     51  O   UNL     1       9.301   4.477  24.658  0.00  0.00    -0.481 OA
ATOM     52  H   UNL     1       9.136   4.608  25.612  0.00  0.00    +0.295 HD
ENDBRANCH  49  51
ENDBRANCH  48  49
ENDBRANCH  45  48
ENDBRANCH  43  45
ENDBRANCH  41  43
ENDBRANCH  40  41
ENDBRANCH  39  40
ENDBRANCH   1  39
TORSDOF 19
ENDMDL
MODEL 7
REMARK VINA RESULT:      -6.8      2.764      9.277
REMARK  Name = 
REMARK  20 active torsions:
REMARK  status: ('A' for Active; 'I' for Inactive)
REMARK    1  A    between atoms: C_1  and  C_2
REMARK    2  A    between atoms: C_2  and  C_3
REMARK    3  A    between atoms: C_2  and  C_7
REMARK    4  A    between atoms: C_2  and  O_46
REMARK    5  A    between atoms: C_3  and  C_4
REMARK    6  A    between atoms: C_4  and  O_6
REMARK    7  A    between atoms: C_7  and  C_8
REMARK    8  A    between atoms: C_8  and  O_10
REMARK    9  A    between atoms: O_10  and  C_11
REMARK   10  A    between atoms: C_11  and  C_12
REMARK   11  A    between atoms: C_14  and  O_45
REMARK   12  A    between atoms: C_16  and  O_44
REMARK   13  A    between atoms: C_17  and  O_43
REMARK   14  A    between atoms: C_18  and  O_21
REMARK   15  A    between atoms: O_21  and  C_22
REMARK   16  A    between atoms: C_23  and  C_35
REMARK   17  A    between atoms: C_27  and  O_34
REMARK   18  A    between atoms: C_29  and  O_33
REMARK   19  A    between atoms: C_37  and  O_42
REMARK   20  A    between atoms: C_38  and  O_41
REMARK                            x       y       z     vdW  Elec       q    Type
REMARK                         _______ _______ _______ _____ _____    ______ ____
ROOT
ATOM      1  C   UNL     1       6.478  -4.252  24.414  0.00  0.00    +0.191 C 
ATOM      2  O   UNL     1       6.679  -3.250  25.429  0.00  0.00    -0.330 OA
ATOM      3  C   UNL     1       8.006  -2.704  25.370  0.00  0.00    +0.340 C 
ATOM      4  C   UNL     1       8.959  -3.824  25.841  0.00  0.00    +0.214 C 
ATOM      5  C   UNL     1       8.779  -5.063  24.948  0.00  0.00    +0.180 C 
ATOM      6  C   UNL     1       7.301  -5.483  24.821  0.00  0.00    +0.178 C 
ENDROOT
BRANCH   6   7
ATOM      7  O   UNL     1       6.830  -6.004  26.075  0.00  0.00    -0.386 OA
ATOM      8  H   UNL     1       6.122  -6.646  25.869  0.00  0.00    +0.210 HD
ENDBRANCH   6   7
BRANCH   5   9
ATOM      9  O   UNL     1       9.549  -6.149  25.467  0.00  0.00    -0.386 OA
ATOM     10  H   UNL     1       8.933  -6.912  25.451  0.00  0.00    +0.210 HD
ENDBRANCH   5   9
BRANCH   4  11
ATOM     11  O   UNL     1       8.652  -4.179  27.214  0.00  0.00    -0.383 OA
ATOM     12  H   UNL     1       9.513  -4.270  27.668  0.00  0.00    +0.210 HD
ENDBRANCH   4  11
BRANCH   3  13
ATOM     13  O   UNL     1       8.165  -1.630  26.314  0.00  0.00    -0.453 OA
BRANCH  13  14
ATOM     14  C   UNL     1       8.204  -0.345  25.800  0.00  0.00    +0.214 A 
ATOM     15  C   UNL     1       9.325   0.066  24.901  0.00  0.00    +0.238 A 
ATOM     16  O   UNL     1      10.065  -0.755  24.378  0.00  0.00    -0.283 OA
ATOM     17  C   UNL     1       9.461   1.489  24.600  0.00  0.00    +0.109 A 
ATOM     18  C   UNL     1       8.359   2.300  24.838  0.00  0.00    +0.147 A 
ATOM     19  C   UNL     1       8.382   3.635  24.421  0.00  0.00    +0.092 A 
ATOM     20  C   UNL     1       9.523   4.135  23.793  0.00  0.00    +0.124 A 
ATOM     21  C   UNL     1      10.649   3.343  23.602  0.00  0.00    +0.091 A 
ATOM     22  O   UNL     1       7.221   1.842  25.458  0.00  0.00    -0.451 OA
ATOM     23  C   UNL     1      10.619   2.018  24.015  0.00  0.00    +0.135 A 
ATOM     24  C   UNL     1       7.199   0.546  25.988  0.00  0.00    +0.181 A 
BRANCH  24  25
ATOM     25  C   UNL     1       5.930   0.255  26.738  0.00  0.00    +0.025 A 
ATOM     26  C   UNL     1       5.676   0.884  27.979  0.00  0.00    +0.015 A 
ATOM     27  C   UNL     1       4.457   0.722  28.655  0.00  0.00    +0.050 A 
ATOM     28  C   UNL     1       3.476  -0.083  28.104  0.00  0.00    +0.158 A 
ATOM     29  C   UNL     1       3.704  -0.739  26.903  0.00  0.00    +0.159 A 
ATOM     30  C   UNL     1       4.909  -0.568  26.217  0.00  0.00    +0.060 A 
BRANCH  29  31
ATOM     31  O   UNL     1       2.705  -1.539  26.420  0.00  0.00    -0.503 OA
ATOM     32  H   UNL     1       1.926  -1.440  26.994  0.00  0.00    +0.292 HD
ENDBRANCH  29  31
BRANCH  28  33
ATOM     33  O   UNL     1       2.275  -0.213  28.739  0.00  0.00    -0.503 OA
ATOM     34  H   UNL     1       2.010  -1.141  28.577  0.00  0.00    +0.292 HD
ENDBRANCH  28  33
ENDBRANCH  24  25
BRANCH  23  35
ATOM     35  O   UNL     1      11.741   1.253  23.877  0.00  0.00    -0.506 OA
ATOM     36  H   UNL     1      12.534   1.766  24.098  0.00  0.00    +0.292 HD
ENDBRANCH  23  35
BRANCH  20  37
ATOM     37  O   UNL     1       9.596   5.420  23.350  0.00  0.00    -0.507 OA
ATOM     38  H   UNL     1       9.445   6.027  24.099  0.00  0.00    +0.292 HD
ENDBRANCH  20  37
ENDBRANCH  13  14
ENDBRANCH   3  13
BRANCH   1  39
ATOM     39  C   UNL     1       4.981  -4.560  24.287  0.00  0.00    +0.266 C 
BRANCH  39  40
ATOM     40  O   UNL     1       4.259  -4.180  25.471  0.00  0.00    -0.462 OA
BRANCH  40  41
ATOM     41  C   UNL     1       3.820  -5.190  26.265  0.00  0.00    +0.310 C 
ATOM     42  O   UNL     1       3.879  -6.382  25.993  0.00  0.00    -0.251 OA
BRANCH  41  43
ATOM     43  C   UNL     1       3.303  -4.658  27.578  0.00  0.00    +0.155 C 
BRANCH  43  45
ATOM     44  C   UNL     1       4.169  -3.296  29.524  0.00  0.00    +0.042 C 
ATOM     45  C   UNL     1       4.385  -4.550  28.667  0.00  0.00    +0.083 C 
BRANCH  45  46
ATOM     46  O   UNL     1       5.656  -4.479  28.020  0.00  0.00    -0.388 OA
ATOM     47  H   UNL     1       5.934  -5.393  27.802  0.00  0.00    +0.210 HD
ENDBRANCH  45  46
BRANCH  45  48
ATOM     48  C   UNL     1       4.337  -5.849  29.505  0.00  0.00    +0.155 C 
BRANCH  48  49
ATOM     49  C   UNL     1       5.551  -6.736  29.342  0.00  0.00    +0.307 C 
ATOM     50  O   UNL     1       6.532  -6.728  30.070  0.00  0.00    -0.251 OA
BRANCH  49  51
ATOM     51  O   UNL     1       5.460  -7.552  28.267  0.00  0.00    -0.481 OA
ATOM     52  H   UNL     1       5.895  -7.210  27.462  0.00  0.00    +0.295 HD
ENDBRANCH  49  51
ENDBRANCH  48  49
ENDBRANCH  45  48
ENDBRANCH  43  45
ENDBRANCH  41  43
ENDBRANCH  40  41
ENDBRANCH  39  40
ENDBRANCH   1  39
TORSDOF 19
ENDMDL
MODEL 8
REMARK VINA RESULT:      -6.7      2.380      7.719
REMARK  Name = 
REMARK  20 active torsions:
REMARK  status: ('A' for Active; 'I' for Inactive)
REMARK    1  A    between atoms: C_1  and  C_2
REMARK    2  A    between atoms: C_2  and  C_3
REMARK    3  A    between atoms: C_2  and  C_7
REMARK    4  A    between atoms: C_2  and  O_46
REMARK    5  A    between atoms: C_3  and  C_4
REMARK    6  A    between atoms: C_4  and  O_6
REMARK    7  A    between atoms: C_7  and  C_8
REMARK    8  A    between atoms: C_8  and  O_10
REMARK    9  A    between atoms: O_10  and  C_11
REMARK   10  A    between atoms: C_11  and  C_12
REMARK   11  A    between atoms: C_14  and  O_45
REMARK   12  A    between atoms: C_16  and  O_44
REMARK   13  A    between atoms: C_17  and  O_43
REMARK   14  A    between atoms: C_18  and  O_21
REMARK   15  A    between atoms: O_21  and  C_22
REMARK   16  A    between atoms: C_23  and  C_35
REMARK   17  A    between atoms: C_27  and  O_34
REMARK   18  A    between atoms: C_29  and  O_33
REMARK   19  A    between atoms: C_37  and  O_42
REMARK   20  A    between atoms: C_38  and  O_41
REMARK                            x       y       z     vdW  Elec       q    Type
REMARK                         _______ _______ _______ _____ _____    ______ ____
ROOT
ATOM      1  C   UNL     1       6.871  -1.939  22.621  0.00  0.00    +0.191 C 
ATOM      2  O   UNL     1       7.019  -1.344  23.925  0.00  0.00    -0.330 OA
ATOM      3  C   UNL     1       7.770  -0.121  23.860  0.00  0.00    +0.340 C 
ATOM      4  C   UNL     1       9.224  -0.520  23.530  0.00  0.00    +0.214 C 
ATOM      5  C   UNL     1       9.256  -1.314  22.213  0.00  0.00    +0.180 C 
ATOM      6  C   UNL     1       8.248  -2.482  22.211  0.00  0.00    +0.178 C 
ENDROOT
BRANCH   6   7
ATOM      7  O   UNL     1       8.677  -3.500  23.131  0.00  0.00    -0.386 OA
ATOM      8  H   UNL     1       8.296  -4.344  22.820  0.00  0.00    +0.210 HD
ENDBRANCH   6   7
BRANCH   5   9
ATOM      9  O   UNL     1      10.575  -1.810  21.978  0.00  0.00    -0.386 OA
ATOM     10  H   UNL     1      10.968  -1.166  21.352  0.00  0.00    +0.210 HD
ENDBRANCH   5   9
BRANCH   4  11
ATOM     11  O   UNL     1       9.756  -1.346  24.596  0.00  0.00    -0.383 OA
ATOM     12  H   UNL     1       9.080  -1.345  25.302  0.00  0.00    +0.210 HD
ENDBRANCH   4  11
BRANCH   3  13
ATOM     13  O   UNL     1       7.820   0.523  25.144  0.00  0.00    -0.453 OA
BRANCH  13  14
ATOM     14  C   UNL     1       6.618   0.959  25.675  0.00  0.00    +0.214 A 
ATOM     15  C   UNL     1       5.789   0.035  26.507  0.00  0.00    +0.238 A 
ATOM     16  O   UNL     1       6.247  -1.001  26.969  0.00  0.00    -0.283 OA
ATOM     17  C   UNL     1       4.425   0.450  26.821  0.00  0.00    +0.109 A 
ATOM     18  C   UNL     1       4.115   1.795  26.665  0.00  0.00    +0.147 A 
ATOM     19  C   UNL     1       2.875   2.272  27.101  0.00  0.00    +0.092 A 
ATOM     20  C   UNL     1       1.960   1.382  27.664  0.00  0.00    +0.124 A 
ATOM     21  C   UNL     1       2.243   0.025  27.771  0.00  0.00    +0.091 A 
ATOM     22  O   UNL     1       4.990   2.699  26.112  0.00  0.00    -0.451 OA
ATOM     23  C   UNL     1       3.477  -0.442  27.340  0.00  0.00    +0.135 A 
ATOM     24  C   UNL     1       6.196   2.243  25.564  0.00  0.00    +0.181 A 
BRANCH  24  25
ATOM     25  C   UNL     1       6.970   3.342  24.892  0.00  0.00    +0.025 A 
ATOM     26  C   UNL     1       7.998   4.017  25.589  0.00  0.00    +0.015 A 
ATOM     27  C   UNL     1       8.814   4.972  24.961  0.00  0.00    +0.050 A 
ATOM     28  C   UNL     1       8.605   5.274  23.628  0.00  0.00    +0.158 A 
ATOM     29  C   UNL     1       7.584   4.653  22.923  0.00  0.00    +0.159 A 
ATOM     30  C   UNL     1       6.779   3.689  23.538  0.00  0.00    +0.060 A 
BRANCH  29  31
ATOM     31  O   UNL     1       7.410   5.009  21.614  0.00  0.00    -0.503 OA
ATOM     32  H   UNL     1       6.466   5.192  21.467  0.00  0.00    +0.292 HD
ENDBRANCH  29  31
BRANCH  28  33
ATOM     33  O   UNL     1       9.419   6.173  23.004  0.00  0.00    -0.503 OA
ATOM     34  H   UNL     1       8.826   6.910  22.752  0.00  0.00    +0.292 HD
ENDBRANCH  28  33
ENDBRANCH  24  25
BRANCH  23  35
ATOM     35  O   UNL     1       3.738  -1.780  27.395  0.00  0.00    -0.506 OA
ATOM     36  H   UNL     1       3.337  -2.175  28.186  0.00  0.00    +0.292 HD
ENDBRANCH  23  35
BRANCH  20  37
ATOM     37  O   UNL     1       0.744   1.791  28.121  0.00  0.00    -0.507 OA
ATOM     38  H   UNL     1       0.225   2.148  27.376  0.00  0.00    +0.292 HD
ENDBRANCH  20  37
ENDBRANCH  13  14
ENDBRANCH   3  13
BRANCH   1  39
ATOM     39  C   UNL     1       5.799  -3.034  22.677  0.00  0.00    +0.266 C 
BRANCH  39  40
ATOM     40  O   UNL     1       5.601  -3.515  24.017  0.00  0.00    -0.462 OA
BRANCH  40  41
ATOM     41  C   UNL     1       5.210  -4.808  24.148  0.00  0.00    +0.310 C 
ATOM     42  O   UNL     1       4.236  -5.313  23.604  0.00  0.00    -0.251 OA
BRANCH  41  43
ATOM     43  C   UNL     1       6.181  -5.582  25.005  0.00  0.00    +0.155 C 
BRANCH  43  45
ATOM     44  C   UNL     1       5.206  -6.392  27.192  0.00  0.00    +0.042 C 
ATOM     45  C   UNL     1       6.035  -5.296  26.510  0.00  0.00    +0.083 C 
BRANCH  45  46
ATOM     46  O   UNL     1       5.381  -4.036  26.658  0.00  0.00    -0.388 OA
ATOM     47  H   UNL     1       5.474  -3.547  25.814  0.00  0.00    +0.210 HD
ENDBRANCH  45  46
BRANCH  45  48
ATOM     48  C   UNL     1       7.457  -5.180  27.105  0.00  0.00    +0.155 C 
BRANCH  48  49
ATOM     49  C   UNL     1       8.410  -4.350  26.274  0.00  0.00    +0.307 C 
ATOM     50  O   UNL     1       9.481  -4.740  25.834  0.00  0.00    -0.251 OA
BRANCH  49  51
ATOM     51  O   UNL     1       7.966  -3.089  26.075  0.00  0.00    -0.481 OA
ATOM     52  H   UNL     1       7.006  -2.972  26.210  0.00  0.00    +0.295 HD
ENDBRANCH  49  51
ENDBRANCH  48  49
ENDBRANCH  45  48
ENDBRANCH  43  45
ENDBRANCH  41  43
ENDBRANCH  40  41
ENDBRANCH  39  40
ENDBRANCH   1  39
TORSDOF 19
ENDMDL
MODEL 9
REMARK VINA RESULT:      -6.6      2.695      9.392
REMARK  Name = 
REMARK  20 active torsions:
REMARK  status: ('A' for Active; 'I' for Inactive)
REMARK    1  A    between atoms: C_1  and  C_2
REMARK    2  A    between atoms: C_2  and  C_3
REMARK    3  A    between atoms: C_2  and  C_7
REMARK    4  A    between atoms: C_2  and  O_46
REMARK    5  A    between atoms: C_3  and  C_4
REMARK    6  A    between atoms: C_4  and  O_6
REMARK    7  A    between atoms: C_7  and  C_8
REMARK    8  A    between atoms: C_8  and  O_10
REMARK    9  A    between atoms: O_10  and  C_11
REMARK   10  A    between atoms: C_11  and  C_12
REMARK   11  A    between atoms: C_14  and  O_45
REMARK   12  A    between atoms: C_16  and  O_44
REMARK   13  A    between atoms: C_17  and  O_43
REMARK   14  A    between atoms: C_18  and  O_21
REMARK   15  A    between atoms: O_21  and  C_22
REMARK   16  A    between atoms: C_23  and  C_35
REMARK   17  A    between atoms: C_27  and  O_34
REMARK   18  A    between atoms: C_29  and  O_33
REMARK   19  A    between atoms: C_37  and  O_42
REMARK   20  A    between atoms: C_38  and  O_41
REMARK                            x       y       z     vdW  Elec       q    Type
REMARK                         _______ _______ _______ _____ _____    ______ ____
ROOT
ATOM      1  C   UNL     1       5.311  -3.829  27.159  0.00  0.00    +0.191 C 
ATOM      2  O   UNL     1       5.120  -2.993  26.001  0.00  0.00    -0.330 OA
ATOM      3  C   UNL     1       5.324  -1.606  26.317  0.00  0.00    +0.340 C 
ATOM      4  C   UNL     1       4.136  -1.184  27.208  0.00  0.00    +0.214 C 
ATOM      5  C   UNL     1       4.082  -2.082  28.456  0.00  0.00    +0.180 C 
ATOM      6  C   UNL     1       4.121  -3.582  28.098  0.00  0.00    +0.178 C 
ENDROOT
BRANCH   6   7
ATOM      7  O   UNL     1       2.892  -3.965  27.457  0.00  0.00    -0.386 OA
ATOM      8  H   UNL     1       3.121  -4.247  26.550  0.00  0.00    +0.210 HD
ENDBRANCH   6   7
BRANCH   5   9
ATOM      9  O   UNL     1       2.903  -1.794  29.209  0.00  0.00    -0.386 OA
ATOM     10  H   UNL     1       2.299  -2.539  29.009  0.00  0.00    +0.210 HD
ENDBRANCH   5   9
BRANCH   4  11
ATOM     11  O   UNL     1       2.897  -1.325  26.467  0.00  0.00    -0.383 OA
ATOM     12  H   UNL     1       2.969  -0.719  25.704  0.00  0.00    +0.210 HD
ENDBRANCH   4  11
BRANCH   3  13
ATOM     13  O   UNL     1       5.240  -0.790  25.136  0.00  0.00    -0.453 OA
BRANCH  13  14
ATOM     14  C   UNL     1       6.403  -0.164  24.722  0.00  0.00    +0.214 A 
ATOM     15  C   UNL     1       6.731   1.207  25.220  0.00  0.00    +0.238 A 
ATOM     16  O   UNL     1       6.161   1.695  26.185  0.00  0.00    -0.283 OA
ATOM     17  C   UNL     1       7.822   1.920  24.560  0.00  0.00    +0.109 A 
ATOM     18  C   UNL     1       8.710   1.169  23.800  0.00  0.00    +0.147 A 
ATOM     19  C   UNL     1       9.857   1.776  23.280  0.00  0.00    +0.092 A 
ATOM     20  C   UNL     1      10.077   3.134  23.514  0.00  0.00    +0.124 A 
ATOM     21  C   UNL     1       9.164   3.903  24.226  0.00  0.00    +0.091 A 
ATOM     22  O   UNL     1       8.522  -0.168  23.547  0.00  0.00    -0.451 OA
ATOM     23  C   UNL     1       8.029   3.294  24.743  0.00  0.00    +0.135 A 
ATOM     24  C   UNL     1       7.333  -0.787  23.957  0.00  0.00    +0.181 A 
BRANCH  24  25
ATOM     25  C   UNL     1       7.239  -2.212  23.489  0.00  0.00    +0.025 A 
ATOM     26  C   UNL     1       6.386  -2.554  22.415  0.00  0.00    +0.015 A 
ATOM     27  C   UNL     1       6.352  -3.852  21.881  0.00  0.00    +0.050 A 
ATOM     28  C   UNL     1       7.165  -4.831  22.423  0.00  0.00    +0.158 A 
ATOM     29  C   UNL     1       7.992  -4.537  23.498  0.00  0.00    +0.159 A 
ATOM     30  C   UNL     1       8.041  -3.242  24.022  0.00  0.00    +0.060 A 
BRANCH  29  31
ATOM     31  O   UNL     1       8.756  -5.551  24.005  0.00  0.00    -0.503 OA
ATOM     32  H   UNL     1       9.077  -6.094  23.265  0.00  0.00    +0.292 HD
ENDBRANCH  29  31
BRANCH  28  33
ATOM     33  O   UNL     1       7.164  -6.084  21.882  0.00  0.00    -0.503 OA
ATOM     34  H   UNL     1       7.878  -6.066  21.214  0.00  0.00    +0.292 HD
ENDBRANCH  28  33
ENDBRANCH  24  25
BRANCH  23  35
ATOM     35  O   UNL     1       7.105   4.056  25.397  0.00  0.00    -0.506 OA
ATOM     36  H   UNL     1       7.438   4.325  26.268  0.00  0.00    +0.292 HD
ENDBRANCH  23  35
BRANCH  20  37
ATOM     37  O   UNL     1      11.185   3.775  23.047  0.00  0.00    -0.507 OA
ATOM     38  H   UNL     1      11.978   3.389  23.465  0.00  0.00    +0.292 HD
ENDBRANCH  20  37
ENDBRANCH  13  14
ENDBRANCH   3  13
BRANCH   1  39
ATOM     39  C   UNL     1       5.422  -5.294  26.721  0.00  0.00    +0.266 C 
BRANCH  39  40
ATOM     40  O   UNL     1       5.287  -5.433  25.296  0.00  0.00    -0.462 OA
BRANCH  40  41
ATOM     41  C   UNL     1       4.811  -6.620  24.843  0.00  0.00    +0.310 C 
ATOM     42  O   UNL     1       5.234  -7.230  23.869  0.00  0.00    -0.251 OA
BRANCH  41  43
ATOM     43  C   UNL     1       3.720  -7.143  25.744  0.00  0.00    +0.155 C 
BRANCH  43  45
ATOM     44  C   UNL     1       1.424  -8.188  25.908  0.00  0.00    +0.042 C 
ATOM     45  C   UNL     1       2.388  -7.394  25.017  0.00  0.00    +0.083 C 
BRANCH  45  46
ATOM     46  O   UNL     1       2.667  -8.135  23.829  0.00  0.00    -0.388 OA
ATOM     47  H   UNL     1       2.069  -8.912  23.812  0.00  0.00    +0.210 HD
ENDBRANCH  45  46
BRANCH  45  48
ATOM     48  C   UNL     1       1.811  -6.018  24.609  0.00  0.00    +0.155 C 
BRANCH  48  49
ATOM     49  C   UNL     1       1.961  -5.696  23.139  0.00  0.00    +0.307 C 
ATOM     50  O   UNL     1       1.125  -5.928  22.279  0.00  0.00    -0.251 OA
BRANCH  49  51
ATOM     51  O   UNL     1       3.153  -5.128  22.848  0.00  0.00    -0.481 OA
ATOM     52  H   UNL     1       3.831  -5.753  22.525  0.00  0.00    +0.295 HD
ENDBRANCH  49  51
ENDBRANCH  48  49
ENDBRANCH  45  48
ENDBRANCH  43  45
ENDBRANCH  41  43
ENDBRANCH  40  41
ENDBRANCH  39  40
ENDBRANCH   1  39
TORSDOF 19
ENDMDL
