MODEL 1
REMARK VINA RESULT:      -6.1      0.000      0.000
REMARK  Name = 
REMARK  24 active torsions:
REMARK  status: ('A' for Active; 'I' for Inactive)
REMARK    1  A    between atoms: C_3  and  O_55
REMARK    2  A    between atoms: C_4  and  O_54
REMARK    3  A    between atoms: C_6  and  C_7
REMARK    4  A    between atoms: C_8  and  O_31
REMARK    5  A    between atoms: C_12  and  O_30
REMARK    6  A    between atoms: C_14  and  O_18
REMARK    7  A    between atoms: O_18  and  C_19
REMARK    8  A    between atoms: C_20  and  O_29
REMARK    9  A    between atoms: C_21  and  O_28
REMARK   10  A    between atoms: C_22  and  O_27
REMARK   11  A    between atoms: C_23  and  C_25
REMARK   12  A    between atoms: C_25  and  O_26
REMARK   13  A    between atoms: O_31  and  C_32
REMARK   14  A    between atoms: C_33  and  O_42
REMARK   15  A    between atoms: C_34  and  O_41
REMARK   16  A    between atoms: C_35  and  O_40
REMARK   17  A    between atoms: C_36  and  C_38
REMARK   18  A    between atoms: C_38  and  O_39
REMARK   19  A    between atoms: O_42  and  C_43
REMARK   20  A    between atoms: C_44  and  O_53
REMARK   21  A    between atoms: C_45  and  O_52
REMARK   22  A    between atoms: C_46  and  O_51
REMARK   23  A    between atoms: C_47  and  C_49
REMARK   24  A    between atoms: C_49  and  O_50
REMARK                            x       y       z     vdW  Elec       q    Type
REMARK                         _______ _______ _______ _____ _____    ______ ____
ROOT
ATOM      1  C   UNL     1       4.738   2.263  25.526  0.00  0.00    +0.181 A 
ATOM      2  O   UNL     1       4.363   0.908  25.684  0.00  0.00    -0.451 OA
ATOM      3  C   UNL     1       4.421   0.291  26.899  0.00  0.00    +0.147 A 
ATOM      4  C   UNL     1       5.083   0.898  27.948  0.00  0.00    +0.109 A 
ATOM      5  C   UNL     1       5.046   0.289  29.203  0.00  0.00    +0.135 A 
ATOM      6  C   UNL     1       4.396  -0.928  29.376  0.00  0.00    +0.092 A 
ATOM      7  C   UNL     1       3.837  -1.619  28.290  0.00  0.00    +0.131 A 
ATOM      8  C   UNL     1       5.854   2.119  27.670  0.00  0.00    +0.238 A 
ATOM      9  O   UNL     1       6.682   2.459  28.510  0.00  0.00    -0.283 OA
ATOM     10  C   UNL     1       3.814  -0.976  27.048  0.00  0.00    +0.093 A 
ATOM     11  C   UNL     1       5.575   2.886  26.398  0.00  0.00    +0.214 A 
ENDROOT
BRANCH   1  13
ATOM     12  C   UNL     1       4.891   2.952  23.158  0.00  0.00    +0.015 A 
ATOM     13  C   UNL     1       4.051   2.788  24.299  0.00  0.00    +0.025 A 
ATOM     14  C   UNL     1       2.700   3.112  24.135  0.00  0.00    +0.060 A 
ATOM     15  C   UNL     1       2.245   3.559  22.882  0.00  0.00    +0.159 A 
ATOM     16  C   UNL     1       3.107   3.735  21.797  0.00  0.00    +0.158 A 
ATOM     17  C   UNL     1       4.445   3.444  21.933  0.00  0.00    +0.050 A 
BRANCH  16  18
ATOM     18  O   UNL     1       2.592   4.182  20.613  0.00  0.00    -0.503 OA
ATOM     19  H   UNL     1       2.329   3.406  20.082  0.00  0.00    +0.292 HD
ENDBRANCH  16  18
BRANCH  15  20
ATOM     20  O   UNL     1       0.913   3.817  22.697  0.00  0.00    -0.503 OA
ATOM     21  H   UNL     1       0.544   3.853  23.604  0.00  0.00    +0.292 HD
ENDBRANCH  15  20
ENDBRANCH   1  13
BRANCH   5  22
ATOM     22  O   UNL     1       5.645   0.801  30.321  0.00  0.00    -0.506 OA
ATOM     23  H   UNL     1       5.707   0.073  30.976  0.00  0.00    +0.292 HD
ENDBRANCH   5  22
BRANCH  11  24
ATOM     24  O   UNL     1       6.354   4.027  26.110  0.00  0.00    -0.453 OA
BRANCH  24  25
ATOM     25  C   UNL     1       7.798   3.976  26.198  0.00  0.00    +0.340 C 
ATOM     26  O   UNL     1       8.399   5.307  26.243  0.00  0.00    -0.331 OA
ATOM     27  C   UNL     1       8.476   6.107  25.039  0.00  0.00    +0.179 C 
ATOM     28  C   UNL     1       8.618   5.350  23.696  0.00  0.00    +0.177 C 
ATOM     29  C   UNL     1       8.181   3.890  23.754  0.00  0.00    +0.180 C 
ATOM     30  C   UNL     1       8.531   3.208  25.090  0.00  0.00    +0.221 C 
BRANCH  29  31
ATOM     31  O   UNL     1       8.780   3.163  22.664  0.00  0.00    -0.386 OA
ATOM     32  H   UNL     1       8.193   3.290  21.895  0.00  0.00    +0.210 HD
ENDBRANCH  29  31
BRANCH  28  33
ATOM     33  O   UNL     1       9.935   5.431  23.119  0.00  0.00    -0.386 OA
ATOM     34  H   UNL     1      10.562   4.967  23.701  0.00  0.00    +0.210 HD
ENDBRANCH  28  33
BRANCH  27  35
ATOM     35  C   UNL     1       9.666   7.108  25.171  0.00  0.00    +0.190 C 
BRANCH  35  36
ATOM     36  O   UNL     1      10.479   6.920  26.318  0.00  0.00    -0.392 OA
ATOM     37  H   UNL     1      10.334   6.004  26.636  0.00  0.00    +0.210 HD
ENDBRANCH  35  36
ENDBRANCH  27  35
BRANCH  30  38
ATOM     38  O   UNL     1       8.173   1.841  24.995  0.00  0.00    -0.337 OA
BRANCH  38  39
ATOM     39  C   UNL     1       9.086   0.748  24.914  0.00  0.00    +0.282 C 
ATOM     40  O   UNL     1       9.355   0.121  23.668  0.00  0.00    -0.341 OA
ATOM     41  C   UNL     1       8.358  -0.767  23.154  0.00  0.00    +0.178 C 
ATOM     42  C   UNL     1       7.773  -1.767  24.168  0.00  0.00    +0.177 C 
ATOM     43  C   UNL     1       7.510  -1.125  25.536  0.00  0.00    +0.179 C 
ATOM     44  C   UNL     1       8.692  -0.270  26.005  0.00  0.00    +0.201 C 
BRANCH  44  45
ATOM     45  O   UNL     1       8.372   0.400  27.235  0.00  0.00    -0.384 OA
ATOM     46  H   UNL     1       8.700  -0.170  27.956  0.00  0.00    +0.210 HD
ENDBRANCH  44  45
BRANCH  43  47
ATOM     47  O   UNL     1       7.246  -2.136  26.520  0.00  0.00    -0.386 OA
ATOM     48  H   UNL     1       7.186  -1.707  27.391  0.00  0.00    +0.210 HD
ENDBRANCH  43  47
BRANCH  42  49
ATOM     49  O   UNL     1       8.574  -2.949  24.298  0.00  0.00    -0.386 OA
ATOM     50  H   UNL     1       7.995  -3.732  24.286  0.00  0.00    +0.210 HD
ENDBRANCH  42  49
BRANCH  41  51
ATOM     51  C   UNL     1       8.913  -1.457  21.893  0.00  0.00    +0.190 C 
BRANCH  51  52
ATOM     52  O   UNL     1       9.469  -0.483  21.010  0.00  0.00    -0.392 OA
ATOM     53  H   UNL     1      10.414  -0.689  20.909  0.00  0.00    +0.210 HD
ENDBRANCH  51  52
ENDBRANCH  41  51
ENDBRANCH  38  39
ENDBRANCH  30  38
ENDBRANCH  24  25
ENDBRANCH  11  24
BRANCH   7  54
ATOM     54  O   UNL     1       3.340  -2.924  28.389  0.00  0.00    -0.461 OA
BRANCH  54  55
ATOM     55  C   UNL     1       4.358  -3.884  28.772  0.00  0.00    +0.339 C 
ATOM     56  O   UNL     1       5.240  -4.135  27.665  0.00  0.00    -0.331 OA
ATOM     57  C   UNL     1       4.600  -4.921  26.640  0.00  0.00    +0.179 C 
ATOM     58  C   UNL     1       4.561  -6.332  27.208  0.00  0.00    +0.177 C 
ATOM     59  C   UNL     1       3.586  -6.345  28.393  0.00  0.00    +0.180 C 
ATOM     60  C   UNL     1       3.905  -5.232  29.410  0.00  0.00    +0.214 C 
BRANCH  60  61
ATOM     61  O   UNL     1       2.886  -5.056  30.398  0.00  0.00    -0.383 OA
ATOM     62  H   UNL     1       2.020  -5.211  29.984  0.00  0.00    +0.210 HD
ENDBRANCH  60  61
BRANCH  59  63
ATOM     63  O   UNL     1       3.662  -7.626  29.048  0.00  0.00    -0.386 OA
ATOM     64  H   UNL     1       2.734  -7.912  29.186  0.00  0.00    +0.210 HD
ENDBRANCH  59  63
BRANCH  58  65
ATOM     65  O   UNL     1       5.872  -6.693  27.694  0.00  0.00    -0.386 OA
ATOM     66  H   UNL     1       6.168  -5.968  28.302  0.00  0.00    +0.210 HD
ENDBRANCH  58  65
BRANCH  57  67
ATOM     67  C   UNL     1       5.411  -4.827  25.346  0.00  0.00    +0.190 C 
BRANCH  67  68
ATOM     68  O   UNL     1       6.812  -4.912  25.615  0.00  0.00    -0.392 OA
ATOM     69  H   UNL     1       7.055  -5.848  25.708  0.00  0.00    +0.210 HD
ENDBRANCH  67  68
ENDBRANCH  57  67
ENDBRANCH  54  55
ENDBRANCH   7  54
TORSDOF 24
ENDMDL
MODEL 2
REMARK VINA RESULT:      -5.4      1.227      2.294
REMARK  Name = 
REMARK  24 active torsions:
REMARK  status: ('A' for Active; 'I' for Inactive)
REMARK    1  A    between atoms: C_3  and  O_55
REMARK    2  A    between atoms: C_4  and  O_54
REMARK    3  A    between atoms: C_6  and  C_7
REMARK    4  A    between atoms: C_8  and  O_31
REMARK    5  A    between atoms: C_12  and  O_30
REMARK    6  A    between atoms: C_14  and  O_18
REMARK    7  A    between atoms: O_18  and  C_19
REMARK    8  A    between atoms: C_20  and  O_29
REMARK    9  A    between atoms: C_21  and  O_28
REMARK   10  A    between atoms: C_22  and  O_27
REMARK   11  A    between atoms: C_23  and  C_25
REMARK   12  A    between atoms: C_25  and  O_26
REMARK   13  A    between atoms: O_31  and  C_32
REMARK   14  A    between atoms: C_33  and  O_42
REMARK   15  A    between atoms: C_34  and  O_41
REMARK   16  A    between atoms: C_35  and  O_40
REMARK   17  A    between atoms: C_36  and  C_38
REMARK   18  A    between atoms: C_38  and  O_39
REMARK   19  A    between atoms: O_42  and  C_43
REMARK   20  A    between atoms: C_44  and  O_53
REMARK   21  A    between atoms: C_45  and  O_52
REMARK   22  A    between atoms: C_46  and  O_51
REMARK   23  A    between atoms: C_47  and  C_49
REMARK   24  A    between atoms: C_49  and  O_50
REMARK                            x       y       z     vdW  Elec       q    Type
REMARK                         _______ _______ _______ _____ _____    ______ ____
ROOT
ATOM      1  C   UNL     1       4.315   2.374  25.522  0.00  0.00    +0.181 A 
ATOM      2  O   UNL     1       3.937   1.028  25.740  0.00  0.00    -0.451 OA
ATOM      3  C   UNL     1       4.189   0.402  26.925  0.00  0.00    +0.147 A 
ATOM      4  C   UNL     1       5.037   0.985  27.845  0.00  0.00    +0.109 A 
ATOM      5  C   UNL     1       5.202   0.368  29.086  0.00  0.00    +0.135 A 
ATOM      6  C   UNL     1       4.560  -0.833  29.366  0.00  0.00    +0.092 A 
ATOM      7  C   UNL     1       3.804  -1.501  28.393  0.00  0.00    +0.131 A 
ATOM      8  C   UNL     1       5.781   2.187  27.440  0.00  0.00    +0.238 A 
ATOM      9  O   UNL     1       6.750   2.501  28.125  0.00  0.00    -0.283 OA
ATOM     10  C   UNL     1       3.583  -0.850  27.175  0.00  0.00    +0.093 A 
ATOM     11  C   UNL     1       5.306   2.970  26.237  0.00  0.00    +0.214 A 
ENDROOT
BRANCH   1  13
ATOM     12  C   UNL     1       2.102   3.225  24.829  0.00  0.00    +0.015 A 
ATOM     13  C   UNL     1       3.440   2.925  24.434  0.00  0.00    +0.025 A 
ATOM     14  C   UNL     1       3.777   3.197  23.104  0.00  0.00    +0.060 A 
ATOM     15  C   UNL     1       2.811   3.750  22.246  0.00  0.00    +0.159 A 
ATOM     16  C   UNL     1       1.502   4.001  22.664  0.00  0.00    +0.158 A 
ATOM     17  C   UNL     1       1.133   3.726  23.961  0.00  0.00    +0.050 A 
BRANCH  16  18
ATOM     18  O   UNL     1       0.616   4.532  21.769  0.00  0.00    -0.503 OA
ATOM     19  H   UNL     1       0.235   5.342  22.159  0.00  0.00    +0.292 HD
ENDBRANCH  16  18
BRANCH  15  20
ATOM     20  O   UNL     1       3.152   4.078  20.962  0.00  0.00    -0.503 OA
ATOM     21  H   UNL     1       4.108   4.295  21.012  0.00  0.00    +0.292 HD
ENDBRANCH  15  20
ENDBRANCH   1  13
BRANCH   5  22
ATOM     22  O   UNL     1       5.999   0.857  30.084  0.00  0.00    -0.506 OA
ATOM     23  H   UNL     1       6.638   1.475  29.670  0.00  0.00    +0.292 HD
ENDBRANCH   5  22
BRANCH  11  24
ATOM     24  O   UNL     1       6.054   4.093  25.822  0.00  0.00    -0.453 OA
BRANCH  24  25
ATOM     25  C   UNL     1       7.421   3.943  25.370  0.00  0.00    +0.340 C 
ATOM     26  O   UNL     1       8.261   5.073  25.759  0.00  0.00    -0.331 OA
ATOM     27  C   UNL     1       8.143   6.336  25.060  0.00  0.00    +0.179 C 
ATOM     28  C   UNL     1       7.736   6.282  23.568  0.00  0.00    +0.177 C 
ATOM     29  C   UNL     1       7.054   4.982  23.154  0.00  0.00    +0.180 C 
ATOM     30  C   UNL     1       7.634   3.744  23.863  0.00  0.00    +0.221 C 
BRANCH  29  31
ATOM     31  O   UNL     1       7.154   4.817  21.726  0.00  0.00    -0.386 OA
ATOM     32  H   UNL     1       6.503   4.132  21.483  0.00  0.00    +0.210 HD
ENDBRANCH  29  31
BRANCH  28  33
ATOM     33  O   UNL     1       8.818   6.563  22.660  0.00  0.00    -0.386 OA
ATOM     34  H   UNL     1       9.256   7.386  22.937  0.00  0.00    +0.210 HD
ENDBRANCH  28  33
BRANCH  27  35
ATOM     35  C   UNL     1       9.494   7.108  25.177  0.00  0.00    +0.190 C 
BRANCH  35  36
ATOM     36  O   UNL     1      10.643   6.360  24.810  0.00  0.00    -0.392 OA
ATOM     37  H   UNL     1      10.520   5.447  25.147  0.00  0.00    +0.210 HD
ENDBRANCH  35  36
ENDBRANCH  27  35
BRANCH  30  38
ATOM     38  O   UNL     1       6.999   2.594  23.333  0.00  0.00    -0.337 OA
BRANCH  38  39
ATOM     39  C   UNL     1       7.584   1.298  23.230  0.00  0.00    +0.282 C 
ATOM     40  O   UNL     1       7.504   0.379  24.312  0.00  0.00    -0.341 OA
ATOM     41  C   UNL     1       8.372   0.604  25.426  0.00  0.00    +0.178 C 
ATOM     42  C   UNL     1       9.836   0.925  25.074  0.00  0.00    +0.177 C 
ATOM     43  C   UNL     1       9.953   1.885  23.883  0.00  0.00    +0.179 C 
ATOM     44  C   UNL     1       9.032   1.478  22.727  0.00  0.00    +0.201 C 
BRANCH  44  45
ATOM     45  O   UNL     1       9.086   2.453  21.673  0.00  0.00    -0.384 OA
ATOM     46  H   UNL     1       9.195   1.956  20.840  0.00  0.00    +0.210 HD
ENDBRANCH  44  45
BRANCH  43  47
ATOM     47  O   UNL     1      11.306   1.928  23.408  0.00  0.00    -0.386 OA
ATOM     48  H   UNL     1      11.422   1.219  22.751  0.00  0.00    +0.210 HD
ENDBRANCH  43  47
BRANCH  42  49
ATOM     49  O   UNL     1      10.622  -0.255  24.865  0.00  0.00    -0.386 OA
ATOM     50  H   UNL     1      11.019  -0.223  23.976  0.00  0.00    +0.210 HD
ENDBRANCH  42  49
BRANCH  41  51
ATOM     51  C   UNL     1       8.243  -0.583  26.400  0.00  0.00    +0.190 C 
BRANCH  51  52
ATOM     52  O   UNL     1       9.094  -0.381  27.528  0.00  0.00    -0.392 OA
ATOM     53  H   UNL     1       9.816  -1.031  27.467  0.00  0.00    +0.210 HD
ENDBRANCH  51  52
ENDBRANCH  41  51
ENDBRANCH  38  39
ENDBRANCH  30  38
ENDBRANCH  24  25
ENDBRANCH  11  24
BRANCH   7  54
ATOM     54  O   UNL     1       3.297  -2.794  28.573  0.00  0.00    -0.461 OA
BRANCH  54  55
ATOM     55  C   UNL     1       4.318  -3.747  28.962  0.00  0.00    +0.339 C 
ATOM     56  O   UNL     1       5.252  -3.935  27.885  0.00  0.00    -0.331 OA
ATOM     57  C   UNL     1       4.674  -4.692  26.803  0.00  0.00    +0.179 C 
ATOM     58  C   UNL     1       4.643  -6.125  27.312  0.00  0.00    +0.177 C 
ATOM     59  C   UNL     1       3.619  -6.206  28.452  0.00  0.00    +0.180 C 
ATOM     60  C   UNL     1       3.869  -5.129  29.526  0.00  0.00    +0.214 C 
BRANCH  60  61
ATOM     61  O   UNL     1       2.805  -5.015  30.474  0.00  0.00    -0.383 OA
ATOM     62  H   UNL     1       1.980  -5.313  30.055  0.00  0.00    +0.210 HD
ENDBRANCH  60  61
BRANCH  59  63
ATOM     63  O   UNL     1       3.696  -7.511  29.058  0.00  0.00    -0.386 OA
ATOM     64  H   UNL     1       3.728  -7.356  30.027  0.00  0.00    +0.210 HD
ENDBRANCH  59  63
BRANCH  58  65
ATOM     65  O   UNL     1       5.939  -6.478  27.841  0.00  0.00    -0.386 OA
ATOM     66  H   UNL     1       6.165  -5.807  28.534  0.00  0.00    +0.210 HD
ENDBRANCH  58  65
BRANCH  57  67
ATOM     67  C   UNL     1       5.538  -4.528  25.551  0.00  0.00    +0.190 C 
BRANCH  67  68
ATOM     68  O   UNL     1       5.877  -5.800  24.995  0.00  0.00    -0.392 OA
ATOM     69  H   UNL     1       6.817  -5.975  25.169  0.00  0.00    +0.210 HD
ENDBRANCH  67  68
ENDBRANCH  57  67
ENDBRANCH  54  55
ENDBRANCH   7  54
TORSDOF 24
ENDMDL
MODEL 3
REMARK VINA RESULT:      -5.3      2.570      9.091
REMARK  Name = 
REMARK  24 active torsions:
REMARK  status: ('A' for Active; 'I' for Inactive)
REMARK    1  A    between atoms: C_3  and  O_55
REMARK    2  A    between atoms: C_4  and  O_54
REMARK    3  A    between atoms: C_6  and  C_7
REMARK    4  A    between atoms: C_8  and  O_31
REMARK    5  A    between atoms: C_12  and  O_30
REMARK    6  A    between atoms: C_14  and  O_18
REMARK    7  A    between atoms: O_18  and  C_19
REMARK    8  A    between atoms: C_20  and  O_29
REMARK    9  A    between atoms: C_21  and  O_28
REMARK   10  A    between atoms: C_22  and  O_27
REMARK   11  A    between atoms: C_23  and  C_25
REMARK   12  A    between atoms: C_25  and  O_26
REMARK   13  A    between atoms: O_31  and  C_32
REMARK   14  A    between atoms: C_33  and  O_42
REMARK   15  A    between atoms: C_34  and  O_41
REMARK   16  A    between atoms: C_35  and  O_40
REMARK   17  A    between atoms: C_36  and  C_38
REMARK   18  A    between atoms: C_38  and  O_39
REMARK   19  A    between atoms: O_42  and  C_43
REMARK   20  A    between atoms: C_44  and  O_53
REMARK   21  A    between atoms: C_45  and  O_52
REMARK   22  A    between atoms: C_46  and  O_51
REMARK   23  A    between atoms: C_47  and  C_49
REMARK   24  A    between atoms: C_49  and  O_50
REMARK                            x       y       z     vdW  Elec       q    Type
REMARK                         _______ _______ _______ _____ _____    ______ ____
ROOT
ATOM      1  C   UNL     1       6.291  -1.443  27.030  0.00  0.00    +0.181 A 
ATOM      2  O   UNL     1       7.194  -0.473  26.532  0.00  0.00    -0.451 OA
ATOM      3  C   UNL     1       8.195  -0.810  25.669  0.00  0.00    +0.147 A 
ATOM      4  C   UNL     1       8.504  -2.140  25.459  0.00  0.00    +0.109 A 
ATOM      5  C   UNL     1       9.468  -2.458  24.502  0.00  0.00    +0.135 A 
ATOM      6  C   UNL     1      10.133  -1.451  23.811  0.00  0.00    +0.092 A 
ATOM      7  C   UNL     1       9.925  -0.098  24.112  0.00  0.00    +0.131 A 
ATOM      8  C   UNL     1       7.853  -3.148  26.310  0.00  0.00    +0.238 A 
ATOM      9  O   UNL     1       8.360  -4.264  26.340  0.00  0.00    -0.283 OA
ATOM     10  C   UNL     1       8.911   0.221  25.022  0.00  0.00    +0.093 A 
ATOM     11  C   UNL     1       6.603  -2.765  27.069  0.00  0.00    +0.214 A 
ENDROOT
BRANCH   1  13
ATOM     12  C   UNL     1       5.192   0.180  28.535  0.00  0.00    +0.015 A 
ATOM     13  C   UNL     1       5.037  -0.729  27.446  0.00  0.00    +0.025 A 
ATOM     14  C   UNL     1       3.758  -0.830  26.890  0.00  0.00    +0.060 A 
ATOM     15  C   UNL     1       2.716  -0.042  27.409  0.00  0.00    +0.159 A 
ATOM     16  C   UNL     1       2.902   0.814  28.497  0.00  0.00    +0.158 A 
ATOM     17  C   UNL     1       4.145   0.921  29.078  0.00  0.00    +0.050 A 
BRANCH  16  18
ATOM     18  O   UNL     1       1.838   1.543  28.950  0.00  0.00    -0.503 OA
ATOM     19  H   UNL     1       2.172   2.217  29.571  0.00  0.00    +0.292 HD
ENDBRANCH  16  18
BRANCH  15  20
ATOM     20  O   UNL     1       1.477  -0.088  26.828  0.00  0.00    -0.503 OA
ATOM     21  H   UNL     1       0.978   0.638  27.260  0.00  0.00    +0.292 HD
ENDBRANCH  15  20
ENDBRANCH   1  13
BRANCH   5  22
ATOM     22  O   UNL     1       9.846  -3.735  24.191  0.00  0.00    -0.506 OA
ATOM     23  H   UNL     1       9.680  -3.862  23.232  0.00  0.00    +0.292 HD
ENDBRANCH   5  22
BRANCH  11  24
ATOM     24  O   UNL     1       6.011  -3.720  27.925  0.00  0.00    -0.453 OA
BRANCH  24  25
ATOM     25  C   UNL     1       4.806  -4.418  27.530  0.00  0.00    +0.340 C 
ATOM     26  O   UNL     1       3.714  -4.218  28.479  0.00  0.00    -0.331 OA
ATOM     27  C   UNL     1       3.726  -4.909  29.752  0.00  0.00    +0.179 C 
ATOM     28  C   UNL     1       4.410  -6.296  29.796  0.00  0.00    +0.177 C 
ATOM     29  C   UNL     1       5.386  -6.547  28.651  0.00  0.00    +0.180 C 
ATOM     30  C   UNL     1       4.922  -5.933  27.316  0.00  0.00    +0.221 C 
BRANCH  29  31
ATOM     31  O   UNL     1       5.590  -7.964  28.490  0.00  0.00    -0.386 OA
ATOM     32  H   UNL     1       5.628  -8.339  29.391  0.00  0.00    +0.210 HD
ENDBRANCH  29  31
BRANCH  28  33
ATOM     33  O   UNL     1       3.487  -7.398  29.884  0.00  0.00    -0.386 OA
ATOM     34  H   UNL     1       3.992  -8.227  29.945  0.00  0.00    +0.210 HD
ENDBRANCH  28  33
BRANCH  27  35
ATOM     35  C   UNL     1       2.258  -5.065  30.258  0.00  0.00    +0.190 C 
BRANCH  35  36
ATOM     36  O   UNL     1       1.333  -5.512  29.279  0.00  0.00    -0.392 OA
ATOM     37  H   UNL     1       0.433  -5.402  29.652  0.00  0.00    +0.210 HD
ENDBRANCH  35  36
ENDBRANCH  27  35
BRANCH  30  38
ATOM     38  O   UNL     1       5.847  -6.309  26.312  0.00  0.00    -0.337 OA
BRANCH  38  39
ATOM     39  C   UNL     1       5.549  -6.459  24.925  0.00  0.00    +0.282 C 
ATOM     40  O   UNL     1       5.777  -5.391  24.016  0.00  0.00    -0.341 OA
ATOM     41  C   UNL     1       4.839  -4.311  24.027  0.00  0.00    +0.178 C 
ATOM     42  C   UNL     1       3.355  -4.720  24.047  0.00  0.00    +0.177 C 
ATOM     43  C   UNL     1       3.087  -5.899  24.991  0.00  0.00    +0.179 C 
ATOM     44  C   UNL     1       4.115  -7.021  24.815  0.00  0.00    +0.201 C 
BRANCH  44  45
ATOM     45  O   UNL     1       3.900  -8.060  25.784  0.00  0.00    -0.384 OA
ATOM     46  H   UNL     1       4.078  -7.664  26.659  0.00  0.00    +0.210 HD
ENDBRANCH  44  45
BRANCH  43  47
ATOM     47  O   UNL     1       1.773  -6.431  24.765  0.00  0.00    -0.386 OA
ATOM     48  H   UNL     1       1.414  -6.730  25.619  0.00  0.00    +0.210 HD
ENDBRANCH  43  47
BRANCH  42  49
ATOM     49  O   UNL     1       2.841  -4.983  22.735  0.00  0.00    -0.386 OA
ATOM     50  H   UNL     1       3.582  -5.051  22.107  0.00  0.00    +0.210 HD
ENDBRANCH  42  49
BRANCH  41  51
ATOM     51  C   UNL     1       5.175  -3.353  22.868  0.00  0.00    +0.190 C 
BRANCH  51  52
ATOM     52  O   UNL     1       5.341  -4.092  21.659  0.00  0.00    -0.392 OA
ATOM     53  H   UNL     1       5.964  -4.816  21.845  0.00  0.00    +0.210 HD
ENDBRANCH  51  52
ENDBRANCH  41  51
ENDBRANCH  38  39
ENDBRANCH  30  38
ENDBRANCH  24  25
ENDBRANCH  11  24
BRANCH   7  54
ATOM     54  O   UNL     1      10.704   0.934  23.575  0.00  0.00    -0.461 OA
BRANCH  54  55
ATOM     55  C   UNL     1      10.042   1.627  22.486  0.00  0.00    +0.339 C 
ATOM     56  O   UNL     1      10.058   3.046  22.723  0.00  0.00    -0.331 OA
ATOM     57  C   UNL     1       9.152   3.421  23.779  0.00  0.00    +0.179 C 
ATOM     58  C   UNL     1       7.770   3.324  23.150  0.00  0.00    +0.177 C 
ATOM     59  C   UNL     1       7.473   1.845  22.871  0.00  0.00    +0.180 C 
ATOM     60  C   UNL     1       8.609   1.171  22.077  0.00  0.00    +0.214 C 
BRANCH  60  61
ATOM     61  O   UNL     1       8.486  -0.251  22.006  0.00  0.00    -0.383 OA
ATOM     62  H   UNL     1       9.298  -0.616  21.618  0.00  0.00    +0.210 HD
ENDBRANCH  60  61
BRANCH  59  63
ATOM     63  O   UNL     1       6.245   1.747  22.125  0.00  0.00    -0.386 OA
ATOM     64  H   UNL     1       5.812   2.623  22.205  0.00  0.00    +0.210 HD
ENDBRANCH  59  63
BRANCH  58  65
ATOM     65  O   UNL     1       7.761   4.034  21.893  0.00  0.00    -0.386 OA
ATOM     66  H   UNL     1       8.511   4.681  21.917  0.00  0.00    +0.210 HD
ENDBRANCH  58  65
BRANCH  57  67
ATOM     67  C   UNL     1       9.487   4.836  24.257  0.00  0.00    +0.190 C 
BRANCH  67  68
ATOM     68  O   UNL     1       9.819   5.681  23.155  0.00  0.00    -0.392 OA
ATOM     69  H   UNL     1       9.686   6.606  23.421  0.00  0.00    +0.210 HD
ENDBRANCH  67  68
ENDBRANCH  57  67
ENDBRANCH  54  55
ENDBRANCH   7  54
TORSDOF 24
ENDMDL
MODEL 4
REMARK VINA RESULT:      -5.1      2.706      5.208
REMARK  Name = 
REMARK  24 active torsions:
REMARK  status: ('A' for Active; 'I' for Inactive)
REMARK    1  A    between atoms: C_3  and  O_55
REMARK    2  A    between atoms: C_4  and  O_54
REMARK    3  A    between atoms: C_6  and  C_7
REMARK    4  A    between atoms: C_8  and  O_31
REMARK    5  A    between atoms: C_12  and  O_30
REMARK    6  A    between atoms: C_14  and  O_18
REMARK    7  A    between atoms: O_18  and  C_19
REMARK    8  A    between atoms: C_20  and  O_29
REMARK    9  A    between atoms: C_21  and  O_28
REMARK   10  A    between atoms: C_22  and  O_27
REMARK   11  A    between atoms: C_23  and  C_25
REMARK   12  A    between atoms: C_25  and  O_26
REMARK   13  A    between atoms: O_31  and  C_32
REMARK   14  A    between atoms: C_33  and  O_42
REMARK   15  A    between atoms: C_34  and  O_41
REMARK   16  A    between atoms: C_35  and  O_40
REMARK   17  A    between atoms: C_36  and  C_38
REMARK   18  A    between atoms: C_38  and  O_39
REMARK   19  A    between atoms: O_42  and  C_43
REMARK   20  A    between atoms: C_44  and  O_53
REMARK   21  A    between atoms: C_45  and  O_52
REMARK   22  A    between atoms: C_46  and  O_51
REMARK   23  A    between atoms: C_47  and  C_49
REMARK   24  A    between atoms: C_49  and  O_50
REMARK                            x       y       z     vdW  Elec       q    Type
REMARK                         _______ _______ _______ _____ _____    ______ ____
ROOT
ATOM      1  C   UNL     1       5.542  -0.716  25.364  0.00  0.00    +0.181 A 
ATOM      2  O   UNL     1       5.109  -2.026  25.676  0.00  0.00    -0.451 OA
ATOM      3  C   UNL     1       3.882  -2.258  26.225  0.00  0.00    +0.147 A 
ATOM      4  C   UNL     1       3.138  -1.205  26.718  0.00  0.00    +0.109 A 
ATOM      5  C   UNL     1       1.849  -1.459  27.187  0.00  0.00    +0.135 A 
ATOM      6  C   UNL     1       1.348  -2.756  27.200  0.00  0.00    +0.092 A 
ATOM      7  C   UNL     1       2.142  -3.850  26.827  0.00  0.00    +0.131 A 
ATOM      8  C   UNL     1       3.773   0.120  26.791  0.00  0.00    +0.238 A 
ATOM      9  O   UNL     1       3.238   0.957  27.512  0.00  0.00    -0.283 OA
ATOM     10  C   UNL     1       3.408  -3.587  26.293  0.00  0.00    +0.093 A 
ATOM     11  C   UNL     1       5.017   0.381  25.972  0.00  0.00    +0.214 A 
ENDROOT
BRANCH   1  13
ATOM     12  C   UNL     1       7.276  -2.078  24.250  0.00  0.00    +0.015 A 
ATOM     13  C   UNL     1       6.600  -0.823  24.305  0.00  0.00    +0.025 A 
ATOM     14  C   UNL     1       6.984   0.138  23.364  0.00  0.00    +0.060 A 
ATOM     15  C   UNL     1       7.982  -0.177  22.424  0.00  0.00    +0.159 A 
ATOM     16  C   UNL     1       8.642  -1.409  22.424  0.00  0.00    +0.158 A 
ATOM     17  C   UNL     1       8.300  -2.367  23.350  0.00  0.00    +0.050 A 
BRANCH  16  18
ATOM     18  O   UNL     1       9.607  -1.637  21.485  0.00  0.00    -0.503 OA
ATOM     19  H   UNL     1      10.471  -1.390  21.867  0.00  0.00    +0.292 HD
ENDBRANCH  16  18
BRANCH  15  20
ATOM     20  O   UNL     1       8.318   0.735  21.460  0.00  0.00    -0.503 OA
ATOM     21  H   UNL     1       7.591   0.674  20.804  0.00  0.00    +0.292 HD
ENDBRANCH  15  20
ENDBRANCH   1  13
BRANCH   5  22
ATOM     22  O   UNL     1       1.011  -0.498  27.682  0.00  0.00    -0.506 OA
ATOM     23  H   UNL     1       0.460  -0.922  28.374  0.00  0.00    +0.292 HD
ENDBRANCH   5  22
BRANCH  11  24
ATOM     24  O   UNL     1       5.651   1.637  26.086  0.00  0.00    -0.453 OA
BRANCH  24  25
ATOM     25  C   UNL     1       7.004   1.737  26.592  0.00  0.00    +0.340 C 
ATOM     26  O   UNL     1       7.168   1.051  27.871  0.00  0.00    -0.331 OA
ATOM     27  C   UNL     1       6.645   1.644  29.084  0.00  0.00    +0.179 C 
ATOM     28  C   UNL     1       6.599   3.190  29.150  0.00  0.00    +0.177 C 
ATOM     29  C   UNL     1       6.652   3.875  27.788  0.00  0.00    +0.180 C 
ATOM     30  C   UNL     1       7.568   3.151  26.784  0.00  0.00    +0.221 C 
BRANCH  29  31
ATOM     31  O   UNL     1       7.088   5.238  27.950  0.00  0.00    -0.386 OA
ATOM     32  H   UNL     1       7.750   5.399  27.251  0.00  0.00    +0.210 HD
ENDBRANCH  29  31
BRANCH  28  33
ATOM     33  O   UNL     1       7.600   3.765  30.011  0.00  0.00    -0.386 OA
ATOM     34  H   UNL     1       7.454   3.446  30.919  0.00  0.00    +0.210 HD
ENDBRANCH  28  33
BRANCH  27  35
ATOM     35  C   UNL     1       7.468   1.121  30.302  0.00  0.00    +0.190 C 
BRANCH  35  36
ATOM     36  O   UNL     1       8.874   1.108  30.110  0.00  0.00    -0.392 OA
ATOM     37  H   UNL     1       9.204   2.014  30.288  0.00  0.00    +0.210 HD
ENDBRANCH  35  36
ENDBRANCH  27  35
BRANCH  30  38
ATOM     38  O   UNL     1       7.619   3.922  25.597  0.00  0.00    -0.337 OA
BRANCH  38  39
ATOM     39  C   UNL     1       7.977   3.434  24.306  0.00  0.00    +0.282 C 
ATOM     40  O   UNL     1       8.811   2.291  24.170  0.00  0.00    -0.341 OA
ATOM     41  C   UNL     1      10.209   2.468  24.412  0.00  0.00    +0.178 C 
ATOM     42  C   UNL     1      10.846   3.706  23.752  0.00  0.00    +0.177 C 
ATOM     43  C   UNL     1       9.949   4.946  23.850  0.00  0.00    +0.179 C 
ATOM     44  C   UNL     1       8.494   4.632  23.482  0.00  0.00    +0.201 C 
BRANCH  44  45
ATOM     45  O   UNL     1       7.662   5.786  23.685  0.00  0.00    -0.384 OA
ATOM     46  H   UNL     1       8.184   6.414  24.222  0.00  0.00    +0.210 HD
ENDBRANCH  44  45
BRANCH  43  47
ATOM     47  O   UNL     1      10.435   5.983  22.985  0.00  0.00    -0.386 OA
ATOM     48  H   UNL     1      11.046   6.544  23.494  0.00  0.00    +0.210 HD
ENDBRANCH  43  47
BRANCH  42  49
ATOM     49  O   UNL     1      11.243   3.461  22.397  0.00  0.00    -0.386 OA
ATOM     50  H   UNL     1      11.178   4.290  21.889  0.00  0.00    +0.210 HD
ENDBRANCH  42  49
BRANCH  41  51
ATOM     51  C   UNL     1      10.943   1.162  24.054  0.00  0.00    +0.190 C 
BRANCH  51  52
ATOM     52  O   UNL     1      10.532   0.116  24.934  0.00  0.00    -0.392 OA
ATOM     53  H   UNL     1      11.083   0.178  25.735  0.00  0.00    +0.210 HD
ENDBRANCH  51  52
ENDBRANCH  41  51
ENDBRANCH  38  39
ENDBRANCH  30  38
ENDBRANCH  24  25
ENDBRANCH  11  24
BRANCH   7  54
ATOM     54  O   UNL     1       1.741  -5.180  27.000  0.00  0.00    -0.461 OA
BRANCH  54  55
ATOM     55  C   UNL     1       2.618  -6.121  26.330  0.00  0.00    +0.339 C 
ATOM     56  O   UNL     1       2.573  -5.911  24.908  0.00  0.00    -0.331 OA
ATOM     57  C   UNL     1       1.326  -6.361  24.342  0.00  0.00    +0.179 C 
ATOM     58  C   UNL     1       1.436  -7.878  24.331  0.00  0.00    +0.177 C 
ATOM     59  C   UNL     1       1.419  -8.371  25.784  0.00  0.00    +0.180 C 
ATOM     60  C   UNL     1       2.462  -7.639  26.650  0.00  0.00    +0.214 C 
BRANCH  60  61
ATOM     61  O   UNL     1       2.316  -7.892  28.050  0.00  0.00    -0.383 OA
ATOM     62  H   UNL     1       2.330  -7.044  28.524  0.00  0.00    +0.210 HD
ENDBRANCH  60  61
BRANCH  59  63
ATOM     63  O   UNL     1       1.691  -9.786  25.802  0.00  0.00    -0.386 OA
ATOM     64  H   UNL     1       2.646  -9.878  25.595  0.00  0.00    +0.210 HD
ENDBRANCH  59  63
BRANCH  58  65
ATOM     65  O   UNL     1       2.693  -8.267  23.735  0.00  0.00    -0.386 OA
ATOM     66  H   UNL     1       2.921  -7.580  23.059  0.00  0.00    +0.210 HD
ENDBRANCH  58  65
BRANCH  57  67
ATOM     67  C   UNL     1       1.163  -5.770  22.939  0.00  0.00    +0.190 C 
BRANCH  67  68
ATOM     68  O   UNL     1       0.813  -6.784  21.996  0.00  0.00    -0.392 OA
ATOM     69  H   UNL     1       0.275  -7.456  22.447  0.00  0.00    +0.210 HD
ENDBRANCH  67  68
ENDBRANCH  57  67
ENDBRANCH  54  55
ENDBRANCH   7  54
TORSDOF 24
ENDMDL
MODEL 5
REMARK VINA RESULT:      -5.0      2.344      8.811
REMARK  Name = 
REMARK  24 active torsions:
REMARK  status: ('A' for Active; 'I' for Inactive)
REMARK    1  A    between atoms: C_3  and  O_55
REMARK    2  A    between atoms: C_4  and  O_54
REMARK    3  A    between atoms: C_6  and  C_7
REMARK    4  A    between atoms: C_8  and  O_31
REMARK    5  A    between atoms: C_12  and  O_30
REMARK    6  A    between atoms: C_14  and  O_18
REMARK    7  A    between atoms: O_18  and  C_19
REMARK    8  A    between atoms: C_20  and  O_29
REMARK    9  A    between atoms: C_21  and  O_28
REMARK   10  A    between atoms: C_22  and  O_27
REMARK   11  A    between atoms: C_23  and  C_25
REMARK   12  A    between atoms: C_25  and  O_26
REMARK   13  A    between atoms: O_31  and  C_32
REMARK   14  A    between atoms: C_33  and  O_42
REMARK   15  A    between atoms: C_34  and  O_41
REMARK   16  A    between atoms: C_35  and  O_40
REMARK   17  A    between atoms: C_36  and  C_38
REMARK   18  A    between atoms: C_38  and  O_39
REMARK   19  A    between atoms: O_42  and  C_43
REMARK   20  A    between atoms: C_44  and  O_53
REMARK   21  A    between atoms: C_45  and  O_52
REMARK   22  A    between atoms: C_46  and  O_51
REMARK   23  A    between atoms: C_47  and  C_49
REMARK   24  A    between atoms: C_49  and  O_50
REMARK                            x       y       z     vdW  Elec       q    Type
REMARK                         _______ _______ _______ _____ _____    ______ ____
ROOT
ATOM      1  C   UNL     1       5.927  -0.886  27.265  0.00  0.00    +0.181 A 
ATOM      2  O   UNL     1       6.901   0.016  26.775  0.00  0.00    -0.451 OA
ATOM      3  C   UNL     1       7.900  -0.398  25.944  0.00  0.00    +0.147 A 
ATOM      4  C   UNL     1       8.130  -1.748  25.764  0.00  0.00    +0.109 A 
ATOM      5  C   UNL     1       9.095  -2.143  24.837  0.00  0.00    +0.135 A 
ATOM      6  C   UNL     1       9.839  -1.192  24.148  0.00  0.00    +0.092 A 
ATOM      7  C   UNL     1       9.708   0.177  24.421  0.00  0.00    +0.131 A 
ATOM      8  C   UNL     1       7.396  -2.698  26.614  0.00  0.00    +0.238 A 
ATOM      9  O   UNL     1       7.832  -3.843  26.676  0.00  0.00    -0.283 OA
ATOM     10  C   UNL     1       8.694   0.575  25.298  0.00  0.00    +0.093 A 
ATOM     11  C   UNL     1       6.154  -2.224  27.335  0.00  0.00    +0.214 A 
ENDROOT
BRANCH   1  13
ATOM     12  C   UNL     1       4.470   0.031  29.039  0.00  0.00    +0.015 A 
ATOM     13  C   UNL     1       4.710  -0.089  27.637  0.00  0.00    +0.025 A 
ATOM     14  C   UNL     1       3.807   0.560  26.789  0.00  0.00    +0.060 A 
ATOM     15  C   UNL     1       2.742   1.292  27.344  0.00  0.00    +0.159 A 
ATOM     16  C   UNL     1       2.525   1.358  28.723  0.00  0.00    +0.158 A 
ATOM     17  C   UNL     1       3.385   0.714  29.582  0.00  0.00    +0.050 A 
BRANCH  16  18
ATOM     18  O   UNL     1       1.463   2.082  29.187  0.00  0.00    -0.503 OA
ATOM     19  H   UNL     1       0.939   1.511  29.780  0.00  0.00    +0.292 HD
ENDBRANCH  16  18
BRANCH  15  20
ATOM     20  O   UNL     1       1.892   1.982  26.523  0.00  0.00    -0.503 OA
ATOM     21  H   UNL     1       1.750   2.837  26.982  0.00  0.00    +0.292 HD
ENDBRANCH  15  20
ENDBRANCH   1  13
BRANCH   5  22
ATOM     22  O   UNL     1       9.400  -3.446  24.558  0.00  0.00    -0.506 OA
ATOM     23  H   UNL     1       8.797  -4.007  25.091  0.00  0.00    +0.292 HD
ENDBRANCH   5  22
BRANCH  11  24
ATOM     24  O   UNL     1       5.483  -3.125  28.191  0.00  0.00    -0.453 OA
BRANCH  24  25
ATOM     25  C   UNL     1       4.244  -3.750  27.778  0.00  0.00    +0.340 C 
ATOM     26  O   UNL     1       3.366  -4.040  28.909  0.00  0.00    -0.331 OA
ATOM     27  C   UNL     1       3.662  -5.151  29.789  0.00  0.00    +0.179 C 
ATOM     28  C   UNL     1       4.383  -6.371  29.168  0.00  0.00    +0.177 C 
ATOM     29  C   UNL     1       5.109  -6.068  27.861  0.00  0.00    +0.180 C 
ATOM     30  C   UNL     1       4.361  -5.053  26.976  0.00  0.00    +0.221 C 
BRANCH  29  31
ATOM     31  O   UNL     1       5.319  -7.291  27.130  0.00  0.00    -0.386 OA
ATOM     32  H   UNL     1       4.981  -7.132  26.227  0.00  0.00    +0.210 HD
ENDBRANCH  29  31
BRANCH  28  33
ATOM     33  O   UNL     1       3.533  -7.518  28.985  0.00  0.00    -0.386 OA
ATOM     34  H   UNL     1       3.501  -7.738  28.037  0.00  0.00    +0.210 HD
ENDBRANCH  28  33
BRANCH  27  35
ATOM     35  C   UNL     1       2.336  -5.643  30.449  0.00  0.00    +0.190 C 
BRANCH  35  36
ATOM     36  O   UNL     1       1.263  -5.853  29.545  0.00  0.00    -0.392 OA
ATOM     37  H   UNL     1       0.993  -6.793  29.621  0.00  0.00    +0.210 HD
ENDBRANCH  35  36
ENDBRANCH  27  35
BRANCH  30  38
ATOM     38  O   UNL     1       5.069  -4.924  25.757  0.00  0.00    -0.337 OA
BRANCH  38  39
ATOM     39  C   UNL     1       4.485  -4.917  24.456  0.00  0.00    +0.282 C 
ATOM     40  O   UNL     1       4.960  -5.796  23.444  0.00  0.00    -0.341 OA
ATOM     41  C   UNL     1       6.197  -5.457  22.812  0.00  0.00    +0.178 C 
ATOM     42  C   UNL     1       6.346  -3.984  22.387  0.00  0.00    +0.177 C 
ATOM     43  C   UNL     1       5.804  -3.015  23.445  0.00  0.00    +0.179 C 
ATOM     44  C   UNL     1       4.434  -3.451  23.976  0.00  0.00    +0.201 C 
BRANCH  44  45
ATOM     45  O   UNL     1       4.005  -2.583  25.037  0.00  0.00    -0.384 OA
ATOM     46  H   UNL     1       4.709  -2.602  25.714  0.00  0.00    +0.210 HD
ENDBRANCH  44  45
BRANCH  43  47
ATOM     47  O   UNL     1       5.693  -1.692  22.900  0.00  0.00    -0.386 OA
ATOM     48  H   UNL     1       6.591  -1.343  22.759  0.00  0.00    +0.210 HD
ENDBRANCH  43  47
BRANCH  42  49
ATOM     49  O   UNL     1       5.767  -3.723  21.103  0.00  0.00    -0.386 OA
ATOM     50  H   UNL     1       5.021  -4.333  20.957  0.00  0.00    +0.210 HD
ENDBRANCH  42  49
BRANCH  41  51
ATOM     51  C   UNL     1       6.443  -6.437  21.649  0.00  0.00    +0.190 C 
BRANCH  51  52
ATOM     52  O   UNL     1       5.348  -6.392  20.735  0.00  0.00    -0.392 OA
ATOM     53  H   UNL     1       5.331  -5.500  20.346  0.00  0.00    +0.210 HD
ENDBRANCH  51  52
ENDBRANCH  41  51
ENDBRANCH  38  39
ENDBRANCH  30  38
ENDBRANCH  24  25
ENDBRANCH  11  24
BRANCH   7  54
ATOM     54  O   UNL     1      10.564   1.149  23.887  0.00  0.00    -0.461 OA
BRANCH  54  55
ATOM     55  C   UNL     1      10.004   1.809  22.723  0.00  0.00    +0.339 C 
ATOM     56  O   UNL     1      10.120   3.236  22.863  0.00  0.00    -0.331 OA
ATOM     57  C   UNL     1       9.202   3.752  23.848  0.00  0.00    +0.179 C 
ATOM     58  C   UNL     1       7.844   3.713  23.162  0.00  0.00    +0.177 C 
ATOM     59  C   UNL     1       7.446   2.244  22.970  0.00  0.00    +0.180 C 
ATOM     60  C   UNL     1       8.558   1.433  22.279  0.00  0.00    +0.214 C 
BRANCH  60  61
ATOM     61  O   UNL     1       8.329   0.022  22.299  0.00  0.00    -0.383 OA
ATOM     62  H   UNL     1       7.582  -0.165  22.892  0.00  0.00    +0.210 HD
ENDBRANCH  60  61
BRANCH  59  63
ATOM     63  O   UNL     1       6.246   2.184  22.175  0.00  0.00    -0.386 OA
ATOM     64  H   UNL     1       5.507   2.380  22.789  0.00  0.00    +0.210 HD
ENDBRANCH  59  63
BRANCH  58  65
ATOM     65  O   UNL     1       7.943   4.330  21.860  0.00  0.00    -0.386 OA
ATOM     66  H   UNL     1       8.405   5.198  21.982  0.00  0.00    +0.210 HD
ENDBRANCH  58  65
BRANCH  57  67
ATOM     67  C   UNL     1       9.624   5.168  24.243  0.00  0.00    +0.190 C 
BRANCH  67  68
ATOM     68  O   UNL     1      10.054   5.911  23.101  0.00  0.00    -0.392 OA
ATOM     69  H   UNL     1      10.792   6.486  23.363  0.00  0.00    +0.210 HD
ENDBRANCH  67  68
ENDBRANCH  57  67
ENDBRANCH  54  55
ENDBRANCH   7  54
TORSDOF 24
ENDMDL
MODEL 6
REMARK VINA RESULT:      -5.0      2.657      6.469
REMARK  Name = 
REMARK  24 active torsions:
REMARK  status: ('A' for Active; 'I' for Inactive)
REMARK    1  A    between atoms: C_3  and  O_55
REMARK    2  A    between atoms: C_4  and  O_54
REMARK    3  A    between atoms: C_6  and  C_7
REMARK    4  A    between atoms: C_8  and  O_31
REMARK    5  A    between atoms: C_12  and  O_30
REMARK    6  A    between atoms: C_14  and  O_18
REMARK    7  A    between atoms: O_18  and  C_19
REMARK    8  A    between atoms: C_20  and  O_29
REMARK    9  A    between atoms: C_21  and  O_28
REMARK   10  A    between atoms: C_22  and  O_27
REMARK   11  A    between atoms: C_23  and  C_25
REMARK   12  A    between atoms: C_25  and  O_26
REMARK   13  A    between atoms: O_31  and  C_32
REMARK   14  A    between atoms: C_33  and  O_42
REMARK   15  A    between atoms: C_34  and  O_41
REMARK   16  A    between atoms: C_35  and  O_40
REMARK   17  A    between atoms: C_36  and  C_38
REMARK   18  A    between atoms: C_38  and  O_39
REMARK   19  A    between atoms: O_42  and  C_43
REMARK   20  A    between atoms: C_44  and  O_53
REMARK   21  A    between atoms: C_45  and  O_52
REMARK   22  A    between atoms: C_46  and  O_51
REMARK   23  A    between atoms: C_47  and  C_49
REMARK   24  A    between atoms: C_49  and  O_50
REMARK                            x       y       z     vdW  Elec       q    Type
REMARK                         _______ _______ _______ _____ _____    ______ ____
ROOT
ATOM      1  C   UNL     1       9.205   2.719  23.594  0.00  0.00    +0.181 A 
ATOM      2  O   UNL     1       9.757   1.507  24.071  0.00  0.00    -0.451 OA
ATOM      3  C   UNL     1       9.254   0.298  23.693  0.00  0.00    +0.147 A 
ATOM      4  C   UNL     1       8.041   0.233  23.036  0.00  0.00    +0.109 A 
ATOM      5  C   UNL     1       7.596  -1.008  22.577  0.00  0.00    +0.135 A 
ATOM      6  C   UNL     1       8.339  -2.157  22.822  0.00  0.00    +0.092 A 
ATOM      7  C   UNL     1       9.503  -2.121  23.603  0.00  0.00    +0.131 A 
ATOM      8  C   UNL     1       7.246   1.465  22.919  0.00  0.00    +0.238 A 
ATOM      9  O   UNL     1       6.060   1.339  22.634  0.00  0.00    -0.283 OA
ATOM     10  C   UNL     1       9.984  -0.871  24.003  0.00  0.00    +0.093 A 
ATOM     11  C   UNL     1       7.929   2.797  23.132  0.00  0.00    +0.214 A 
ENDROOT
BRANCH   1  13
ATOM     12  C   UNL     1       9.842   4.995  24.316  0.00  0.00    +0.015 A 
ATOM     13  C   UNL     1      10.263   3.778  23.700  0.00  0.00    +0.025 A 
ATOM     14  C   UNL     1      11.600   3.711  23.294  0.00  0.00    +0.060 A 
ATOM     15  C   UNL     1      12.446   4.812  23.519  0.00  0.00    +0.159 A 
ATOM     16  C   UNL     1      11.985   5.997  24.097  0.00  0.00    +0.158 A 
ATOM     17  C   UNL     1      10.671   6.101  24.489  0.00  0.00    +0.050 A 
BRANCH  16  18
ATOM     18  O   UNL     1      12.866   7.027  24.275  0.00  0.00    -0.503 OA
ATOM     19  H   UNL     1      13.595   6.712  24.842  0.00  0.00    +0.292 HD
ENDBRANCH  16  18
BRANCH  15  20
ATOM     20  O   UNL     1      13.770   4.730  23.182  0.00  0.00    -0.503 OA
ATOM     21  H   UNL     1      13.798   4.988  22.236  0.00  0.00    +0.292 HD
ENDBRANCH  15  20
ENDBRANCH   1  13
BRANCH   5  22
ATOM     22  O   UNL     1       6.423  -1.197  21.899  0.00  0.00    -0.506 OA
ATOM     23  H   UNL     1       6.634  -1.171  20.941  0.00  0.00    +0.292 HD
ENDBRANCH   5  22
BRANCH  11  24
ATOM     24  O   UNL     1       7.151   3.974  23.070  0.00  0.00    -0.453 OA
BRANCH  24  25
ATOM     25  C   UNL     1       5.718   3.922  23.272  0.00  0.00    +0.340 C 
ATOM     26  O   UNL     1       5.009   4.913  22.467  0.00  0.00    -0.331 OA
ATOM     27  C   UNL     1       5.037   6.310  22.849  0.00  0.00    +0.179 C 
ATOM     28  C   UNL     1       5.151   6.627  24.359  0.00  0.00    +0.177 C 
ATOM     29  C   UNL     1       5.695   5.476  25.199  0.00  0.00    +0.180 C 
ATOM     30  C   UNL     1       5.217   4.095  24.712  0.00  0.00    +0.221 C 
BRANCH  29  31
ATOM     31  O   UNL     1       5.319   5.663  26.577  0.00  0.00    -0.386 OA
ATOM     32  H   UNL     1       6.113   6.004  27.033  0.00  0.00    +0.210 HD
ENDBRANCH  29  31
BRANCH  28  33
ATOM     33  O   UNL     1       3.927   7.108  24.947  0.00  0.00    -0.386 OA
ATOM     34  H   UNL     1       3.330   6.353  25.091  0.00  0.00    +0.210 HD
ENDBRANCH  28  33
BRANCH  27  35
ATOM     35  C   UNL     1       3.761   7.014  22.290  0.00  0.00    +0.190 C 
BRANCH  35  36
ATOM     36  O   UNL     1       3.165   6.371  21.174  0.00  0.00    -0.392 OA
ATOM     37  H   UNL     1       2.421   6.934  20.873  0.00  0.00    +0.210 HD
ENDBRANCH  35  36
ENDBRANCH  27  35
BRANCH  30  38
ATOM     38  O   UNL     1       5.697   3.117  25.617  0.00  0.00    -0.337 OA
BRANCH  38  39
ATOM     39  C   UNL     1       5.017   2.662  26.784  0.00  0.00    +0.282 C 
ATOM     40  O   UNL     1       5.284   3.246  28.052  0.00  0.00    -0.341 OA
ATOM     41  C   UNL     1       6.501   2.869  28.702  0.00  0.00    +0.178 C 
ATOM     42  C   UNL     1       6.814   1.361  28.705  0.00  0.00    +0.177 C 
ATOM     43  C   UNL     1       6.497   0.697  27.359  0.00  0.00    +0.179 C 
ATOM     44  C   UNL     1       5.127   1.123  26.818  0.00  0.00    +0.201 C 
BRANCH  44  45
ATOM     45  O   UNL     1       4.907   0.568  25.511  0.00  0.00    -0.384 OA
ATOM     46  H   UNL     1       5.347   1.167  24.877  0.00  0.00    +0.210 HD
ENDBRANCH  44  45
BRANCH  43  47
ATOM     47  O   UNL     1       6.523  -0.732  27.489  0.00  0.00    -0.386 OA
ATOM     48  H   UNL     1       5.817  -0.995  28.106  0.00  0.00    +0.210 HD
ENDBRANCH  43  47
BRANCH  42  49
ATOM     49  O   UNL     1       6.174   0.670  29.785  0.00  0.00    -0.386 OA
ATOM     50  H   UNL     1       5.212   0.656  29.632  0.00  0.00    +0.210 HD
ENDBRANCH  42  49
BRANCH  41  51
ATOM     51  C   UNL     1       6.516   3.480  30.116  0.00  0.00    +0.190 C 
BRANCH  51  52
ATOM     52  O   UNL     1       7.640   4.349  30.259  0.00  0.00    -0.392 OA
ATOM     53  H   UNL     1       7.518   5.085  29.634  0.00  0.00    +0.210 HD
ENDBRANCH  51  52
ENDBRANCH  41  51
ENDBRANCH  38  39
ENDBRANCH  30  38
ENDBRANCH  24  25
ENDBRANCH  11  24
BRANCH   7  54
ATOM     54  O   UNL     1      10.175  -3.275  24.026  0.00  0.00    -0.461 OA
BRANCH  54  55
ATOM     55  C   UNL     1       9.406  -4.056  24.975  0.00  0.00    +0.339 C 
ATOM     56  O   UNL     1       8.866  -5.222  24.330  0.00  0.00    -0.331 OA
ATOM     57  C   UNL     1       7.791  -4.885  23.430  0.00  0.00    +0.179 C 
ATOM     58  C   UNL     1       6.612  -4.578  24.341  0.00  0.00    +0.177 C 
ATOM     59  C   UNL     1       6.920  -3.283  25.104  0.00  0.00    +0.180 C 
ATOM     60  C   UNL     1       8.294  -3.339  25.799  0.00  0.00    +0.214 C 
BRANCH  60  61
ATOM     61  O   UNL     1       8.722  -2.076  26.314  0.00  0.00    -0.383 OA
ATOM     62  H   UNL     1       9.458  -2.223  26.931  0.00  0.00    +0.210 HD
ENDBRANCH  60  61
BRANCH  59  63
ATOM     63  O   UNL     1       5.893  -3.066  26.091  0.00  0.00    -0.386 OA
ATOM     64  H   UNL     1       6.049  -3.736  26.791  0.00  0.00    +0.210 HD
ENDBRANCH  59  63
BRANCH  58  65
ATOM     65  O   UNL     1       6.454  -5.644  25.302  0.00  0.00    -0.386 OA
ATOM     66  H   UNL     1       6.075  -6.421  24.818  0.00  0.00    +0.210 HD
ENDBRANCH  58  65
BRANCH  57  67
ATOM     67  C   UNL     1       7.524  -6.065  22.494  0.00  0.00    +0.190 C 
BRANCH  67  68
ATOM     68  O   UNL     1       6.121  -6.296  22.351  0.00  0.00    -0.392 OA
ATOM     69  H   UNL     1       5.642  -5.522  22.691  0.00  0.00    +0.210 HD
ENDBRANCH  67  68
ENDBRANCH  57  67
ENDBRANCH  54  55
ENDBRANCH   7  54
TORSDOF 24
ENDMDL
MODEL 7
REMARK VINA RESULT:      -5.0      2.603      5.542
REMARK  Name = 
REMARK  24 active torsions:
REMARK  status: ('A' for Active; 'I' for Inactive)
REMARK    1  A    between atoms: C_3  and  O_55
REMARK    2  A    between atoms: C_4  and  O_54
REMARK    3  A    between atoms: C_6  and  C_7
REMARK    4  A    between atoms: C_8  and  O_31
REMARK    5  A    between atoms: C_12  and  O_30
REMARK    6  A    between atoms: C_14  and  O_18
REMARK    7  A    between atoms: O_18  and  C_19
REMARK    8  A    between atoms: C_20  and  O_29
REMARK    9  A    between atoms: C_21  and  O_28
REMARK   10  A    between atoms: C_22  and  O_27
REMARK   11  A    between atoms: C_23  and  C_25
REMARK   12  A    between atoms: C_25  and  O_26
REMARK   13  A    between atoms: O_31  and  C_32
REMARK   14  A    between atoms: C_33  and  O_42
REMARK   15  A    between atoms: C_34  and  O_41
REMARK   16  A    between atoms: C_35  and  O_40
REMARK   17  A    between atoms: C_36  and  C_38
REMARK   18  A    between atoms: C_38  and  O_39
REMARK   19  A    between atoms: O_42  and  C_43
REMARK   20  A    between atoms: C_44  and  O_53
REMARK   21  A    between atoms: C_45  and  O_52
REMARK   22  A    between atoms: C_46  and  O_51
REMARK   23  A    between atoms: C_47  and  C_49
REMARK   24  A    between atoms: C_49  and  O_50
REMARK                            x       y       z     vdW  Elec       q    Type
REMARK                         _______ _______ _______ _____ _____    ______ ____
ROOT
ATOM      1  C   UNL     1       7.241   0.179  25.787  0.00  0.00    +0.181 A 
ATOM      2  O   UNL     1       7.024  -1.180  25.457  0.00  0.00    -0.451 OA
ATOM      3  C   UNL     1       5.946  -1.864  25.935  0.00  0.00    +0.147 A 
ATOM      4  C   UNL     1       5.181  -1.322  26.949  0.00  0.00    +0.109 A 
ATOM      5  C   UNL     1       4.030  -2.000  27.353  0.00  0.00    +0.135 A 
ATOM      6  C   UNL     1       3.693  -3.220  26.776  0.00  0.00    +0.092 A 
ATOM      7  C   UNL     1       4.532  -3.844  25.843  0.00  0.00    +0.131 A 
ATOM      8  C   UNL     1       5.660  -0.094  27.601  0.00  0.00    +0.238 A 
ATOM      9  O   UNL     1       5.164   0.192  28.686  0.00  0.00    -0.283 OA
ATOM     10  C   UNL     1       5.648  -3.132  25.388  0.00  0.00    +0.093 A 
ATOM     11  C   UNL     1       6.705   0.745  26.900  0.00  0.00    +0.214 A 
ENDROOT
BRANCH   1  13
ATOM     12  C   UNL     1       7.726   0.453  23.380  0.00  0.00    +0.015 A 
ATOM     13  C   UNL     1       8.106   0.778  24.716  0.00  0.00    +0.025 A 
ATOM     14  C   UNL     1       9.211   1.622  24.866  0.00  0.00    +0.060 A 
ATOM     15  C   UNL     1       9.869   2.107  23.722  0.00  0.00    +0.159 A 
ATOM     16  C   UNL     1       9.483   1.739  22.430  0.00  0.00    +0.158 A 
ATOM     17  C   UNL     1       8.412   0.895  22.250  0.00  0.00    +0.050 A 
BRANCH  16  18
ATOM     18  O   UNL     1      10.177   2.246  21.367  0.00  0.00    -0.503 OA
ATOM     19  H   UNL     1       9.952   1.721  20.576  0.00  0.00    +0.292 HD
ENDBRANCH  16  18
BRANCH  15  20
ATOM     20  O   UNL     1      10.911   2.984  23.859  0.00  0.00    -0.503 OA
ATOM     21  H   UNL     1      11.195   2.881  24.792  0.00  0.00    +0.292 HD
ENDBRANCH  15  20
ENDBRANCH   1  13
BRANCH   5  22
ATOM     22  O   UNL     1       3.184  -1.557  28.331  0.00  0.00    -0.506 OA
ATOM     23  H   UNL     1       2.499  -2.247  28.459  0.00  0.00    +0.292 HD
ENDBRANCH   5  22
BRANCH  11  24
ATOM     24  O   UNL     1       7.200   1.895  27.554  0.00  0.00    -0.453 OA
BRANCH  24  25
ATOM     25  C   UNL     1       7.023   3.208  26.971  0.00  0.00    +0.340 C 
ATOM     26  O   UNL     1       7.472   4.275  27.863  0.00  0.00    -0.331 OA
ATOM     27  C   UNL     1       6.667   4.648  29.007  0.00  0.00    +0.179 C 
ATOM     28  C   UNL     1       5.134   4.480  28.877  0.00  0.00    +0.177 C 
ATOM     29  C   UNL     1       4.703   3.515  27.777  0.00  0.00    +0.180 C 
ATOM     30  C   UNL     1       5.602   3.583  26.528  0.00  0.00    +0.221 C 
BRANCH  29  31
ATOM     31  O   UNL     1       3.336   3.782  27.408  0.00  0.00    -0.386 OA
ATOM     32  H   UNL     1       3.123   4.664  27.767  0.00  0.00    +0.210 HD
ENDBRANCH  29  31
BRANCH  28  33
ATOM     33  O   UNL     1       4.423   5.723  28.725  0.00  0.00    -0.386 OA
ATOM     34  H   UNL     1       4.583   6.069  27.830  0.00  0.00    +0.210 HD
ENDBRANCH  28  33
BRANCH  27  35
ATOM     35  C   UNL     1       6.972   6.132  29.380  0.00  0.00    +0.190 C 
BRANCH  35  36
ATOM     36  O   UNL     1       8.346   6.486  29.344  0.00  0.00    -0.392 OA
ATOM     37  H   UNL     1       8.859   5.705  29.641  0.00  0.00    +0.210 HD
ENDBRANCH  35  36
ENDBRANCH  27  35
BRANCH  30  38
ATOM     38  O   UNL     1       5.055   2.725  25.543  0.00  0.00    -0.337 OA
BRANCH  38  39
ATOM     39  C   UNL     1       5.114   2.938  24.134  0.00  0.00    +0.282 C 
ATOM     40  O   UNL     1       6.192   3.661  23.555  0.00  0.00    -0.341 OA
ATOM     41  C   UNL     1       6.175   5.084  23.697  0.00  0.00    +0.178 C 
ATOM     42  C   UNL     1       4.825   5.766  23.406  0.00  0.00    +0.177 C 
ATOM     43  C   UNL     1       3.640   4.984  23.986  0.00  0.00    +0.179 C 
ATOM     44  C   UNL     1       3.741   3.484  23.688  0.00  0.00    +0.201 C 
BRANCH  44  45
ATOM     45  O   UNL     1       2.675   2.769  24.334  0.00  0.00    -0.384 OA
ATOM     46  H   UNL     1       3.085   2.243  25.047  0.00  0.00    +0.210 HD
ENDBRANCH  44  45
BRANCH  43  47
ATOM     47  O   UNL     1       2.404   5.483  23.454  0.00  0.00    -0.386 OA
ATOM     48  H   UNL     1       2.380   5.285  22.501  0.00  0.00    +0.210 HD
ENDBRANCH  43  47
BRANCH  42  49
ATOM     49  O   UNL     1       4.634   6.032  22.011  0.00  0.00    -0.386 OA
ATOM     50  H   UNL     1       5.157   5.397  21.489  0.00  0.00    +0.210 HD
ENDBRANCH  42  49
BRANCH  41  51
ATOM     51  C   UNL     1       7.330   5.678  22.867  0.00  0.00    +0.190 C 
BRANCH  51  52
ATOM     52  O   UNL     1       7.365   5.068  21.577  0.00  0.00    -0.392 OA
ATOM     53  H   UNL     1       8.207   5.321  21.160  0.00  0.00    +0.210 HD
ENDBRANCH  51  52
ENDBRANCH  41  51
ENDBRANCH  38  39
ENDBRANCH  30  38
ENDBRANCH  24  25
ENDBRANCH  11  24
BRANCH   7  54
ATOM     54  O   UNL     1       4.324  -5.148  25.379  0.00  0.00    -0.461 OA
BRANCH  54  55
ATOM     55  C   UNL     1       2.973  -5.363  24.898  0.00  0.00    +0.339 C 
ATOM     56  O   UNL     1       2.126  -5.783  25.982  0.00  0.00    -0.331 OA
ATOM     57  C   UNL     1       2.411  -7.136  26.389  0.00  0.00    +0.179 C 
ATOM     58  C   UNL     1       1.804  -8.001  25.295  0.00  0.00    +0.177 C 
ATOM     59  C   UNL     1       2.615  -7.788  24.010  0.00  0.00    +0.180 C 
ATOM     60  C   UNL     1       2.762  -6.293  23.666  0.00  0.00    +0.214 C 
BRANCH  60  61
ATOM     61  O   UNL     1       3.705  -6.041  22.621  0.00  0.00    -0.383 OA
ATOM     62  H   UNL     1       4.532  -5.721  23.017  0.00  0.00    +0.210 HD
ENDBRANCH  60  61
BRANCH  59  63
ATOM     63  O   UNL     1       1.957  -8.466  22.923  0.00  0.00    -0.386 OA
ATOM     64  H   UNL     1       2.479  -8.255  22.120  0.00  0.00    +0.210 HD
ENDBRANCH  59  63
BRANCH  58  65
ATOM     65  O   UNL     1       0.444  -7.583  25.048  0.00  0.00    -0.386 OA
ATOM     66  H   UNL     1      -0.149  -8.293  25.403  0.00  0.00    +0.210 HD
ENDBRANCH  58  65
BRANCH  57  67
ATOM     67  C   UNL     1       1.788  -7.396  27.763  0.00  0.00    +0.190 C 
BRANCH  67  68
ATOM     68  O   UNL     1       1.287  -8.731  27.852  0.00  0.00    -0.392 OA
ATOM     69  H   UNL     1       1.826  -9.304  27.281  0.00  0.00    +0.210 HD
ENDBRANCH  67  68
ENDBRANCH  57  67
ENDBRANCH  54  55
ENDBRANCH   7  54
TORSDOF 24
ENDMDL
MODEL 8
REMARK VINA RESULT:      -5.0      2.476      9.537
REMARK  Name = 
REMARK  24 active torsions:
REMARK  status: ('A' for Active; 'I' for Inactive)
REMARK    1  A    between atoms: C_3  and  O_55
REMARK    2  A    between atoms: C_4  and  O_54
REMARK    3  A    between atoms: C_6  and  C_7
REMARK    4  A    between atoms: C_8  and  O_31
REMARK    5  A    between atoms: C_12  and  O_30
REMARK    6  A    between atoms: C_14  and  O_18
REMARK    7  A    between atoms: O_18  and  C_19
REMARK    8  A    between atoms: C_20  and  O_29
REMARK    9  A    between atoms: C_21  and  O_28
REMARK   10  A    between atoms: C_22  and  O_27
REMARK   11  A    between atoms: C_23  and  C_25
REMARK   12  A    between atoms: C_25  and  O_26
REMARK   13  A    between atoms: O_31  and  C_32
REMARK   14  A    between atoms: C_33  and  O_42
REMARK   15  A    between atoms: C_34  and  O_41
REMARK   16  A    between atoms: C_35  and  O_40
REMARK   17  A    between atoms: C_36  and  C_38
REMARK   18  A    between atoms: C_38  and  O_39
REMARK   19  A    between atoms: O_42  and  C_43
REMARK   20  A    between atoms: C_44  and  O_53
REMARK   21  A    between atoms: C_45  and  O_52
REMARK   22  A    between atoms: C_46  and  O_51
REMARK   23  A    between atoms: C_47  and  C_49
REMARK   24  A    between atoms: C_49  and  O_50
REMARK                            x       y       z     vdW  Elec       q    Type
REMARK                         _______ _______ _______ _____ _____    ______ ____
ROOT
ATOM      1  C   UNL     1       5.584  -0.972  27.006  0.00  0.00    +0.181 A 
ATOM      2  O   UNL     1       6.150   0.212  26.477  0.00  0.00    -0.451 OA
ATOM      3  C   UNL     1       6.919   0.191  25.352  0.00  0.00    +0.147 A 
ATOM      4  C   UNL     1       7.368  -1.013  24.847  0.00  0.00    +0.109 A 
ATOM      5  C   UNL     1       8.073  -1.011  23.643  0.00  0.00    +0.135 A 
ATOM      6  C   UNL     1       8.356   0.186  22.995  0.00  0.00    +0.092 A 
ATOM      7  C   UNL     1       8.023   1.422  23.566  0.00  0.00    +0.131 A 
ATOM      8  C   UNL     1       7.142  -2.228  25.644  0.00  0.00    +0.238 A 
ATOM      9  O   UNL     1       7.811  -3.216  25.357  0.00  0.00    -0.283 OA
ATOM     10  C   UNL     1       7.257   1.417  24.736  0.00  0.00    +0.093 A 
ATOM     11  C   UNL     1       6.101  -2.200  26.741  0.00  0.00    +0.214 A 
ENDROOT
BRANCH   1  13
ATOM     12  C   UNL     1       4.700   0.035  29.083  0.00  0.00    +0.015 A 
ATOM     13  C   UNL     1       4.393  -0.580  27.833  0.00  0.00    +0.025 A 
ATOM     14  C   UNL     1       3.037  -0.724  27.521  0.00  0.00    +0.060 A 
ATOM     15  C   UNL     1       2.067  -0.255  28.425  0.00  0.00    +0.159 A 
ATOM     16  C   UNL     1       2.410   0.314  29.654  0.00  0.00    +0.158 A 
ATOM     17  C   UNL     1       3.735   0.452  29.998  0.00  0.00    +0.050 A 
BRANCH  16  18
ATOM     18  O   UNL     1       1.411   0.739  30.484  0.00  0.00    -0.503 OA
ATOM     19  H   UNL     1       1.785   0.858  31.377  0.00  0.00    +0.292 HD
ENDBRANCH  16  18
BRANCH  15  20
ATOM     20  O   UNL     1       0.740  -0.334  28.098  0.00  0.00    -0.503 OA
ATOM     21  H   UNL     1       0.494  -1.261  28.302  0.00  0.00    +0.292 HD
ENDBRANCH  15  20
ENDBRANCH   1  13
BRANCH   5  22
ATOM     22  O   UNL     1       8.551  -2.139  23.034  0.00  0.00    -0.506 OA
ATOM     23  H   UNL     1       9.467  -2.277  23.358  0.00  0.00    +0.292 HD
ENDBRANCH   5  22
BRANCH  11  24
ATOM     24  O   UNL     1       5.926  -3.352  27.537  0.00  0.00    -0.453 OA
BRANCH  24  25
ATOM     25  C   UNL     1       4.784  -4.219  27.338  0.00  0.00    +0.340 C 
ATOM     26  O   UNL     1       3.752  -4.018  28.353  0.00  0.00    -0.331 OA
ATOM     27  C   UNL     1       3.942  -4.536  29.691  0.00  0.00    +0.179 C 
ATOM     28  C   UNL     1       4.786  -5.826  29.836  0.00  0.00    +0.177 C 
ATOM     29  C   UNL     1       5.694  -6.114  28.645  0.00  0.00    +0.180 C 
ATOM     30  C   UNL     1       5.060  -5.728  27.295  0.00  0.00    +0.221 C 
BRANCH  29  31
ATOM     31  O   UNL     1       6.049  -7.510  28.635  0.00  0.00    -0.386 OA
ATOM     32  H   UNL     1       6.963  -7.563  28.974  0.00  0.00    +0.210 HD
ENDBRANCH  29  31
BRANCH  28  33
ATOM     33  O   UNL     1       4.008  -6.999  30.137  0.00  0.00    -0.386 OA
ATOM     34  H   UNL     1       3.747  -6.972  31.074  0.00  0.00    +0.210 HD
ENDBRANCH  28  33
BRANCH  27  35
ATOM     35  C   UNL     1       2.546  -4.782  30.344  0.00  0.00    +0.190 C 
BRANCH  35  36
ATOM     36  O   UNL     1       1.611  -5.454  29.515  0.00  0.00    -0.392 OA
ATOM     37  H   UNL     1       0.714  -5.175  29.797  0.00  0.00    +0.210 HD
ENDBRANCH  35  36
ENDBRANCH  27  35
BRANCH  30  38
ATOM     38  O   UNL     1       5.942  -6.128  26.262  0.00  0.00    -0.337 OA
BRANCH  38  39
ATOM     39  C   UNL     1       5.563  -6.445  24.925  0.00  0.00    +0.282 C 
ATOM     40  O   UNL     1       5.761  -5.508  23.875  0.00  0.00    -0.341 OA
ATOM     41  C   UNL     1       4.848  -4.410  23.797  0.00  0.00    +0.178 C 
ATOM     42  C   UNL     1       3.358  -4.772  23.949  0.00  0.00    +0.177 C 
ATOM     43  C   UNL     1       3.121  -5.813  25.050  0.00  0.00    +0.179 C 
ATOM     44  C   UNL     1       4.115  -6.977  24.965  0.00  0.00    +0.201 C 
BRANCH  44  45
ATOM     45  O   UNL     1       3.934  -7.877  26.069  0.00  0.00    -0.384 OA
ATOM     46  H   UNL     1       4.283  -7.422  26.859  0.00  0.00    +0.210 HD
ENDBRANCH  44  45
BRANCH  43  47
ATOM     47  O   UNL     1       1.786  -6.334  24.966  0.00  0.00    -0.386 OA
ATOM     48  H   UNL     1       1.197  -5.749  25.474  0.00  0.00    +0.210 HD
ENDBRANCH  43  47
BRANCH  42  49
ATOM     49  O   UNL     1       2.765  -5.186  22.712  0.00  0.00    -0.386 OA
ATOM     50  H   UNL     1       2.405  -6.085  22.813  0.00  0.00    +0.210 HD
ENDBRANCH  42  49
BRANCH  41  51
ATOM     51  C   UNL     1       5.136  -3.617  22.509  0.00  0.00    +0.190 C 
BRANCH  51  52
ATOM     52  O   UNL     1       5.497  -4.511  21.457  0.00  0.00    -0.392 OA
ATOM     53  H   UNL     1       4.738  -4.566  20.850  0.00  0.00    +0.210 HD
ENDBRANCH  51  52
ENDBRANCH  41  51
ENDBRANCH  38  39
ENDBRANCH  30  38
ENDBRANCH  24  25
ENDBRANCH  11  24
BRANCH   7  54
ATOM     54  O   UNL     1       8.451   2.648  23.040  0.00  0.00    -0.461 OA
BRANCH  54  55
ATOM     55  C   UNL     1       8.926   3.561  24.062  0.00  0.00    +0.339 C 
ATOM     56  O   UNL     1       8.037   4.686  24.169  0.00  0.00    -0.331 OA
ATOM     57  C   UNL     1       8.158   5.571  23.038  0.00  0.00    +0.179 C 
ATOM     58  C   UNL     1       9.468   6.310  23.268  0.00  0.00    +0.177 C 
ATOM     59  C   UNL     1      10.618   5.305  23.117  0.00  0.00    +0.180 C 
ATOM     60  C   UNL     1      10.403   4.052  23.989  0.00  0.00    +0.214 C 
BRANCH  60  61
ATOM     61  O   UNL     1      11.320   2.995  23.699  0.00  0.00    -0.383 OA
ATOM     62  H   UNL     1      11.802   2.767  24.511  0.00  0.00    +0.210 HD
ENDBRANCH  60  61
BRANCH  59  63
ATOM     63  O   UNL     1      11.852   5.945  23.496  0.00  0.00    -0.386 OA
ATOM     64  H   UNL     1      11.725   6.901  23.314  0.00  0.00    +0.210 HD
ENDBRANCH  59  63
BRANCH  58  65
ATOM     65  O   UNL     1       9.497   6.834  24.613  0.00  0.00    -0.386 OA
ATOM     66  H   UNL     1       9.680   7.805  24.544  0.00  0.00    +0.210 HD
ENDBRANCH  58  65
BRANCH  57  67
ATOM     67  C   UNL     1       6.950   6.509  22.995  0.00  0.00    +0.190 C 
BRANCH  67  68
ATOM     68  O   UNL     1       6.363   6.527  21.693  0.00  0.00    -0.392 OA
ATOM     69  H   UNL     1       5.523   6.039  21.723  0.00  0.00    +0.210 HD
ENDBRANCH  67  68
ENDBRANCH  57  67
ENDBRANCH  54  55
ENDBRANCH   7  54
TORSDOF 24
ENDMDL
MODEL 9
REMARK VINA RESULT:      -4.8      2.101      5.122
REMARK  Name = 
REMARK  24 active torsions:
REMARK  status: ('A' for Active; 'I' for Inactive)
REMARK    1  A    between atoms: C_3  and  O_55
REMARK    2  A    between atoms: C_4  and  O_54
REMARK    3  A    between atoms: C_6  and  C_7
REMARK    4  A    between atoms: C_8  and  O_31
REMARK    5  A    between atoms: C_12  and  O_30
REMARK    6  A    between atoms: C_14  and  O_18
REMARK    7  A    between atoms: O_18  and  C_19
REMARK    8  A    between atoms: C_20  and  O_29
REMARK    9  A    between atoms: C_21  and  O_28
REMARK   10  A    between atoms: C_22  and  O_27
REMARK   11  A    between atoms: C_23  and  C_25
REMARK   12  A    between atoms: C_25  and  O_26
REMARK   13  A    between atoms: O_31  and  C_32
REMARK   14  A    between atoms: C_33  and  O_42
REMARK   15  A    between atoms: C_34  and  O_41
REMARK   16  A    between atoms: C_35  and  O_40
REMARK   17  A    between atoms: C_36  and  C_38
REMARK   18  A    between atoms: C_38  and  O_39
REMARK   19  A    between atoms: O_42  and  C_43
REMARK   20  A    between atoms: C_44  and  O_53
REMARK   21  A    between atoms: C_45  and  O_52
REMARK   22  A    between atoms: C_46  and  O_51
REMARK   23  A    between atoms: C_47  and  C_49
REMARK   24  A    between atoms: C_49  and  O_50
REMARK                            x       y       z     vdW  Elec       q    Type
REMARK                         _______ _______ _______ _____ _____    ______ ____
ROOT
ATOM      1  C   UNL     1       6.519  -1.112  25.207  0.00  0.00    +0.181 A 
ATOM      2  O   UNL     1       6.775  -2.192  26.084  0.00  0.00    -0.451 OA
ATOM      3  C   UNL     1       5.779  -2.759  26.824  0.00  0.00    +0.147 A 
ATOM      4  C   UNL     1       4.553  -2.133  26.922  0.00  0.00    +0.109 A 
ATOM      5  C   UNL     1       3.524  -2.781  27.606  0.00  0.00    +0.135 A 
ATOM      6  C   UNL     1       3.751  -4.010  28.216  0.00  0.00    +0.092 A 
ATOM      7  C   UNL     1       5.026  -4.591  28.237  0.00  0.00    +0.131 A 
ATOM      8  C   UNL     1       4.417  -0.779  26.361  0.00  0.00    +0.238 A 
ATOM      9  O   UNL     1       3.451  -0.118  26.729  0.00  0.00    -0.283 OA
ATOM     10  C   UNL     1       6.038  -3.976  27.493  0.00  0.00    +0.093 A 
ATOM     11  C   UNL     1       5.444  -0.295  25.363  0.00  0.00    +0.214 A 
ENDROOT
BRANCH   1  13
ATOM     12  C   UNL     1       8.587  -2.122  24.308  0.00  0.00    +0.015 A 
ATOM     13  C   UNL     1       7.603  -1.099  24.168  0.00  0.00    +0.025 A 
ATOM     14  C   UNL     1       7.751  -0.231  23.081  0.00  0.00    +0.060 A 
ATOM     15  C   UNL     1       8.827  -0.412  22.194  0.00  0.00    +0.159 A 
ATOM     16  C   UNL     1       9.788  -1.409  22.386  0.00  0.00    +0.158 A 
ATOM     17  C   UNL     1       9.680  -2.266  23.456  0.00  0.00    +0.050 A 
BRANCH  16  18
ATOM     18  O   UNL     1      10.810  -1.517  21.485  0.00  0.00    -0.503 OA
ATOM     19  H   UNL     1      10.872  -2.449  21.203  0.00  0.00    +0.292 HD
ENDBRANCH  16  18
BRANCH  15  20
ATOM     20  O   UNL     1       8.942   0.393  21.093  0.00  0.00    -0.503 OA
ATOM     21  H   UNL     1       8.039   0.413  20.711  0.00  0.00    +0.292 HD
ENDBRANCH  15  20
ENDBRANCH   1  13
BRANCH   5  22
ATOM     22  O   UNL     1       2.264  -2.273  27.755  0.00  0.00    -0.506 OA
ATOM     23  H   UNL     1       1.927  -2.064  26.858  0.00  0.00    +0.292 HD
ENDBRANCH   5  22
BRANCH  11  24
ATOM     24  O   UNL     1       5.338   1.023  24.868  0.00  0.00    -0.453 OA
BRANCH  24  25
ATOM     25  C   UNL     1       6.338   2.017  25.196  0.00  0.00    +0.340 C 
ATOM     26  O   UNL     1       6.546   2.139  26.637  0.00  0.00    -0.331 OA
ATOM     27  C   UNL     1       5.565   2.822  27.454  0.00  0.00    +0.179 C 
ATOM     28  C   UNL     1       4.768   3.970  26.790  0.00  0.00    +0.177 C 
ATOM     29  C   UNL     1       4.763   3.925  25.265  0.00  0.00    +0.180 C 
ATOM     30  C   UNL     1       6.098   3.439  24.671  0.00  0.00    +0.221 C 
BRANCH  29  31
ATOM     31  O   UNL     1       4.444   5.229  24.744  0.00  0.00    -0.386 OA
ATOM     32  H   UNL     1       4.771   5.874  25.400  0.00  0.00    +0.210 HD
ENDBRANCH  29  31
BRANCH  28  33
ATOM     33  O   UNL     1       5.166   5.283  27.226  0.00  0.00    -0.386 OA
ATOM     34  H   UNL     1       5.401   5.243  28.170  0.00  0.00    +0.210 HD
ENDBRANCH  28  33
BRANCH  27  35
ATOM     35  C   UNL     1       6.269   3.382  28.730  0.00  0.00    +0.190 C 
BRANCH  35  36
ATOM     36  O   UNL     1       7.568   2.864  28.970  0.00  0.00    -0.392 OA
ATOM     37  H   UNL     1       8.172   3.268  28.313  0.00  0.00    +0.210 HD
ENDBRANCH  35  36
ENDBRANCH  27  35
BRANCH  30  38
ATOM     38  O   UNL     1       6.013   3.531  23.261  0.00  0.00    -0.337 OA
BRANCH  38  39
ATOM     39  C   UNL     1       7.092   3.852  22.385  0.00  0.00    +0.282 C 
ATOM     40  O   UNL     1       8.306   3.112  22.430  0.00  0.00    -0.341 OA
ATOM     41  C   UNL     1       9.198   3.387  23.513  0.00  0.00    +0.178 C 
ATOM     42  C   UNL     1       9.441   4.878  23.814  0.00  0.00    +0.177 C 
ATOM     43  C   UNL     1       8.152   5.706  23.733  0.00  0.00    +0.179 C 
ATOM     44  C   UNL     1       7.334   5.373  22.480  0.00  0.00    +0.201 C 
BRANCH  44  45
ATOM     45  O   UNL     1       6.087   6.086  22.489  0.00  0.00    -0.384 OA
ATOM     46  H   UNL     1       5.960   6.436  21.586  0.00  0.00    +0.210 HD
ENDBRANCH  44  45
BRANCH  43  47
ATOM     47  O   UNL     1       8.460   7.108  23.729  0.00  0.00    -0.386 OA
ATOM     48  H   UNL     1       7.734   7.579  23.284  0.00  0.00    +0.210 HD
ENDBRANCH  43  47
BRANCH  42  49
ATOM     49  O   UNL     1      10.470   5.442  22.992  0.00  0.00    -0.386 OA
ATOM     50  H   UNL     1      10.110   5.623  22.105  0.00  0.00    +0.210 HD
ENDBRANCH  42  49
BRANCH  41  51
ATOM     51  C   UNL     1      10.507   2.608  23.285  0.00  0.00    +0.190 C 
BRANCH  51  52
ATOM     52  O   UNL     1      10.812   2.566  21.891  0.00  0.00    -0.392 OA
ATOM     53  H   UNL     1      11.414   1.814  21.748  0.00  0.00    +0.210 HD
ENDBRANCH  51  52
ENDBRANCH  41  51
ENDBRANCH  38  39
ENDBRANCH  30  38
ENDBRANCH  24  25
ENDBRANCH  11  24
BRANCH   7  54
ATOM     54  O   UNL     1       5.336  -5.729  28.993  0.00  0.00    -0.461 OA
BRANCH  54  55
ATOM     55  C   UNL     1       4.795  -6.947  28.420  0.00  0.00    +0.339 C 
ATOM     56  O   UNL     1       5.320  -7.143  27.096  0.00  0.00    -0.331 OA
ATOM     57  C   UNL     1       4.754  -6.210  26.154  0.00  0.00    +0.179 C 
ATOM     58  C   UNL     1       3.345  -6.725  25.905  0.00  0.00    +0.177 C 
ATOM     59  C   UNL     1       2.532  -6.540  27.193  0.00  0.00    +0.180 C 
ATOM     60  C   UNL     1       3.249  -7.143  28.416  0.00  0.00    +0.214 C 
BRANCH  60  61
ATOM     61  O   UNL     1       2.647  -6.783  29.662  0.00  0.00    -0.383 OA
ATOM     62  H   UNL     1       2.565  -5.816  29.701  0.00  0.00    +0.210 HD
ENDBRANCH  60  61
BRANCH  59  63
ATOM     63  O   UNL     1       1.248  -7.174  27.032  0.00  0.00    -0.386 OA
ATOM     64  H   UNL     1       0.591  -6.445  27.005  0.00  0.00    +0.210 HD
ENDBRANCH  59  63
BRANCH  58  65
ATOM     65  O   UNL     1       3.394  -8.136  25.598  0.00  0.00    -0.386 OA
ATOM     66  H   UNL     1       4.245  -8.486  25.965  0.00  0.00    +0.210 HD
ENDBRANCH  58  65
BRANCH  57  67
ATOM     67  C   UNL     1       5.609  -6.188  24.885  0.00  0.00    +0.190 C 
BRANCH  67  68
ATOM     68  O   UNL     1       4.939  -6.844  23.807  0.00  0.00    -0.392 OA
ATOM     69  H   UNL     1       5.529  -7.525  23.443  0.00  0.00    +0.210 HD
ENDBRANCH  67  68
ENDBRANCH  57  67
ENDBRANCH  54  55
ENDBRANCH   7  54
TORSDOF 24
ENDMDL
