MODEL 1
REMARK VINA RESULT:      -7.0      0.000      0.000
REMARK  Name = 
REMARK  10 active torsions:
REMARK  status: ('A' for Active; 'I' for Inactive)
REMARK    1  A    between atoms: C_1  and  O_2
REMARK    2  A    between atoms: O_2  and  C_3
REMARK    3  A    between atoms: C_4  and  O_25
REMARK    4  A    between atoms: C_6  and  C_9
REMARK    5  A    between atoms: C_10  and  O_24
REMARK    6  A    between atoms: C_17  and  O_22
REMARK    7  A    between atoms: C_19  and  O_20
REMARK    8  A    between atoms: O_20  and  C_21
REMARK    9  A    between atoms: O_22  and  C_23
REMARK   10  A    between atoms: O_25  and  C_26
REMARK                            x       y       z     vdW  Elec       q    Type
REMARK                         _______ _______ _______ _____ _____    ______ ____
ROOT
ATOM      1  C   UNL     1       8.178  -0.123  23.346  0.00  0.00    +0.181 A 
ATOM      2  O   UNL     1       7.049  -0.798  22.902  0.00  0.00    -0.451 OA
ATOM      3  C   UNL     1       6.982  -2.169  23.062  0.00  0.00    +0.147 A 
ATOM      4  C   UNL     1       5.726  -2.732  22.800  0.00  0.00    +0.092 A 
ATOM      5  C   UNL     1       5.530  -4.103  22.915  0.00  0.00    +0.127 A 
ATOM      6  C   UNL     1       6.600  -4.893  23.319  0.00  0.00    +0.092 A 
ATOM      7  C   UNL     1       7.879  -4.358  23.590  0.00  0.00    +0.138 A 
ATOM      8  C   UNL     1       8.076  -2.972  23.440  0.00  0.00    +0.109 A 
ATOM      9  C   UNL     1       9.352  -2.240  23.597  0.00  0.00    +0.238 A 
ATOM     10  O   UNL     1      10.449  -2.785  23.580  0.00  0.00    -0.283 OA
ATOM     11  C   UNL     1       9.290  -0.762  23.756  0.00  0.00    +0.208 A 
ENDROOT
BRANCH   1  15
ATOM     12  C   UNL     1       8.049   4.201  23.258  0.00  0.00    +0.162 A 
ATOM     13  C   UNL     1       7.712   3.458  22.125  0.00  0.00    +0.050 A 
ATOM     14  C   UNL     1       7.683   2.065  22.167  0.00  0.00    +0.015 A 
ATOM     15  C   UNL     1       8.043   1.364  23.332  0.00  0.00    +0.025 A 
ATOM     16  C   UNL     1       8.273   2.125  24.493  0.00  0.00    +0.061 A 
ATOM     17  C   UNL     1       8.268   3.534  24.474  0.00  0.00    +0.162 A 
BRANCH  12  19
ATOM     18  C   UNL     1       7.282   6.045  21.960  0.00  0.00    +0.277 C 
ATOM     19  O   UNL     1       8.079   5.555  23.035  0.00  0.00    -0.491 OA
ENDBRANCH  12  19
BRANCH  17  20
ATOM     20  O   UNL     1       8.467   4.312  25.582  0.00  0.00    -0.491 OA
ATOM     21  C   UNL     1       7.390   4.501  26.485  0.00  0.00    +0.277 C 
ENDBRANCH  17  20
ENDBRANCH   1  15
BRANCH   5  22
ATOM     22  O   UNL     1       4.274  -4.556  22.619  0.00  0.00    -0.495 OA
ATOM     23  C   UNL     1       3.944  -5.866  23.079  0.00  0.00    +0.277 C 
ENDBRANCH   5  22
BRANCH   7  24
ATOM     24  O   UNL     1       8.691  -5.386  23.970  0.00  0.00    -0.494 OA
ATOM     25  C   UNL     1       9.204  -5.542  25.276  0.00  0.00    +0.277 C 
ENDBRANCH   7  24
BRANCH  11  26
ATOM     26  O   UNL     1      10.414  -0.159  24.293  0.00  0.00    -0.501 OA
ATOM     27  H   UNL     1      10.135   0.462  24.986  0.00  0.00    +0.292 HD
ENDBRANCH  11  26
TORSDOF 6
ENDMDL
MODEL 2
REMARK VINA RESULT:      -7.0      2.085      2.508
REMARK  Name = 
REMARK  10 active torsions:
REMARK  status: ('A' for Active; 'I' for Inactive)
REMARK    1  A    between atoms: C_1  and  O_2
REMARK    2  A    between atoms: O_2  and  C_3
REMARK    3  A    between atoms: C_4  and  O_25
REMARK    4  A    between atoms: C_6  and  C_9
REMARK    5  A    between atoms: C_10  and  O_24
REMARK    6  A    between atoms: C_17  and  O_22
REMARK    7  A    between atoms: C_19  and  O_20
REMARK    8  A    between atoms: O_20  and  C_21
REMARK    9  A    between atoms: O_22  and  C_23
REMARK   10  A    between atoms: O_25  and  C_26
REMARK                            x       y       z     vdW  Elec       q    Type
REMARK                         _______ _______ _______ _____ _____    ______ ____
ROOT
ATOM      1  C   UNL     1       8.718  -0.485  24.313  0.00  0.00    +0.181 A 
ATOM      2  O   UNL     1       8.271  -1.187  23.202  0.00  0.00    -0.451 OA
ATOM      3  C   UNL     1       7.646  -2.406  23.387  0.00  0.00    +0.147 A 
ATOM      4  C   UNL     1       7.030  -2.931  22.244  0.00  0.00    +0.092 A 
ATOM      5  C   UNL     1       6.375  -4.156  22.296  0.00  0.00    +0.127 A 
ATOM      6  C   UNL     1       6.328  -4.831  23.510  0.00  0.00    +0.092 A 
ATOM      7  C   UNL     1       6.940  -4.330  24.680  0.00  0.00    +0.138 A 
ATOM      8  C   UNL     1       7.628  -3.103  24.611  0.00  0.00    +0.109 A 
ATOM      9  C   UNL     1       8.395  -2.459  25.699  0.00  0.00    +0.238 A 
ATOM     10  O   UNL     1       8.779  -3.054  26.698  0.00  0.00    -0.283 OA
ATOM     11  C   UNL     1       8.738  -1.019  25.548  0.00  0.00    +0.208 A 
ENDROOT
BRANCH   1  15
ATOM     12  C   UNL     1      10.009   3.601  23.707  0.00  0.00    +0.162 A 
ATOM     13  C   UNL     1      10.938   2.558  23.726  0.00  0.00    +0.050 A 
ATOM     14  C   UNL     1      10.523   1.233  23.850  0.00  0.00    +0.015 A 
ATOM     15  C   UNL     1       9.164   0.909  24.013  0.00  0.00    +0.025 A 
ATOM     16  C   UNL     1       8.234   1.956  23.882  0.00  0.00    +0.061 A 
ATOM     17  C   UNL     1       8.639   3.296  23.718  0.00  0.00    +0.162 A 
BRANCH  12  19
ATOM     18  C   UNL     1      11.986   4.887  23.377  0.00  0.00    +0.277 C 
ATOM     19  O   UNL     1      10.585   4.844  23.630  0.00  0.00    -0.491 OA
ENDBRANCH  12  19
BRANCH  17  20
ATOM     20  O   UNL     1       7.769   4.342  23.568  0.00  0.00    -0.491 OA
ATOM     21  C   UNL     1       7.200   4.578  22.290  0.00  0.00    +0.277 C 
ENDBRANCH  17  20
ENDBRANCH   1  15
BRANCH   5  22
ATOM     22  O   UNL     1       5.822  -4.591  21.123  0.00  0.00    -0.495 OA
ATOM     23  C   UNL     1       6.143  -5.921  20.720  0.00  0.00    +0.277 C 
ENDBRANCH   5  22
BRANCH   7  24
ATOM     24  O   UNL     1       6.701  -5.216  25.690  0.00  0.00    -0.494 OA
ATOM     25  C   UNL     1       5.526  -5.991  25.794  0.00  0.00    +0.277 C 
ENDBRANCH   7  24
BRANCH  11  26
ATOM     26  O   UNL     1       9.085  -0.350  26.710  0.00  0.00    -0.501 OA
ATOM     27  H   UNL     1       8.419  -0.542  27.391  0.00  0.00    +0.292 HD
ENDBRANCH  11  26
TORSDOF 6
ENDMDL
MODEL 3
REMARK VINA RESULT:      -7.0      2.640      4.636
REMARK  Name = 
REMARK  10 active torsions:
REMARK  status: ('A' for Active; 'I' for Inactive)
REMARK    1  A    between atoms: C_1  and  O_2
REMARK    2  A    between atoms: O_2  and  C_3
REMARK    3  A    between atoms: C_4  and  O_25
REMARK    4  A    between atoms: C_6  and  C_9
REMARK    5  A    between atoms: C_10  and  O_24
REMARK    6  A    between atoms: C_17  and  O_22
REMARK    7  A    between atoms: C_19  and  O_20
REMARK    8  A    between atoms: O_20  and  C_21
REMARK    9  A    between atoms: O_22  and  C_23
REMARK   10  A    between atoms: O_25  and  C_26
REMARK                            x       y       z     vdW  Elec       q    Type
REMARK                         _______ _______ _______ _____ _____    ______ ____
ROOT
ATOM      1  C   UNL     1       6.578  -2.845  23.344  0.00  0.00    +0.181 A 
ATOM      2  O   UNL     1       6.762  -3.071  24.701  0.00  0.00    -0.451 OA
ATOM      3  C   UNL     1       6.286  -4.244  25.256  0.00  0.00    +0.147 A 
ATOM      4  C   UNL     1       6.712  -4.491  26.567  0.00  0.00    +0.092 A 
ATOM      5  C   UNL     1       6.295  -5.633  27.240  0.00  0.00    +0.127 A 
ATOM      6  C   UNL     1       5.468  -6.530  26.574  0.00  0.00    +0.092 A 
ATOM      7  C   UNL     1       5.019  -6.310  25.253  0.00  0.00    +0.138 A 
ATOM      8  C   UNL     1       5.422  -5.135  24.590  0.00  0.00    +0.109 A 
ATOM      9  C   UNL     1       4.995  -4.691  23.245  0.00  0.00    +0.238 A 
ATOM     10  O   UNL     1       4.010  -5.135  22.668  0.00  0.00    -0.283 OA
ATOM     11  C   UNL     1       5.796  -3.628  22.578  0.00  0.00    +0.208 A 
ENDROOT
BRANCH   1  15
ATOM     12  C   UNL     1       8.861   0.598  22.056  0.00  0.00    +0.162 A 
ATOM     13  C   UNL     1       9.329  -0.695  21.813  0.00  0.00    +0.050 A 
ATOM     14  C   UNL     1       8.565  -1.809  22.161  0.00  0.00    +0.015 A 
ATOM     15  C   UNL     1       7.328  -1.666  22.816  0.00  0.00    +0.025 A 
ATOM     16  C   UNL     1       6.822  -0.361  22.956  0.00  0.00    +0.061 A 
ATOM     17  C   UNL     1       7.568   0.772  22.573  0.00  0.00    +0.162 A 
BRANCH  12  19
ATOM     18  C   UNL     1      10.455   2.221  22.760  0.00  0.00    +0.277 C 
ATOM     19  O   UNL     1       9.754   1.578  21.700  0.00  0.00    -0.491 OA
ENDBRANCH  12  19
BRANCH  17  20
ATOM     20  O   UNL     1       7.106   2.056  22.672  0.00  0.00    -0.491 OA
ATOM     21  C   UNL     1       6.907   2.612  23.962  0.00  0.00    +0.277 C 
ENDBRANCH  17  20
ENDBRANCH   1  15
BRANCH   5  22
ATOM     22  O   UNL     1       6.751  -5.774  28.522  0.00  0.00    -0.495 OA
ATOM     23  C   UNL     1       5.819  -6.275  29.480  0.00  0.00    +0.277 C 
ENDBRANCH   5  22
BRANCH   7  24
ATOM     24  O   UNL     1       4.243  -7.373  24.892  0.00  0.00    -0.494 OA
ATOM     25  C   UNL     1       2.871  -7.486  25.203  0.00  0.00    +0.277 C 
ENDBRANCH   7  24
BRANCH  11  26
ATOM     26  O   UNL     1       5.638  -3.516  21.208  0.00  0.00    -0.501 OA
ATOM     27  H   UNL     1       6.476  -3.211  20.821  0.00  0.00    +0.292 HD
ENDBRANCH  11  26
TORSDOF 6
ENDMDL
MODEL 4
REMARK VINA RESULT:      -6.9      2.639      4.202
REMARK  Name = 
REMARK  10 active torsions:
REMARK  status: ('A' for Active; 'I' for Inactive)
REMARK    1  A    between atoms: C_1  and  O_2
REMARK    2  A    between atoms: O_2  and  C_3
REMARK    3  A    between atoms: C_4  and  O_25
REMARK    4  A    between atoms: C_6  and  C_9
REMARK    5  A    between atoms: C_10  and  O_24
REMARK    6  A    between atoms: C_17  and  O_22
REMARK    7  A    between atoms: C_19  and  O_20
REMARK    8  A    between atoms: O_20  and  C_21
REMARK    9  A    between atoms: O_22  and  C_23
REMARK   10  A    between atoms: O_25  and  C_26
REMARK                            x       y       z     vdW  Elec       q    Type
REMARK                         _______ _______ _______ _____ _____    ______ ____
ROOT
ATOM      1  C   UNL     1       7.350  -3.395  24.407  0.00  0.00    +0.181 A 
ATOM      2  O   UNL     1       6.425  -4.209  23.768  0.00  0.00    -0.451 OA
ATOM      3  C   UNL     1       5.750  -5.163  24.505  0.00  0.00    +0.147 A 
ATOM      4  C   UNL     1       4.682  -5.777  23.838  0.00  0.00    +0.092 A 
ATOM      5  C   UNL     1       3.929  -6.760  24.467  0.00  0.00    +0.127 A 
ATOM      6  C   UNL     1       4.246  -7.100  25.777  0.00  0.00    +0.092 A 
ATOM      7  C   UNL     1       5.316  -6.502  26.478  0.00  0.00    +0.138 A 
ATOM      8  C   UNL     1       6.094  -5.529  25.822  0.00  0.00    +0.109 A 
ATOM      9  C   UNL     1       7.295  -4.852  26.356  0.00  0.00    +0.238 A 
ATOM     10  O   UNL     1       7.938  -5.271  27.311  0.00  0.00    -0.283 OA
ATOM     11  C   UNL     1       7.756  -3.613  25.672  0.00  0.00    +0.208 A 
ENDROOT
BRANCH   1  15
ATOM     12  C   UNL     1       8.866   0.009  22.208  0.00  0.00    +0.162 A 
ATOM     13  C   UNL     1       9.620  -1.162  22.311  0.00  0.00    +0.050 A 
ATOM     14  C   UNL     1       9.108  -2.286  22.958  0.00  0.00    +0.015 A 
ATOM     15  C   UNL     1       7.843  -2.260  23.571  0.00  0.00    +0.025 A 
ATOM     16  C   UNL     1       7.053  -1.113  23.365  0.00  0.00    +0.061 A 
ATOM     17  C   UNL     1       7.544   0.016  22.680  0.00  0.00    +0.162 A 
BRANCH  12  19
ATOM     18  C   UNL     1      10.190   1.976  22.434  0.00  0.00    +0.277 C 
ATOM     19  O   UNL     1       9.534   1.036  21.588  0.00  0.00    -0.491 OA
ENDBRANCH  12  19
BRANCH  17  20
ATOM     20  O   UNL     1       6.805   1.142  22.440  0.00  0.00    -0.491 OA
ATOM     21  C   UNL     1       6.532   2.022  23.518  0.00  0.00    +0.277 C 
ENDBRANCH  17  20
ENDBRANCH   1  15
BRANCH   5  22
ATOM     22  O   UNL     1       2.922  -7.311  23.724  0.00  0.00    -0.495 OA
ATOM     23  C   UNL     1       2.060  -6.401  23.041  0.00  0.00    +0.277 C 
ENDBRANCH   5  22
BRANCH   7  24
ATOM     24  O   UNL     1       5.350  -7.043  27.730  0.00  0.00    -0.494 OA
ATOM     25  C   UNL     1       4.878  -6.383  28.886  0.00  0.00    +0.277 C 
ENDBRANCH   7  24
BRANCH  11  26
ATOM     26  O   UNL     1       8.603  -2.795  26.399  0.00  0.00    -0.501 OA
ATOM     27  H   UNL     1       8.407  -2.904  27.344  0.00  0.00    +0.292 HD
ENDBRANCH  11  26
TORSDOF 6
ENDMDL
MODEL 5
REMARK VINA RESULT:      -6.8      2.007      8.155
REMARK  Name = 
REMARK  10 active torsions:
REMARK  status: ('A' for Active; 'I' for Inactive)
REMARK    1  A    between atoms: C_1  and  O_2
REMARK    2  A    between atoms: O_2  and  C_3
REMARK    3  A    between atoms: C_4  and  O_25
REMARK    4  A    between atoms: C_6  and  C_9
REMARK    5  A    between atoms: C_10  and  O_24
REMARK    6  A    between atoms: C_17  and  O_22
REMARK    7  A    between atoms: C_19  and  O_20
REMARK    8  A    between atoms: O_20  and  C_21
REMARK    9  A    between atoms: O_22  and  C_23
REMARK   10  A    between atoms: O_25  and  C_26
REMARK                            x       y       z     vdW  Elec       q    Type
REMARK                         _______ _______ _______ _____ _____    ______ ____
ROOT
ATOM      1  C   UNL     1       7.910   0.004  23.437  0.00  0.00    +0.181 A 
ATOM      2  O   UNL     1       9.101   0.641  23.117  0.00  0.00    -0.451 OA
ATOM      3  C   UNL     1       9.245   1.983  23.412  0.00  0.00    +0.147 A 
ATOM      4  C   UNL     1      10.545   2.482  23.268  0.00  0.00    +0.092 A 
ATOM      5  C   UNL     1      10.820   3.820  23.525  0.00  0.00    +0.127 A 
ATOM      6  C   UNL     1       9.780   4.639  23.951  0.00  0.00    +0.092 A 
ATOM      7  C   UNL     1       8.458   4.168  24.107  0.00  0.00    +0.138 A 
ATOM      8  C   UNL     1       8.183   2.818  23.813  0.00  0.00    +0.109 A 
ATOM      9  C   UNL     1       6.857   2.162  23.837  0.00  0.00    +0.238 A 
ATOM     10  O   UNL     1       5.799   2.779  23.819  0.00  0.00    -0.283 OA
ATOM     11  C   UNL     1       6.819   0.675  23.853  0.00  0.00    +0.208 A 
ENDROOT
BRANCH   1  15
ATOM     12  C   UNL     1       7.856  -4.316  23.196  0.00  0.00    +0.162 A 
ATOM     13  C   UNL     1       7.071  -3.547  22.333  0.00  0.00    +0.050 A 
ATOM     14  C   UNL     1       7.137  -2.154  22.358  0.00  0.00    +0.015 A 
ATOM     15  C   UNL     1       7.952  -1.481  23.285  0.00  0.00    +0.025 A 
ATOM     16  C   UNL     1       8.816  -2.266  24.071  0.00  0.00    +0.061 A 
ATOM     17  C   UNL     1       8.787  -3.675  24.029  0.00  0.00    +0.162 A 
BRANCH  12  19
ATOM     18  C   UNL     1       6.598  -6.069  22.189  0.00  0.00    +0.277 C 
ATOM     19  O   UNL     1       7.635  -5.665  23.079  0.00  0.00    -0.491 OA
ENDBRANCH  12  19
BRANCH  17  20
ATOM     20  O   UNL     1       9.621  -4.476  24.760  0.00  0.00    -0.491 OA
ATOM     21  C   UNL     1       9.296  -4.743  26.115  0.00  0.00    +0.277 C 
ENDBRANCH  17  20
ENDBRANCH   1  15
BRANCH   5  22
ATOM     22  O   UNL     1      12.115   4.214  23.336  0.00  0.00    -0.495 OA
ATOM     23  C   UNL     1      12.428   5.565  23.674  0.00  0.00    +0.277 C 
ENDBRANCH   5  22
BRANCH   7  24
ATOM     24  O   UNL     1       7.692   5.208  24.546  0.00  0.00    -0.494 OA
ATOM     25  C   UNL     1       7.264   5.362  25.882  0.00  0.00    +0.277 C 
ENDBRANCH   7  24
BRANCH  11  26
ATOM     26  O   UNL     1       5.631   0.101  24.273  0.00  0.00    -0.501 OA
ATOM     27  H   UNL     1       5.123   0.763  24.770  0.00  0.00    +0.292 HD
ENDBRANCH  11  26
TORSDOF 6
ENDMDL
MODEL 6
REMARK VINA RESULT:      -6.6      2.068      8.563
REMARK  Name = 
REMARK  10 active torsions:
REMARK  status: ('A' for Active; 'I' for Inactive)
REMARK    1  A    between atoms: C_1  and  O_2
REMARK    2  A    between atoms: O_2  and  C_3
REMARK    3  A    between atoms: C_4  and  O_25
REMARK    4  A    between atoms: C_6  and  C_9
REMARK    5  A    between atoms: C_10  and  O_24
REMARK    6  A    between atoms: C_17  and  O_22
REMARK    7  A    between atoms: C_19  and  O_20
REMARK    8  A    between atoms: O_20  and  C_21
REMARK    9  A    between atoms: O_22  and  C_23
REMARK   10  A    between atoms: O_25  and  C_26
REMARK                            x       y       z     vdW  Elec       q    Type
REMARK                         _______ _______ _______ _____ _____    ______ ____
ROOT
ATOM      1  C   UNL     1       8.127   1.243  23.510  0.00  0.00    +0.181 A 
ATOM      2  O   UNL     1       9.348   1.900  23.447  0.00  0.00    -0.451 OA
ATOM      3  C   UNL     1       9.369   3.282  23.474  0.00  0.00    +0.147 A 
ATOM      4  C   UNL     1      10.639   3.849  23.636  0.00  0.00    +0.092 A 
ATOM      5  C   UNL     1      10.795   5.230  23.670  0.00  0.00    +0.127 A 
ATOM      6  C   UNL     1       9.662   6.027  23.563  0.00  0.00    +0.092 A 
ATOM      7  C   UNL     1       8.367   5.487  23.398  0.00  0.00    +0.138 A 
ATOM      8  C   UNL     1       8.222   4.088  23.333  0.00  0.00    +0.109 A 
ATOM      9  C   UNL     1       6.970   3.342  23.084  0.00  0.00    +0.238 A 
ATOM     10  O   UNL     1       5.964   3.851  22.605  0.00  0.00    -0.283 OA
ATOM     11  C   UNL     1       6.950   1.890  23.410  0.00  0.00    +0.208 A 
ENDROOT
BRANCH   1  15
ATOM     12  C   UNL     1       8.671  -3.029  23.923  0.00  0.00    +0.162 A 
ATOM     13  C   UNL     1       9.130  -2.156  24.912  0.00  0.00    +0.050 A 
ATOM     14  C   UNL     1       8.895  -0.785  24.820  0.00  0.00    +0.015 A 
ATOM     15  C   UNL     1       8.239  -0.233  23.705  0.00  0.00    +0.025 A 
ATOM     16  C   UNL     1       7.689  -1.132  22.773  0.00  0.00    +0.061 A 
ATOM     17  C   UNL     1       7.886  -2.524  22.875  0.00  0.00    +0.162 A 
BRANCH  12  19
ATOM     18  C   UNL     1       8.343  -5.024  25.183  0.00  0.00    +0.277 C 
ATOM     19  O   UNL     1       9.029  -4.337  24.140  0.00  0.00    -0.491 OA
ENDBRANCH  12  19
BRANCH  17  20
ATOM     20  O   UNL     1       7.353  -3.434  22.004  0.00  0.00    -0.491 OA
ATOM     21  C   UNL     1       5.948  -3.634  22.000  0.00  0.00    +0.277 C 
ENDBRANCH  17  20
ENDBRANCH   1  15
BRANCH   5  22
ATOM     22  O   UNL     1      12.077   5.685  23.813  0.00  0.00    -0.495 OA
ATOM     23  C   UNL     1      12.979   5.401  22.744  0.00  0.00    +0.277 C 
ENDBRANCH   5  22
BRANCH   7  24
ATOM     24  O   UNL     1       7.485   6.527  23.340  0.00  0.00    -0.494 OA
ATOM     25  C   UNL     1       6.982   7.066  22.136  0.00  0.00    +0.277 C 
ENDBRANCH   7  24
BRANCH  11  26
ATOM     26  O   UNL     1       5.700   1.314  23.554  0.00  0.00    -0.501 OA
ATOM     27  H   UNL     1       5.476   0.846  22.733  0.00  0.00    +0.292 HD
ENDBRANCH  11  26
TORSDOF 6
ENDMDL
MODEL 7
REMARK VINA RESULT:      -6.6      1.666      7.690
REMARK  Name = 
REMARK  10 active torsions:
REMARK  status: ('A' for Active; 'I' for Inactive)
REMARK    1  A    between atoms: C_1  and  O_2
REMARK    2  A    between atoms: O_2  and  C_3
REMARK    3  A    between atoms: C_4  and  O_25
REMARK    4  A    between atoms: C_6  and  C_9
REMARK    5  A    between atoms: C_10  and  O_24
REMARK    6  A    between atoms: C_17  and  O_22
REMARK    7  A    between atoms: C_19  and  O_20
REMARK    8  A    between atoms: O_20  and  C_21
REMARK    9  A    between atoms: O_22  and  C_23
REMARK   10  A    between atoms: O_25  and  C_26
REMARK                            x       y       z     vdW  Elec       q    Type
REMARK                         _______ _______ _______ _____ _____    ______ ____
ROOT
ATOM      1  C   UNL     1       8.408  -0.283  23.358  0.00  0.00    +0.181 A 
ATOM      2  O   UNL     1       8.019   0.325  24.544  0.00  0.00    -0.451 OA
ATOM      3  C   UNL     1       8.184   1.689  24.683  0.00  0.00    +0.147 A 
ATOM      4  C   UNL     1       7.561   2.247  25.807  0.00  0.00    +0.092 A 
ATOM      5  C   UNL     1       7.659   3.608  26.065  0.00  0.00    +0.127 A 
ATOM      6  C   UNL     1       8.368   4.402  25.170  0.00  0.00    +0.092 A 
ATOM      7  C   UNL     1       9.008   3.873  24.028  0.00  0.00    +0.138 A 
ATOM      8  C   UNL     1       8.929   2.487  23.792  0.00  0.00    +0.109 A 
ATOM      9  C   UNL     1       9.595   1.738  22.704  0.00  0.00    +0.238 A 
ATOM     10  O   UNL     1      10.536   2.182  22.056  0.00  0.00    -0.283 OA
ATOM     11  C   UNL     1       9.107   0.364  22.407  0.00  0.00    +0.208 A 
ENDROOT
BRANCH   1  15
ATOM     12  C   UNL     1       7.044  -4.388  23.239  0.00  0.00    +0.162 A 
ATOM     13  C   UNL     1       6.296  -3.374  22.637  0.00  0.00    +0.050 A 
ATOM     14  C   UNL     1       6.764  -2.061  22.610  0.00  0.00    +0.015 A 
ATOM     15  C   UNL     1       7.974  -1.707  23.233  0.00  0.00    +0.025 A 
ATOM     16  C   UNL     1       8.767  -2.754  23.738  0.00  0.00    +0.061 A 
ATOM     17  C   UNL     1       8.323  -4.092  23.737  0.00  0.00    +0.162 A 
BRANCH  12  19
ATOM     18  C   UNL     1       5.732  -5.963  22.027  0.00  0.00    +0.277 C 
ATOM     19  O   UNL     1       6.420  -5.610  23.223  0.00  0.00    -0.491 OA
ENDBRANCH  12  19
BRANCH  17  20
ATOM     20  O   UNL     1       9.068  -5.142  24.199  0.00  0.00    -0.491 OA
ATOM     21  C   UNL     1       9.426  -5.173  25.571  0.00  0.00    +0.277 C 
ENDBRANCH  17  20
ENDBRANCH   1  15
BRANCH   5  22
ATOM     22  O   UNL     1       7.033   4.051  27.197  0.00  0.00    -0.495 OA
ATOM     23  C   UNL     1       6.819   3.088  28.227  0.00  0.00    +0.277 C 
ENDBRANCH   5  22
BRANCH   7  24
ATOM     24  O   UNL     1       9.597   4.907  23.361  0.00  0.00    -0.494 OA
ATOM     25  C   UNL     1      10.741   5.592  23.823  0.00  0.00    +0.277 C 
ENDBRANCH   7  24
BRANCH  11  26
ATOM     26  O   UNL     1       9.449  -0.149  21.167  0.00  0.00    -0.501 OA
ATOM     27  H   UNL     1       9.339  -1.114  21.188  0.00  0.00    +0.292 HD
ENDBRANCH  11  26
TORSDOF 6
ENDMDL
MODEL 8
REMARK VINA RESULT:      -6.6      2.039      7.424
REMARK  Name = 
REMARK  10 active torsions:
REMARK  status: ('A' for Active; 'I' for Inactive)
REMARK    1  A    between atoms: C_1  and  O_2
REMARK    2  A    between atoms: O_2  and  C_3
REMARK    3  A    between atoms: C_4  and  O_25
REMARK    4  A    between atoms: C_6  and  C_9
REMARK    5  A    between atoms: C_10  and  O_24
REMARK    6  A    between atoms: C_17  and  O_22
REMARK    7  A    between atoms: C_19  and  O_20
REMARK    8  A    between atoms: O_20  and  C_21
REMARK    9  A    between atoms: O_22  and  C_23
REMARK   10  A    between atoms: O_25  and  C_26
REMARK                            x       y       z     vdW  Elec       q    Type
REMARK                         _______ _______ _______ _____ _____    ______ ____
ROOT
ATOM      1  C   UNL     1       7.864  -2.050  23.604  0.00  0.00    +0.181 A 
ATOM      2  O   UNL     1       7.007  -0.974  23.422  0.00  0.00    -0.451 OA
ATOM      3  C   UNL     1       7.539   0.256  23.084  0.00  0.00    +0.147 A 
ATOM      4  C   UNL     1       6.597   1.219  22.698  0.00  0.00    +0.092 A 
ATOM      5  C   UNL     1       7.003   2.500  22.343  0.00  0.00    +0.127 A 
ATOM      6  C   UNL     1       8.363   2.791  22.358  0.00  0.00    +0.092 A 
ATOM      7  C   UNL     1       9.337   1.845  22.743  0.00  0.00    +0.138 A 
ATOM      8  C   UNL     1       8.914   0.559  23.131  0.00  0.00    +0.109 A 
ATOM      9  C   UNL     1       9.769  -0.536  23.639  0.00  0.00    +0.238 A 
ATOM     10  O   UNL     1      10.903  -0.362  24.070  0.00  0.00    -0.283 OA
ATOM     11  C   UNL     1       9.203  -1.912  23.650  0.00  0.00    +0.208 A 
ENDROOT
BRANCH   1  15
ATOM     12  C   UNL     1       5.644  -5.732  24.093  0.00  0.00    +0.162 A 
ATOM     13  C   UNL     1       5.660  -5.070  22.862  0.00  0.00    +0.050 A 
ATOM     14  C   UNL     1       6.430  -3.923  22.679  0.00  0.00    +0.015 A 
ATOM     15  C   UNL     1       7.170  -3.366  23.737  0.00  0.00    +0.025 A 
ATOM     16  C   UNL     1       7.230  -4.101  24.935  0.00  0.00    +0.061 A 
ATOM     17  C   UNL     1       6.487  -5.284  25.122  0.00  0.00    +0.162 A 
BRANCH  12  19
ATOM     18  C   UNL     1       3.413  -6.536  24.315  0.00  0.00    +0.277 C 
ATOM     19  O   UNL     1       4.797  -6.812  24.121  0.00  0.00    -0.491 OA
ENDBRANCH  12  19
BRANCH  17  20
ATOM     20  O   UNL     1       6.532  -6.040  26.261  0.00  0.00    -0.491 OA
ATOM     21  C   UNL     1       6.737  -5.388  27.504  0.00  0.00    +0.277 C 
ENDBRANCH  17  20
ENDBRANCH   1  15
BRANCH   5  22
ATOM     22  O   UNL     1       6.007   3.372  22.001  0.00  0.00    -0.495 OA
ATOM     23  C   UNL     1       4.747   3.188  22.646  0.00  0.00    +0.277 C 
ENDBRANCH   5  22
BRANCH   7  24
ATOM     24  O   UNL     1      10.562   2.438  22.636  0.00  0.00    -0.494 OA
ATOM     25  C   UNL     1      10.982   3.524  23.434  0.00  0.00    +0.277 C 
ENDBRANCH   7  24
BRANCH  11  26
ATOM     26  O   UNL     1      10.118  -2.947  23.739  0.00  0.00    -0.501 OA
ATOM     27  H   UNL     1      10.618  -2.850  24.565  0.00  0.00    +0.292 HD
ENDBRANCH  11  26
TORSDOF 6
ENDMDL
MODEL 9
REMARK VINA RESULT:      -6.5      1.941      7.775
REMARK  Name = 
REMARK  10 active torsions:
REMARK  status: ('A' for Active; 'I' for Inactive)
REMARK    1  A    between atoms: C_1  and  O_2
REMARK    2  A    between atoms: O_2  and  C_3
REMARK    3  A    between atoms: C_4  and  O_25
REMARK    4  A    between atoms: C_6  and  C_9
REMARK    5  A    between atoms: C_10  and  O_24
REMARK    6  A    between atoms: C_17  and  O_22
REMARK    7  A    between atoms: C_19  and  O_20
REMARK    8  A    between atoms: O_20  and  C_21
REMARK    9  A    between atoms: O_22  and  C_23
REMARK   10  A    between atoms: O_25  and  C_26
REMARK                            x       y       z     vdW  Elec       q    Type
REMARK                         _______ _______ _______ _____ _____    ______ ____
ROOT
ATOM      1  C   UNL     1       7.200  -0.920  23.743  0.00  0.00    +0.181 A 
ATOM      2  O   UNL     1       6.664   0.319  23.417  0.00  0.00    -0.451 OA
ATOM      3  C   UNL     1       7.510   1.403  23.290  0.00  0.00    +0.147 A 
ATOM      4  C   UNL     1       6.921   2.549  22.741  0.00  0.00    +0.092 A 
ATOM      5  C   UNL     1       7.664   3.711  22.570  0.00  0.00    +0.127 A 
ATOM      6  C   UNL     1       9.006   3.698  22.933  0.00  0.00    +0.092 A 
ATOM      7  C   UNL     1       9.631   2.560  23.490  0.00  0.00    +0.138 A 
ATOM      8  C   UNL     1       8.862   1.398  23.689  0.00  0.00    +0.109 A 
ATOM      9  C   UNL     1       9.311   0.141  24.328  0.00  0.00    +0.238 A 
ATOM     10  O   UNL     1      10.310   0.062  25.032  0.00  0.00    -0.283 OA
ATOM     11  C   UNL     1       8.483  -1.077  24.121  0.00  0.00    +0.208 A 
ENDROOT
BRANCH   1  15
ATOM     12  C   UNL     1       4.583  -4.358  23.515  0.00  0.00    +0.162 A 
ATOM     13  C   UNL     1       4.484  -3.460  24.581  0.00  0.00    +0.050 A 
ATOM     14  C   UNL     1       5.275  -2.313  24.623  0.00  0.00    +0.015 A 
ATOM     15  C   UNL     1       6.233  -2.052  23.627  0.00  0.00    +0.025 A 
ATOM     16  C   UNL     1       6.245  -2.905  22.508  0.00  0.00    +0.061 A 
ATOM     17  C   UNL     1       5.423  -4.048  22.434  0.00  0.00    +0.162 A 
BRANCH  12  19
ATOM     18  C   UNL     1       4.342  -6.597  24.291  0.00  0.00    +0.277 C 
ATOM     19  O   UNL     1       3.773  -5.458  23.651  0.00  0.00    -0.491 OA
ENDBRANCH  12  19
BRANCH  17  20
ATOM     20  O   UNL     1       5.388  -4.892  21.358  0.00  0.00    -0.491 OA
ATOM     21  C   UNL     1       6.489  -5.759  21.135  0.00  0.00    +0.277 C 
ENDBRANCH  17  20
ENDBRANCH   1  15
BRANCH   5  22
ATOM     22  O   UNL     1       6.994   4.780  22.044  0.00  0.00    -0.495 OA
ATOM     23  C   UNL     1       7.574   6.066  22.257  0.00  0.00    +0.277 C 
ENDBRANCH   5  22
BRANCH   7  24
ATOM     24  O   UNL     1      10.939   2.871  23.719  0.00  0.00    -0.494 OA
ATOM     25  C   UNL     1      11.522   4.114  23.389  0.00  0.00    +0.277 C 
ENDBRANCH   7  24
BRANCH  11  26
ATOM     26  O   UNL     1       9.106  -2.287  24.372  0.00  0.00    -0.501 OA
ATOM     27  H   UNL     1       8.910  -2.896  23.641  0.00  0.00    +0.292 HD
ENDBRANCH  11  26
TORSDOF 6
ENDMDL
