MODEL 1
REMARK VINA RESULT:      -7.2      0.000      0.000
REMARK  Name = 
REMARK  8 active torsions:
REMARK  status: ('A' for Active; 'I' for Inactive)
REMARK    1  A    between atoms: C_1  and  O_2
REMARK    2  A    between atoms: O_2  and  C_3
REMARK    3  A    between atoms: C_4  and  O_24
REMARK    4  A    between atoms: C_6  and  C_9
REMARK    5  A    between atoms: C_10  and  O_23
REMARK    6  A    between atoms: C_17  and  O_22
REMARK    7  A    between atoms: C_19  and  O_20
REMARK    8  A    between atoms: O_20  and  C_21
REMARK                            x       y       z     vdW  Elec       q    Type
REMARK                         _______ _______ _______ _____ _____    ______ ____
ROOT
ATOM      1  C   UNL     1       7.291  -3.525  24.518  0.00  0.00    +0.181 A 
ATOM      2  O   UNL     1       6.444  -4.384  23.836  0.00  0.00    -0.451 OA
ATOM      3  C   UNL     1       5.785  -5.370  24.542  0.00  0.00    +0.147 A 
ATOM      4  C   UNL     1       4.834  -6.073  23.795  0.00  0.00    +0.092 A 
ATOM      5  C   UNL     1       4.084  -7.051  24.416  0.00  0.00    +0.124 A 
ATOM      6  C   UNL     1       4.262  -7.313  25.767  0.00  0.00    +0.092 A 
ATOM      7  C   UNL     1       5.225  -6.631  26.537  0.00  0.00    +0.138 A 
ATOM      8  C   UNL     1       6.026  -5.665  25.901  0.00  0.00    +0.109 A 
ATOM      9  C   UNL     1       7.166  -4.935  26.496  0.00  0.00    +0.238 A 
ATOM     10  O   UNL     1       7.756  -5.235  27.526  0.00  0.00    -0.283 OA
ATOM     11  C   UNL     1       7.676  -3.742  25.784  0.00  0.00    +0.208 A 
ENDROOT
BRANCH   1  15
ATOM     12  C   UNL     1       8.725  -0.176  22.208  0.00  0.00    +0.161 A 
ATOM     13  C   UNL     1       7.528  -0.079  22.914  0.00  0.00    +0.050 A 
ATOM     14  C   UNL     1       7.060  -1.178  23.642  0.00  0.00    +0.015 A 
ATOM     15  C   UNL     1       7.781  -2.384  23.707  0.00  0.00    +0.025 A 
ATOM     16  C   UNL     1       8.967  -2.482  22.969  0.00  0.00    +0.060 A 
ATOM     17  C   UNL     1       9.419  -1.388  22.230  0.00  0.00    +0.159 A 
BRANCH  12  19
ATOM     18  C   UNL     1       9.924   1.863  22.193  0.00  0.00    +0.277 C 
ATOM     19  O   UNL     1       9.282   0.825  21.455  0.00  0.00    -0.491 OA
ENDBRANCH  12  19
BRANCH  17  20
ATOM     20  O   UNL     1      10.588  -1.522  21.530  0.00  0.00    -0.503 OA
ATOM     21  H   UNL     1      11.219  -1.914  22.166  0.00  0.00    +0.292 HD
ENDBRANCH  17  20
ENDBRANCH   1  15
BRANCH   5  22
ATOM     22  O   UNL     1       3.151  -7.780  23.743  0.00  0.00    -0.507 OA
ATOM     23  H   UNL     1       2.800  -7.253  23.006  0.00  0.00    +0.292 HD
ENDBRANCH   5  22
BRANCH   7  24
ATOM     24  O   UNL     1       5.165  -7.082  27.824  0.00  0.00    -0.494 OA
ATOM     25  C   UNL     1       4.143  -6.708  28.726  0.00  0.00    +0.277 C 
ENDBRANCH   7  24
BRANCH  11  26
ATOM     26  O   UNL     1       8.593  -2.963  26.469  0.00  0.00    -0.501 OA
ATOM     27  H   UNL     1       8.718  -3.426  27.326  0.00  0.00    +0.292 HD
ENDBRANCH  11  26
TORSDOF 6
ENDMDL
MODEL 2
REMARK VINA RESULT:      -7.0      1.318      2.936
REMARK  Name = 
REMARK  8 active torsions:
REMARK  status: ('A' for Active; 'I' for Inactive)
REMARK    1  A    between atoms: C_1  and  O_2
REMARK    2  A    between atoms: O_2  and  C_3
REMARK    3  A    between atoms: C_4  and  O_24
REMARK    4  A    between atoms: C_6  and  C_9
REMARK    5  A    between atoms: C_10  and  O_23
REMARK    6  A    between atoms: C_17  and  O_22
REMARK    7  A    between atoms: C_19  and  O_20
REMARK    8  A    between atoms: O_20  and  C_21
REMARK                            x       y       z     vdW  Elec       q    Type
REMARK                         _______ _______ _______ _____ _____    ______ ____
ROOT
ATOM      1  C   UNL     1       6.434  -3.191  23.531  0.00  0.00    +0.181 A 
ATOM      2  O   UNL     1       6.534  -3.422  24.894  0.00  0.00    -0.451 OA
ATOM      3  C   UNL     1       5.951  -4.555  25.422  0.00  0.00    +0.147 A 
ATOM      4  C   UNL     1       6.249  -4.779  26.770  0.00  0.00    +0.092 A 
ATOM      5  C   UNL     1       5.754  -5.911  27.387  0.00  0.00    +0.124 A 
ATOM      6  C   UNL     1       4.989  -6.818  26.668  0.00  0.00    +0.092 A 
ATOM      7  C   UNL     1       4.660  -6.608  25.314  0.00  0.00    +0.138 A 
ATOM      8  C   UNL     1       5.123  -5.434  24.690  0.00  0.00    +0.109 A 
ATOM      9  C   UNL     1       4.786  -4.968  23.327  0.00  0.00    +0.238 A 
ATOM     10  O   UNL     1       3.865  -5.377  22.633  0.00  0.00    -0.283 OA
ATOM     11  C   UNL     1       5.611  -3.891  22.737  0.00  0.00    +0.208 A 
ENDROOT
BRANCH   1  15
ATOM     12  C   UNL     1       8.861   0.105  22.168  0.00  0.00    +0.161 A 
ATOM     13  C   UNL     1       7.595   0.339  22.701  0.00  0.00    +0.050 A 
ATOM     14  C   UNL     1       6.807  -0.738  23.120  0.00  0.00    +0.015 A 
ATOM     15  C   UNL     1       7.266  -2.065  23.044  0.00  0.00    +0.025 A 
ATOM     16  C   UNL     1       8.527  -2.293  22.478  0.00  0.00    +0.060 A 
ATOM     17  C   UNL     1       9.301  -1.215  22.046  0.00  0.00    +0.159 A 
BRANCH  12  19
ATOM     18  C   UNL     1      10.134   2.027  22.693  0.00  0.00    +0.277 C 
ATOM     19  O   UNL     1       9.721   1.072  21.718  0.00  0.00    -0.491 OA
ENDBRANCH  12  19
BRANCH  17  20
ATOM     20  O   UNL     1      10.532  -1.480  21.508  0.00  0.00    -0.503 OA
ATOM     21  H   UNL     1      10.473  -2.402  21.186  0.00  0.00    +0.292 HD
ENDBRANCH  17  20
ENDBRANCH   1  15
BRANCH   5  22
ATOM     22  O   UNL     1       5.996  -6.182  28.700  0.00  0.00    -0.507 OA
ATOM     23  H   UNL     1       5.393  -5.659  29.254  0.00  0.00    +0.292 HD
ENDBRANCH   5  22
BRANCH   7  24
ATOM     24  O   UNL     1       3.918  -7.662  24.867  0.00  0.00    -0.494 OA
ATOM     25  C   UNL     1       2.527  -7.776  25.091  0.00  0.00    +0.277 C 
ENDBRANCH   7  24
BRANCH  11  26
ATOM     26  O   UNL     1       5.410  -3.630  21.392  0.00  0.00    -0.501 OA
ATOM     27  H   UNL     1       5.275  -4.515  20.988  0.00  0.00    +0.292 HD
ENDBRANCH  11  26
TORSDOF 6
ENDMDL
MODEL 3
REMARK VINA RESULT:      -6.9      3.020      4.672
REMARK  Name = 
REMARK  8 active torsions:
REMARK  status: ('A' for Active; 'I' for Inactive)
REMARK    1  A    between atoms: C_1  and  O_2
REMARK    2  A    between atoms: O_2  and  C_3
REMARK    3  A    between atoms: C_4  and  O_24
REMARK    4  A    between atoms: C_6  and  C_9
REMARK    5  A    between atoms: C_10  and  O_23
REMARK    6  A    between atoms: C_17  and  O_22
REMARK    7  A    between atoms: C_19  and  O_20
REMARK    8  A    between atoms: O_20  and  C_21
REMARK                            x       y       z     vdW  Elec       q    Type
REMARK                         _______ _______ _______ _____ _____    ______ ____
ROOT
ATOM      1  C   UNL     1       8.357  -0.008  23.485  0.00  0.00    +0.181 A 
ATOM      2  O   UNL     1       7.185  -0.614  23.062  0.00  0.00    -0.451 OA
ATOM      3  C   UNL     1       7.087  -1.989  23.123  0.00  0.00    +0.147 A 
ATOM      4  C   UNL     1       5.813  -2.487  22.830  0.00  0.00    +0.092 A 
ATOM      5  C   UNL     1       5.591  -3.848  22.907  0.00  0.00    +0.124 A 
ATOM      6  C   UNL     1       6.617  -4.700  23.289  0.00  0.00    +0.092 A 
ATOM      7  C   UNL     1       7.913  -4.226  23.572  0.00  0.00    +0.138 A 
ATOM      8  C   UNL     1       8.159  -2.846  23.451  0.00  0.00    +0.109 A 
ATOM      9  C   UNL     1       9.468  -2.169  23.580  0.00  0.00    +0.238 A 
ATOM     10  O   UNL     1      10.566  -2.710  23.548  0.00  0.00    -0.283 OA
ATOM     11  C   UNL     1       9.478  -0.699  23.738  0.00  0.00    +0.208 A 
ENDROOT
BRANCH   1  15
ATOM     12  C   UNL     1       8.188   4.295  23.739  0.00  0.00    +0.161 A 
ATOM     13  C   UNL     1       8.651   3.547  24.819  0.00  0.00    +0.050 A 
ATOM     14  C   UNL     1       8.681   2.151  24.735  0.00  0.00    +0.015 A 
ATOM     15  C   UNL     1       8.278   1.470  23.572  0.00  0.00    +0.025 A 
ATOM     16  C   UNL     1       7.786   2.230  22.503  0.00  0.00    +0.060 A 
ATOM     17  C   UNL     1       7.742   3.621  22.600  0.00  0.00    +0.159 A 
BRANCH  12  19
ATOM     18  C   UNL     1       9.344   6.349  23.540  0.00  0.00    +0.277 C 
ATOM     19  O   UNL     1       8.105   5.663  23.702  0.00  0.00    -0.491 OA
ENDBRANCH  12  19
BRANCH  17  20
ATOM     20  O   UNL     1       7.263   4.327  21.528  0.00  0.00    -0.503 OA
ATOM     21  H   UNL     1       7.463   5.261  21.732  0.00  0.00    +0.292 HD
ENDBRANCH  17  20
ENDBRANCH   1  15
BRANCH   5  22
ATOM     22  O   UNL     1       4.378  -4.398  22.623  0.00  0.00    -0.507 OA
ATOM     23  H   UNL     1       4.454  -4.957  21.832  0.00  0.00    +0.292 HD
ENDBRANCH   5  22
BRANCH   7  24
ATOM     24  O   UNL     1       8.703  -5.279  23.932  0.00  0.00    -0.494 OA
ATOM     25  C   UNL     1       9.168  -5.479  25.251  0.00  0.00    +0.277 C 
ENDBRANCH   7  24
BRANCH  11  26
ATOM     26  O   UNL     1      10.694  -0.124  24.070  0.00  0.00    -0.501 OA
ATOM     27  H   UNL     1      10.881   0.497  23.333  0.00  0.00    +0.292 HD
ENDBRANCH  11  26
TORSDOF 6
ENDMDL
MODEL 4
REMARK VINA RESULT:      -6.8      3.104      5.095
REMARK  Name = 
REMARK  8 active torsions:
REMARK  status: ('A' for Active; 'I' for Inactive)
REMARK    1  A    between atoms: C_1  and  O_2
REMARK    2  A    between atoms: O_2  and  C_3
REMARK    3  A    between atoms: C_4  and  O_24
REMARK    4  A    between atoms: C_6  and  C_9
REMARK    5  A    between atoms: C_10  and  O_23
REMARK    6  A    between atoms: C_17  and  O_22
REMARK    7  A    between atoms: C_19  and  O_20
REMARK    8  A    between atoms: O_20  and  C_21
REMARK                            x       y       z     vdW  Elec       q    Type
REMARK                         _______ _______ _______ _____ _____    ______ ____
ROOT
ATOM      1  C   UNL     1       8.407  -0.411  23.715  0.00  0.00    +0.181 A 
ATOM      2  O   UNL     1       9.103  -1.317  24.499  0.00  0.00    -0.451 OA
ATOM      3  C   UNL     1       8.794  -2.658  24.401  0.00  0.00    +0.147 A 
ATOM      4  C   UNL     1       9.661  -3.500  25.106  0.00  0.00    +0.092 A 
ATOM      5  C   UNL     1       9.470  -4.866  25.039  0.00  0.00    +0.124 A 
ATOM      6  C   UNL     1       8.444  -5.389  24.266  0.00  0.00    +0.092 A 
ATOM      7  C   UNL     1       7.547  -4.562  23.560  0.00  0.00    +0.138 A 
ATOM      8  C   UNL     1       7.706  -3.168  23.660  0.00  0.00    +0.109 A 
ATOM      9  C   UNL     1       6.804  -2.135  23.105  0.00  0.00    +0.238 A 
ATOM     10  O   UNL     1       5.659  -2.315  22.709  0.00  0.00    -0.283 OA
ATOM     11  C   UNL     1       7.299  -0.743  23.036  0.00  0.00    +0.208 A 
ENDROOT
BRANCH   1  15
ATOM     12  C   UNL     1       9.988   3.603  23.746  0.00  0.00    +0.161 A 
ATOM     13  C   UNL     1      10.556   2.631  22.924  0.00  0.00    +0.050 A 
ATOM     14  C   UNL     1      10.050   1.328  22.937  0.00  0.00    +0.015 A 
ATOM     15  C   UNL     1       8.957   0.966  23.745  0.00  0.00    +0.025 A 
ATOM     16  C   UNL     1       8.412   1.941  24.590  0.00  0.00    +0.060 A 
ATOM     17  C   UNL     1       8.933   3.236  24.584  0.00  0.00    +0.159 A 
BRANCH  12  19
ATOM     18  C   UNL     1      11.751   5.152  23.454  0.00  0.00    +0.277 C 
ATOM     19  O   UNL     1      10.397   4.909  23.827  0.00  0.00    -0.491 OA
ENDBRANCH  12  19
BRANCH  17  20
ATOM     20  O   UNL     1       8.365   4.162  25.419  0.00  0.00    -0.503 OA
ATOM     21  H   UNL     1       9.003   4.264  26.152  0.00  0.00    +0.292 HD
ENDBRANCH  17  20
ENDBRANCH   1  15
BRANCH   5  22
ATOM     22  O   UNL     1      10.270  -5.739  25.711  0.00  0.00    -0.507 OA
ATOM     23  H   UNL     1      10.704  -5.278  26.448  0.00  0.00    +0.292 HD
ENDBRANCH   5  22
BRANCH   7  24
ATOM     24  O   UNL     1       6.659  -5.346  22.882  0.00  0.00    -0.494 OA
ATOM     25  C   UNL     1       6.846  -5.735  21.536  0.00  0.00    +0.277 C 
ENDBRANCH   7  24
BRANCH  11  26
ATOM     26  O   UNL     1       6.522   0.151  22.319  0.00  0.00    -0.501 OA
ATOM     27  H   UNL     1       6.206   0.794  22.991  0.00  0.00    +0.292 HD
ENDBRANCH  11  26
TORSDOF 6
ENDMDL
MODEL 5
REMARK VINA RESULT:      -6.8      1.894      2.783
REMARK  Name = 
REMARK  8 active torsions:
REMARK  status: ('A' for Active; 'I' for Inactive)
REMARK    1  A    between atoms: C_1  and  O_2
REMARK    2  A    between atoms: O_2  and  C_3
REMARK    3  A    between atoms: C_4  and  O_24
REMARK    4  A    between atoms: C_6  and  C_9
REMARK    5  A    between atoms: C_10  and  O_23
REMARK    6  A    between atoms: C_17  and  O_22
REMARK    7  A    between atoms: C_19  and  O_20
REMARK    8  A    between atoms: O_20  and  C_21
REMARK                            x       y       z     vdW  Elec       q    Type
REMARK                         _______ _______ _______ _____ _____    ______ ____
ROOT
ATOM      1  C   UNL     1       8.422  -1.951  24.190  0.00  0.00    +0.181 A 
ATOM      2  O   UNL     1       8.087  -2.688  23.065  0.00  0.00    -0.451 OA
ATOM      3  C   UNL     1       7.311  -3.819  23.217  0.00  0.00    +0.147 A 
ATOM      4  C   UNL     1       6.894  -4.394  22.012  0.00  0.00    +0.092 A 
ATOM      5  C   UNL     1       6.075  -5.505  22.048  0.00  0.00    +0.124 A 
ATOM      6  C   UNL     1       5.658  -6.024  23.265  0.00  0.00    +0.092 A 
ATOM      7  C   UNL     1       6.078  -5.474  24.493  0.00  0.00    +0.138 A 
ATOM      8  C   UNL     1       6.951  -4.370  24.465  0.00  0.00    +0.109 A 
ATOM      9  C   UNL     1       7.601  -3.731  25.630  0.00  0.00    +0.238 A 
ATOM     10  O   UNL     1       7.698  -4.207  26.753  0.00  0.00    -0.283 OA
ATOM     11  C   UNL     1       8.221  -2.402  25.437  0.00  0.00    +0.208 A 
ENDROOT
BRANCH   1  15
ATOM     12  C   UNL     1      10.376   1.795  23.317  0.00  0.00    +0.161 A 
ATOM     13  C   UNL     1      10.718   1.075  24.460  0.00  0.00    +0.050 A 
ATOM     14  C   UNL     1      10.064  -0.127  24.745  0.00  0.00    +0.015 A 
ATOM     15  C   UNL     1       9.076  -0.653  23.893  0.00  0.00    +0.025 A 
ATOM     16  C   UNL     1       8.717   0.093  22.764  0.00  0.00    +0.060 A 
ATOM     17  C   UNL     1       9.362   1.301  22.494  0.00  0.00    +0.159 A 
BRANCH  12  19
ATOM     18  C   UNL     1      10.520   4.129  23.674  0.00  0.00    +0.277 C 
ATOM     19  O   UNL     1      10.938   2.985  22.933  0.00  0.00    -0.491 OA
ENDBRANCH  12  19
BRANCH  17  20
ATOM     20  O   UNL     1       8.987   1.995  21.374  0.00  0.00    -0.503 OA
ATOM     21  H   UNL     1       8.490   1.350  20.833  0.00  0.00    +0.292 HD
ENDBRANCH  17  20
ENDBRANCH   1  15
BRANCH   5  22
ATOM     22  O   UNL     1       5.643  -6.120  20.912  0.00  0.00    -0.507 OA
ATOM     23  H   UNL     1       6.141  -6.943  20.782  0.00  0.00    +0.292 HD
ENDBRANCH   5  22
BRANCH   7  24
ATOM     24  O   UNL     1       5.504  -6.175  25.514  0.00  0.00    -0.494 OA
ATOM     25  C   UNL     1       4.327  -6.941  25.357  0.00  0.00    +0.277 C 
ENDBRANCH   7  24
BRANCH  11  26
ATOM     26  O   UNL     1       8.627  -1.741  26.584  0.00  0.00    -0.501 OA
ATOM     27  H   UNL     1       8.752  -2.454  27.247  0.00  0.00    +0.292 HD
ENDBRANCH  11  26
TORSDOF 6
ENDMDL
MODEL 6
REMARK VINA RESULT:      -6.7      2.488      4.295
REMARK  Name = 
REMARK  8 active torsions:
REMARK  status: ('A' for Active; 'I' for Inactive)
REMARK    1  A    between atoms: C_1  and  O_2
REMARK    2  A    between atoms: O_2  and  C_3
REMARK    3  A    between atoms: C_4  and  O_24
REMARK    4  A    between atoms: C_6  and  C_9
REMARK    5  A    between atoms: C_10  and  O_23
REMARK    6  A    between atoms: C_17  and  O_22
REMARK    7  A    between atoms: C_19  and  O_20
REMARK    8  A    between atoms: O_20  and  C_21
REMARK                            x       y       z     vdW  Elec       q    Type
REMARK                         _______ _______ _______ _____ _____    ______ ____
ROOT
ATOM      1  C   UNL     1       7.745  -0.374  24.439  0.00  0.00    +0.181 A 
ATOM      2  O   UNL     1       8.646  -1.384  24.736  0.00  0.00    -0.451 OA
ATOM      3  C   UNL     1       8.192  -2.686  24.795  0.00  0.00    +0.147 A 
ATOM      4  C   UNL     1       9.204  -3.641  24.936  0.00  0.00    +0.092 A 
ATOM      5  C   UNL     1       8.864  -4.979  24.959  0.00  0.00    +0.124 A 
ATOM      6  C   UNL     1       7.538  -5.364  24.823  0.00  0.00    +0.092 A 
ATOM      7  C   UNL     1       6.498  -4.421  24.696  0.00  0.00    +0.138 A 
ATOM      8  C   UNL     1       6.831  -3.054  24.718  0.00  0.00    +0.109 A 
ATOM      9  C   UNL     1       5.886  -1.916  24.726  0.00  0.00    +0.238 A 
ATOM     10  O   UNL     1       4.689  -1.974  24.978  0.00  0.00    -0.283 OA
ATOM     11  C   UNL     1       6.418  -0.568  24.429  0.00  0.00    +0.208 A 
ENDROOT
BRANCH   1  15
ATOM     12  C   UNL     1       9.603   3.464  23.788  0.00  0.00    +0.161 A 
ATOM     13  C   UNL     1       8.774   3.264  24.890  0.00  0.00    +0.050 A 
ATOM     14  C   UNL     1       8.159   2.023  25.080  0.00  0.00    +0.015 A 
ATOM     15  C   UNL     1       8.372   0.948  24.199  0.00  0.00    +0.025 A 
ATOM     16  C   UNL     1       9.182   1.168  23.078  0.00  0.00    +0.060 A 
ATOM     17  C   UNL     1       9.779   2.414  22.884  0.00  0.00    +0.159 A 
BRANCH  12  19
ATOM     18  C   UNL     1       9.489   5.823  23.659  0.00  0.00    +0.277 C 
ATOM     19  O   UNL     1      10.255   4.632  23.490  0.00  0.00    -0.491 OA
ENDBRANCH  12  19
BRANCH  17  20
ATOM     20  O   UNL     1      10.572   2.584  21.780  0.00  0.00    -0.503 OA
ATOM     21  H   UNL     1      10.002   2.347  21.022  0.00  0.00    +0.292 HD
ENDBRANCH  17  20
ENDBRANCH   1  15
BRANCH   5  22
ATOM     22  O   UNL     1       9.799  -5.958  25.107  0.00  0.00    -0.507 OA
ATOM     23  H   UNL     1       9.518  -6.570  25.807  0.00  0.00    +0.292 HD
ENDBRANCH   5  22
BRANCH   7  24
ATOM     24  O   UNL     1       5.312  -5.083  24.566  0.00  0.00    -0.494 OA
ATOM     25  C   UNL     1       4.628  -5.205  23.334  0.00  0.00    +0.277 C 
ENDBRANCH   7  24
BRANCH  11  26
ATOM     26  O   UNL     1       5.481   0.433  24.232  0.00  0.00    -0.501 OA
ATOM     27  H   UNL     1       5.226   0.711  25.138  0.00  0.00    +0.292 HD
ENDBRANCH  11  26
TORSDOF 6
ENDMDL
MODEL 7
REMARK VINA RESULT:      -6.6      2.387      8.043
REMARK  Name = 
REMARK  8 active torsions:
REMARK  status: ('A' for Active; 'I' for Inactive)
REMARK    1  A    between atoms: C_1  and  O_2
REMARK    2  A    between atoms: O_2  and  C_3
REMARK    3  A    between atoms: C_4  and  O_24
REMARK    4  A    between atoms: C_6  and  C_9
REMARK    5  A    between atoms: C_10  and  O_23
REMARK    6  A    between atoms: C_17  and  O_22
REMARK    7  A    between atoms: C_19  and  O_20
REMARK    8  A    between atoms: O_20  and  C_21
REMARK                            x       y       z     vdW  Elec       q    Type
REMARK                         _______ _______ _______ _____ _____    ______ ____
ROOT
ATOM      1  C   UNL     1       8.215  -1.820  25.075  0.00  0.00    +0.181 A 
ATOM      2  O   UNL     1       7.722  -0.697  25.719  0.00  0.00    -0.451 OA
ATOM      3  C   UNL     1       8.182   0.546  25.336  0.00  0.00    +0.147 A 
ATOM      4  C   UNL     1       7.505   1.617  25.929  0.00  0.00    +0.092 A 
ATOM      5  C   UNL     1       7.855   2.906  25.581  0.00  0.00    +0.124 A 
ATOM      6  C   UNL     1       8.851   3.129  24.642  0.00  0.00    +0.092 A 
ATOM      7  C   UNL     1       9.560   2.068  24.043  0.00  0.00    +0.138 A 
ATOM      8  C   UNL     1       9.241   0.752  24.426  0.00  0.00    +0.109 A 
ATOM      9  C   UNL     1       9.946  -0.481  24.014  0.00  0.00    +0.238 A 
ATOM     10  O   UNL     1      11.056  -0.540  23.501  0.00  0.00    -0.283 OA
ATOM     11  C   UNL     1       9.278  -1.778  24.258  0.00  0.00    +0.208 A 
ENDROOT
BRANCH   1  15
ATOM     12  C   UNL     1       6.165  -5.497  26.017  0.00  0.00    +0.161 A 
ATOM     13  C   UNL     1       5.662  -4.645  25.036  0.00  0.00    +0.050 A 
ATOM     14  C   UNL     1       6.322  -3.445  24.753  0.00  0.00    +0.015 A 
ATOM     15  C   UNL     1       7.506  -3.077  25.417  0.00  0.00    +0.025 A 
ATOM     16  C   UNL     1       7.986  -3.924  26.423  0.00  0.00    +0.060 A 
ATOM     17  C   UNL     1       7.313  -5.112  26.712  0.00  0.00    +0.159 A 
BRANCH  12  19
ATOM     18  C   UNL     1       4.330  -6.977  25.821  0.00  0.00    +0.277 C 
ATOM     19  O   UNL     1       5.607  -6.693  26.388  0.00  0.00    -0.491 OA
ENDBRANCH  12  19
BRANCH  17  20
ATOM     20  O   UNL     1       7.822  -5.917  27.697  0.00  0.00    -0.503 OA
ATOM     21  H   UNL     1       8.399  -5.333  28.227  0.00  0.00    +0.292 HD
ENDBRANCH  17  20
ENDBRANCH   1  15
BRANCH   5  22
ATOM     22  O   UNL     1       7.243   3.993  26.130  0.00  0.00    -0.507 OA
ATOM     23  H   UNL     1       6.333   3.759  26.380  0.00  0.00    +0.292 HD
ENDBRANCH   5  22
BRANCH   7  24
ATOM     24  O   UNL     1      10.461   2.582  23.156  0.00  0.00    -0.494 OA
ATOM     25  C   UNL     1      11.216   3.749  23.411  0.00  0.00    +0.277 C 
ENDBRANCH   7  24
BRANCH  11  26
ATOM     26  O   UNL     1       9.860  -2.889  23.672  0.00  0.00    -0.501 OA
ATOM     27  H   UNL     1       9.757  -2.739  22.707  0.00  0.00    +0.292 HD
ENDBRANCH  11  26
TORSDOF 6
ENDMDL
MODEL 8
REMARK VINA RESULT:      -6.5      3.439      9.613
REMARK  Name = 
REMARK  8 active torsions:
REMARK  status: ('A' for Active; 'I' for Inactive)
REMARK    1  A    between atoms: C_1  and  O_2
REMARK    2  A    between atoms: O_2  and  C_3
REMARK    3  A    between atoms: C_4  and  O_24
REMARK    4  A    between atoms: C_6  and  C_9
REMARK    5  A    between atoms: C_10  and  O_23
REMARK    6  A    between atoms: C_17  and  O_22
REMARK    7  A    between atoms: C_19  and  O_20
REMARK    8  A    between atoms: O_20  and  C_21
REMARK                            x       y       z     vdW  Elec       q    Type
REMARK                         _______ _______ _______ _____ _____    ______ ____
ROOT
ATOM      1  C   UNL     1       9.015   1.542  23.554  0.00  0.00    +0.181 A 
ATOM      2  O   UNL     1      10.288   2.031  23.313  0.00  0.00    -0.451 OA
ATOM      3  C   UNL     1      10.521   3.383  23.455  0.00  0.00    +0.147 A 
ATOM      4  C   UNL     1      11.868   3.748  23.351  0.00  0.00    +0.092 A 
ATOM      5  C   UNL     1      12.219   5.072  23.523  0.00  0.00    +0.124 A 
ATOM      6  C   UNL     1      11.247   6.018  23.815  0.00  0.00    +0.092 A 
ATOM      7  C   UNL     1       9.882   5.680  23.909  0.00  0.00    +0.138 A 
ATOM      8  C   UNL     1       9.510   4.340  23.689  0.00  0.00    +0.109 A 
ATOM      9  C   UNL     1       8.132   3.808  23.617  0.00  0.00    +0.238 A 
ATOM     10  O   UNL     1       7.111   4.467  23.474  0.00  0.00    -0.283 OA
ATOM     11  C   UNL     1       7.948   2.343  23.699  0.00  0.00    +0.208 A 
ENDROOT
BRANCH   1  15
ATOM     12  C   UNL     1       8.810  -2.767  23.593  0.00  0.00    +0.161 A 
ATOM     13  C   UNL     1       8.855  -2.077  22.383  0.00  0.00    +0.050 A 
ATOM     14  C   UNL     1       8.899  -0.680  22.381  0.00  0.00    +0.015 A 
ATOM     15  C   UNL     1       8.926   0.062  23.575  0.00  0.00    +0.025 A 
ATOM     16  C   UNL     1       8.849  -0.638  24.786  0.00  0.00    +0.060 A 
ATOM     17  C   UNL     1       8.788  -2.032  24.780  0.00  0.00    +0.159 A 
BRANCH  12  19
ATOM     18  C   UNL     1       7.570  -4.750  23.239  0.00  0.00    +0.277 C 
ATOM     19  O   UNL     1       8.759  -4.130  23.725  0.00  0.00    -0.491 OA
ENDBRANCH  12  19
BRANCH  17  20
ATOM     20  O   UNL     1       8.724  -2.679  25.986  0.00  0.00    -0.503 OA
ATOM     21  H   UNL     1       9.244  -2.121  26.599  0.00  0.00    +0.292 HD
ENDBRANCH  17  20
ENDBRANCH   1  15
BRANCH   5  22
ATOM     22  O   UNL     1      13.509   5.495  23.422  0.00  0.00    -0.507 OA
ATOM     23  H   UNL     1      13.660   5.864  22.536  0.00  0.00    +0.292 HD
ENDBRANCH   5  22
BRANCH   7  24
ATOM     24  O   UNL     1       9.166   6.800  24.219  0.00  0.00    -0.494 OA
ATOM     25  C   UNL     1       8.667   7.062  25.515  0.00  0.00    +0.277 C 
ENDBRANCH   7  24
BRANCH  11  26
ATOM     26  O   UNL     1       6.646   1.894  23.846  0.00  0.00    -0.501 OA
ATOM     27  H   UNL     1       6.400   1.561  22.956  0.00  0.00    +0.292 HD
ENDBRANCH  11  26
TORSDOF 6
ENDMDL
MODEL 9
REMARK VINA RESULT:      -6.5      2.947      7.950
REMARK  Name = 
REMARK  8 active torsions:
REMARK  status: ('A' for Active; 'I' for Inactive)
REMARK    1  A    between atoms: C_1  and  O_2
REMARK    2  A    between atoms: O_2  and  C_3
REMARK    3  A    between atoms: C_4  and  O_24
REMARK    4  A    between atoms: C_6  and  C_9
REMARK    5  A    between atoms: C_10  and  O_23
REMARK    6  A    between atoms: C_17  and  O_22
REMARK    7  A    between atoms: C_19  and  O_20
REMARK    8  A    between atoms: O_20  and  C_21
REMARK                            x       y       z     vdW  Elec       q    Type
REMARK                         _______ _______ _______ _____ _____    ______ ____
ROOT
ATOM      1  C   UNL     1       7.330  -1.210  23.361  0.00  0.00    +0.181 A 
ATOM      2  O   UNL     1       6.719  -0.013  23.022  0.00  0.00    -0.451 OA
ATOM      3  C   UNL     1       7.483   1.134  22.967  0.00  0.00    +0.147 A 
ATOM      4  C   UNL     1       6.810   2.249  22.457  0.00  0.00    +0.092 A 
ATOM      5  C   UNL     1       7.495   3.439  22.315  0.00  0.00    +0.124 A 
ATOM      6  C   UNL     1       8.838   3.514  22.656  0.00  0.00    +0.092 A 
ATOM      7  C   UNL     1       9.535   2.411  23.187  0.00  0.00    +0.138 A 
ATOM      8  C   UNL     1       8.832   1.207  23.378  0.00  0.00    +0.109 A 
ATOM      9  C   UNL     1       9.341  -0.018  24.033  0.00  0.00    +0.238 A 
ATOM     10  O   UNL     1      10.340  -0.097  24.737  0.00  0.00    -0.283 OA
ATOM     11  C   UNL     1       8.575  -1.271  23.856  0.00  0.00    +0.208 A 
ENDROOT
BRANCH   1  15
ATOM     12  C   UNL     1       4.773  -4.646  22.853  0.00  0.00    +0.161 A 
ATOM     13  C   UNL     1       4.632  -3.826  23.971  0.00  0.00    +0.050 A 
ATOM     14  C   UNL     1       5.480  -2.727  24.137  0.00  0.00    +0.015 A 
ATOM     15  C   UNL     1       6.467  -2.403  23.189  0.00  0.00    +0.025 A 
ATOM     16  C   UNL     1       6.622  -3.251  22.085  0.00  0.00    +0.060 A 
ATOM     17  C   UNL     1       5.783  -4.356  21.933  0.00  0.00    +0.159 A 
BRANCH  12  19
ATOM     18  C   UNL     1       2.771  -5.830  23.284  0.00  0.00    +0.277 C 
ATOM     19  O   UNL     1       4.010  -5.752  22.582  0.00  0.00    -0.491 OA
ENDBRANCH  12  19
BRANCH  17  20
ATOM     20  O   UNL     1       5.961  -5.153  20.834  0.00  0.00    -0.503 OA
ATOM     21  H   UNL     1       6.335  -4.562  20.152  0.00  0.00    +0.292 HD
ENDBRANCH  17  20
ENDBRANCH   1  15
BRANCH   5  22
ATOM     22  O   UNL     1       6.895   4.564  21.837  0.00  0.00    -0.507 OA
ATOM     23  H   UNL     1       6.663   4.434  20.902  0.00  0.00    +0.292 HD
ENDBRANCH   5  22
BRANCH   7  24
ATOM     24  O   UNL     1      10.832   2.770  23.412  0.00  0.00    -0.494 OA
ATOM     25  C   UNL     1      11.263   4.116  23.454  0.00  0.00    +0.277 C 
ENDBRANCH   7  24
BRANCH  11  26
ATOM     26  O   UNL     1       9.187  -2.433  24.296  0.00  0.00    -0.501 OA
ATOM     27  H   UNL     1       8.862  -2.548  25.215  0.00  0.00    +0.292 HD
ENDBRANCH  11  26
TORSDOF 6
ENDMDL
