MODEL 1
REMARK VINA RESULT:      -6.0      0.000      0.000
REMARK  Name = 
REMARK  24 active torsions:
REMARK  status: ('A' for Active; 'I' for Inactive)
REMARK    1  A    between atoms: C_3  and  O_50
REMARK    2  A    between atoms: C_4  and  O_35
REMARK    3  A    between atoms: C_6  and  C_7
REMARK    4  A    between atoms: C_8  and  O_20
REMARK    5  A    between atoms: C_12  and  O_19
REMARK    6  A    between atoms: C_14  and  O_18
REMARK    7  A    between atoms: O_20  and  C_21
REMARK    8  A    between atoms: C_23  and  O_34
REMARK    9  A    between atoms: C_24  and  O_33
REMARK   10  A    between atoms: C_26  and  O_32
REMARK   11  A    between atoms: C_28  and  C_30
REMARK   12  A    between atoms: C_30  and  O_31
REMARK   13  A    between atoms: O_35  and  C_36
REMARK   14  A    between atoms: C_38  and  O_49
REMARK   15  A    between atoms: C_39  and  O_48
REMARK   16  A    between atoms: C_41  and  O_47
REMARK   17  A    between atoms: C_43  and  C_45
REMARK   18  A    between atoms: C_45  and  O_46
REMARK   19  A    between atoms: O_50  and  C_51
REMARK   20  A    between atoms: C_53  and  O_64
REMARK   21  A    between atoms: C_54  and  O_63
REMARK   22  A    between atoms: C_55  and  O_62
REMARK   23  A    between atoms: C_57  and  C_60
REMARK   24  A    between atoms: C_60  and  O_61
REMARK                            x       y       z     vdW  Elec       q    Type
REMARK                         _______ _______ _______ _____ _____    ______ ____
ROOT
ATOM      1  C   UNL     1       8.842   0.296  23.564  0.00  0.00    +0.015 A 
ATOM      2  C   UNL     1       7.524   0.023  23.202  0.00  0.00    +0.025 A 
ATOM      3  C   UNL     1       6.797   1.063  22.600  0.00  0.00    +0.061 A 
ATOM      4  C   UNL     1       7.321   2.383  22.479  0.00  0.00    +0.166 A 
ATOM      5  C   UNL     1       8.578   2.678  23.004  0.00  0.00    +0.166 A 
ATOM      6  C   UNL     1       9.361   1.602  23.463  0.00  0.00    +0.050 A 
ENDROOT
BRANCH   2   7
ATOM      7  C   UNL     1       6.891  -1.273  23.578  0.00  0.00    +0.181 A 
ATOM      8  O   UNL     1       6.820  -2.208  22.545  0.00  0.00    -0.451 OA
ATOM      9  C   UNL     1       6.285  -3.454  22.803  0.00  0.00    +0.147 A 
ATOM     10  C   UNL     1       5.845  -3.846  24.065  0.00  0.00    +0.109 A 
ATOM     11  C   UNL     1       5.288  -5.132  24.248  0.00  0.00    +0.135 A 
ATOM     12  C   UNL     1       5.159  -6.018  23.185  0.00  0.00    +0.091 A 
ATOM     13  C   UNL     1       5.606  -5.619  21.943  0.00  0.00    +0.124 A 
ATOM     14  C   UNL     1       5.951  -2.863  25.151  0.00  0.00    +0.238 A 
ATOM     15  O   UNL     1       5.590  -3.181  26.278  0.00  0.00    -0.283 OA
ATOM     16  C   UNL     1       6.181  -4.358  21.742  0.00  0.00    +0.092 A 
ATOM     17  C   UNL     1       6.453  -1.483  24.842  0.00  0.00    +0.214 A 
BRANCH  11  18
ATOM     18  O   UNL     1       4.839  -5.607  25.450  0.00  0.00    -0.506 OA
ATOM     19  H   UNL     1       4.203  -4.964  25.830  0.00  0.00    +0.292 HD
ENDBRANCH  11  18
BRANCH  13  20
ATOM     20  O   UNL     1       5.505  -6.435  20.860  0.00  0.00    -0.507 OA
ATOM     21  H   UNL     1       5.437  -7.370  21.140  0.00  0.00    +0.292 HD
ENDBRANCH  13  20
BRANCH  17  22
ATOM     22  O   UNL     1       6.690  -0.591  25.888  0.00  0.00    -0.453 OA
BRANCH  22  23
ATOM     23  C   UNL     1       5.916   0.637  25.975  0.00  0.00    +0.340 C 
ATOM     24  O   UNL     1       6.743   1.656  26.568  0.00  0.00    -0.331 OA
ATOM     25  C   UNL     1       6.607   2.064  27.951  0.00  0.00    +0.179 C 
ATOM     26  C   UNL     1       5.691   1.253  28.921  0.00  0.00    +0.177 C 
ATOM     27  C   UNL     1       5.072   0.035  28.245  0.00  0.00    +0.180 C 
ATOM     28  C   UNL     1       4.654   0.484  26.829  0.00  0.00    +0.214 C 
BRANCH  28  29
ATOM     29  O   UNL     1       3.617  -0.295  26.253  0.00  0.00    -0.383 OA
ATOM     30  H   UNL     1       3.852  -0.501  25.331  0.00  0.00    +0.210 HD
ENDBRANCH  28  29
BRANCH  27  31
ATOM     31  O   UNL     1       6.012  -1.044  28.313  0.00  0.00    -0.386 OA
ATOM     32  H   UNL     1       6.414  -1.174  27.430  0.00  0.00    +0.210 HD
ENDBRANCH  27  31
BRANCH  26  33
ATOM     33  O   UNL     1       4.640   2.072  29.461  0.00  0.00    -0.386 OA
ATOM     34  H   UNL     1       4.939   2.419  30.322  0.00  0.00    +0.210 HD
ENDBRANCH  26  33
BRANCH  25  35
ATOM     35  C   UNL     1       6.302   3.585  28.033  0.00  0.00    +0.190 C 
BRANCH  35  36
ATOM     36  O   UNL     1       7.403   4.362  27.549  0.00  0.00    -0.392 OA
ATOM     37  H   UNL     1       7.123   5.295  27.570  0.00  0.00    +0.210 HD
ENDBRANCH  35  36
ENDBRANCH  25  35
ENDBRANCH  22  23
ENDBRANCH  17  22
ENDBRANCH   2   7
BRANCH   4  38
ATOM     38  O   UNL     1       6.428   3.289  22.000  0.00  0.00    -0.457 OA
BRANCH  38  39
ATOM     39  C   UNL     1       5.161   3.595  22.596  0.00  0.00    +0.339 C 
ATOM     40  O   UNL     1       4.011   2.889  22.075  0.00  0.00    -0.331 OA
ATOM     41  C   UNL     1       2.797   3.662  22.256  0.00  0.00    +0.179 C 
ATOM     42  C   UNL     1       2.545   4.065  23.732  0.00  0.00    +0.177 C 
ATOM     43  C   UNL     1       3.810   4.629  24.413  0.00  0.00    +0.180 C 
ATOM     44  C   UNL     1       5.040   3.724  24.134  0.00  0.00    +0.214 C 
BRANCH  44  45
ATOM     45  O   UNL     1       6.193   4.263  24.778  0.00  0.00    -0.383 OA
ATOM     46  H   UNL     1       6.103   5.231  24.799  0.00  0.00    +0.210 HD
ENDBRANCH  44  45
BRANCH  43  47
ATOM     47  O   UNL     1       4.053   5.992  24.015  0.00  0.00    -0.386 OA
ATOM     48  H   UNL     1       4.089   6.080  23.048  0.00  0.00    +0.210 HD
ENDBRANCH  43  47
BRANCH  42  49
ATOM     49  O   UNL     1       2.096   2.927  24.476  0.00  0.00    -0.386 OA
ATOM     50  H   UNL     1       1.478   2.416  23.920  0.00  0.00    +0.210 HD
ENDBRANCH  42  49
BRANCH  41  51
ATOM     51  C   UNL     1       1.578   2.879  21.704  0.00  0.00    +0.190 C 
BRANCH  51  52
ATOM     52  O   UNL     1       1.920   2.019  20.620  0.00  0.00    -0.392 OA
ATOM     53  H   UNL     1       2.639   2.431  20.113  0.00  0.00    +0.210 HD
ENDBRANCH  51  52
ENDBRANCH  41  51
ENDBRANCH  38  39
ENDBRANCH   4  38
BRANCH   5  54
ATOM     54  O   UNL     1       8.924   4.011  23.143  0.00  0.00    -0.457 OA
BRANCH  54  55
ATOM     55  C   UNL     1       9.624   4.348  24.355  0.00  0.00    +0.339 C 
ATOM     56  O   UNL     1       8.816   5.136  25.233  0.00  0.00    -0.331 OA
ATOM     57  C   UNL     1       8.909   6.560  25.101  0.00  0.00    +0.179 C 
ATOM     58  C   UNL     1      10.348   7.024  25.311  0.00  0.00    +0.177 C 
ATOM     59  C   UNL     1      11.223   6.438  24.210  0.00  0.00    +0.180 C 
ATOM     60  C   UNL     1      11.073   4.904  24.149  0.00  0.00    +0.214 C 
BRANCH  60  61
ATOM     61  O   UNL     1      11.726   4.375  22.990  0.00  0.00    -0.383 OA
ATOM     62  H   UNL     1      11.166   4.571  22.213  0.00  0.00    +0.210 HD
ENDBRANCH  60  61
BRANCH  59  63
ATOM     63  O   UNL     1      12.585   6.833  24.469  0.00  0.00    -0.386 OA
ATOM     64  H   UNL     1      13.145   6.039  24.397  0.00  0.00    +0.210 HD
ENDBRANCH  59  63
BRANCH  58  65
ATOM     65  O   UNL     1      10.826   6.564  26.589  0.00  0.00    -0.386 OA
ATOM     66  H   UNL     1      11.246   7.337  27.011  0.00  0.00    +0.210 HD
ENDBRANCH  58  65
BRANCH  57  67
ATOM     67  C   UNL     1       8.329   7.108  23.780  0.00  0.00    +0.190 C 
BRANCH  67  68
ATOM     68  O   UNL     1       6.952   6.806  23.613  0.00  0.00    -0.392 OA
ATOM     69  H   UNL     1       6.473   7.655  23.559  0.00  0.00    +0.210 HD
ENDBRANCH  67  68
ENDBRANCH  57  67
ENDBRANCH  54  55
ENDBRANCH   5  54
TORSDOF 24
ENDMDL
MODEL 2
REMARK VINA RESULT:      -5.9      2.680      6.488
REMARK  Name = 
REMARK  24 active torsions:
REMARK  status: ('A' for Active; 'I' for Inactive)
REMARK    1  A    between atoms: C_3  and  O_50
REMARK    2  A    between atoms: C_4  and  O_35
REMARK    3  A    between atoms: C_6  and  C_7
REMARK    4  A    between atoms: C_8  and  O_20
REMARK    5  A    between atoms: C_12  and  O_19
REMARK    6  A    between atoms: C_14  and  O_18
REMARK    7  A    between atoms: O_20  and  C_21
REMARK    8  A    between atoms: C_23  and  O_34
REMARK    9  A    between atoms: C_24  and  O_33
REMARK   10  A    between atoms: C_26  and  O_32
REMARK   11  A    between atoms: C_28  and  C_30
REMARK   12  A    between atoms: C_30  and  O_31
REMARK   13  A    between atoms: O_35  and  C_36
REMARK   14  A    between atoms: C_38  and  O_49
REMARK   15  A    between atoms: C_39  and  O_48
REMARK   16  A    between atoms: C_41  and  O_47
REMARK   17  A    between atoms: C_43  and  C_45
REMARK   18  A    between atoms: C_45  and  O_46
REMARK   19  A    between atoms: O_50  and  C_51
REMARK   20  A    between atoms: C_53  and  O_64
REMARK   21  A    between atoms: C_54  and  O_63
REMARK   22  A    between atoms: C_55  and  O_62
REMARK   23  A    between atoms: C_57  and  C_60
REMARK   24  A    between atoms: C_60  and  O_61
REMARK                            x       y       z     vdW  Elec       q    Type
REMARK                         _______ _______ _______ _____ _____    ______ ____
ROOT
ATOM      1  C   UNL     1       4.442  -0.572  26.875  0.00  0.00    +0.015 A 
ATOM      2  C   UNL     1       5.568  -1.346  27.149  0.00  0.00    +0.025 A 
ATOM      3  C   UNL     1       6.821  -0.746  26.941  0.00  0.00    +0.061 A 
ATOM      4  C   UNL     1       6.956   0.542  26.348  0.00  0.00    +0.166 A 
ATOM      5  C   UNL     1       5.822   1.229  25.922  0.00  0.00    +0.166 A 
ATOM      6  C   UNL     1       4.568   0.696  26.274  0.00  0.00    +0.050 A 
ENDROOT
BRANCH   2   7
ATOM      7  C   UNL     1       5.427  -2.785  27.507  0.00  0.00    +0.181 A 
ATOM      8  O   UNL     1       4.267  -3.098  28.217  0.00  0.00    -0.451 OA
ATOM      9  C   UNL     1       4.025  -4.411  28.563  0.00  0.00    +0.147 A 
ATOM     10  C   UNL     1       4.867  -5.461  28.201  0.00  0.00    +0.109 A 
ATOM     11  C   UNL     1       4.564  -6.779  28.611  0.00  0.00    +0.135 A 
ATOM     12  C   UNL     1       3.441  -7.053  29.382  0.00  0.00    +0.091 A 
ATOM     13  C   UNL     1       2.614  -6.006  29.727  0.00  0.00    +0.124 A 
ATOM     14  C   UNL     1       6.069  -5.124  27.429  0.00  0.00    +0.238 A 
ATOM     15  O   UNL     1       6.823  -6.025  27.078  0.00  0.00    -0.283 OA
ATOM     16  C   UNL     1       2.881  -4.694  29.315  0.00  0.00    +0.092 A 
ATOM     17  C   UNL     1       6.368  -3.683  27.133  0.00  0.00    +0.214 A 
BRANCH  11  18
ATOM     18  O   UNL     1       5.325  -7.871  28.295  0.00  0.00    -0.506 OA
ATOM     19  H   UNL     1       5.124  -8.594  28.926  0.00  0.00    +0.292 HD
ENDBRANCH  11  18
BRANCH  13  20
ATOM     20  O   UNL     1       1.501  -6.204  30.485  0.00  0.00    -0.507 OA
ATOM     21  H   UNL     1       1.259  -5.384  30.960  0.00  0.00    +0.292 HD
ENDBRANCH  13  20
BRANCH  17  22
ATOM     22  O   UNL     1       7.428  -3.365  26.283  0.00  0.00    -0.453 OA
BRANCH  22  23
ATOM     23  C   UNL     1       7.164  -3.079  24.881  0.00  0.00    +0.340 C 
ATOM     24  O   UNL     1       6.054  -3.891  24.452  0.00  0.00    -0.331 OA
ATOM     25  C   UNL     1       6.225  -5.090  23.658  0.00  0.00    +0.179 C 
ATOM     26  C   UNL     1       7.653  -5.672  23.415  0.00  0.00    +0.177 C 
ATOM     27  C   UNL     1       8.731  -4.876  24.142  0.00  0.00    +0.180 C 
ATOM     28  C   UNL     1       8.362  -3.387  23.977  0.00  0.00    +0.214 C 
BRANCH  28  29
ATOM     29  O   UNL     1       9.462  -2.497  24.097  0.00  0.00    -0.383 OA
ATOM     30  H   UNL     1      10.258  -3.009  24.323  0.00  0.00    +0.210 HD
ENDBRANCH  28  29
BRANCH  27  31
ATOM     31  O   UNL     1       8.819  -5.359  25.487  0.00  0.00    -0.386 OA
ATOM     32  H   UNL     1       8.208  -4.845  26.053  0.00  0.00    +0.210 HD
ENDBRANCH  27  31
BRANCH  26  33
ATOM     33  O   UNL     1       7.972  -5.719  22.014  0.00  0.00    -0.386 OA
ATOM     34  H   UNL     1       7.443  -5.036  21.561  0.00  0.00    +0.210 HD
ENDBRANCH  26  33
BRANCH  25  35
ATOM     35  C   UNL     1       5.437  -4.967  22.325  0.00  0.00    +0.190 C 
BRANCH  35  36
ATOM     36  O   UNL     1       5.740  -3.739  21.654  0.00  0.00    -0.392 OA
ATOM     37  H   UNL     1       5.126  -3.669  20.901  0.00  0.00    +0.210 HD
ENDBRANCH  35  36
ENDBRANCH  25  35
ENDBRANCH  22  23
ENDBRANCH  17  22
ENDBRANCH   2   7
BRANCH   4  38
ATOM     38  O   UNL     1       8.243   0.901  26.095  0.00  0.00    -0.457 OA
BRANCH  38  39
ATOM     39  C   UNL     1       8.766   1.249  24.808  0.00  0.00    +0.339 C 
ATOM     40  O   UNL     1       8.505   0.322  23.728  0.00  0.00    -0.331 OA
ATOM     41  C   UNL     1       9.531   0.407  22.706  0.00  0.00    +0.179 C 
ATOM     42  C   UNL     1       9.710   1.840  22.140  0.00  0.00    +0.177 C 
ATOM     43  C   UNL     1       9.776   2.908  23.251  0.00  0.00    +0.180 C 
ATOM     44  C   UNL     1       8.640   2.702  24.288  0.00  0.00    +0.214 C 
BRANCH  44  45
ATOM     45  O   UNL     1       8.719   3.704  25.300  0.00  0.00    -0.383 OA
ATOM     46  H   UNL     1       9.596   3.644  25.717  0.00  0.00    +0.210 HD
ENDBRANCH  44  45
BRANCH  43  47
ATOM     47  O   UNL     1      11.071   2.926  23.881  0.00  0.00    -0.386 OA
ATOM     48  H   UNL     1      11.579   2.124  23.675  0.00  0.00    +0.210 HD
ENDBRANCH  43  47
BRANCH  42  49
ATOM     49  O   UNL     1       8.619   2.157  21.268  0.00  0.00    -0.386 OA
ATOM     50  H   UNL     1       8.135   2.918  21.639  0.00  0.00    +0.210 HD
ENDBRANCH  42  49
BRANCH  41  51
ATOM     51  C   UNL     1       9.221  -0.583  21.555  0.00  0.00    +0.190 C 
BRANCH  51  52
ATOM     52  O   UNL     1      10.173  -1.641  21.466  0.00  0.00    -0.392 OA
ATOM     53  H   UNL     1      10.709  -1.642  22.276  0.00  0.00    +0.210 HD
ENDBRANCH  51  52
ENDBRANCH  41  51
ENDBRANCH  38  39
ENDBRANCH   4  38
BRANCH   5  54
ATOM     54  O   UNL     1       6.000   2.320  25.089  0.00  0.00    -0.457 OA
BRANCH  54  55
ATOM     55  C   UNL     1       4.849   3.168  24.918  0.00  0.00    +0.339 C 
ATOM     56  O   UNL     1       4.046   2.757  23.809  0.00  0.00    -0.331 OA
ATOM     57  C   UNL     1       4.338   3.353  22.539  0.00  0.00    +0.179 C 
ATOM     58  C   UNL     1       4.213   4.872  22.618  0.00  0.00    +0.177 C 
ATOM     59  C   UNL     1       5.261   5.405  23.588  0.00  0.00    +0.180 C 
ATOM     60  C   UNL     1       5.148   4.703  24.957  0.00  0.00    +0.214 C 
BRANCH  60  61
ATOM     61  O   UNL     1       6.256   5.046  25.797  0.00  0.00    -0.383 OA
ATOM     62  H   UNL     1       6.819   5.679  25.309  0.00  0.00    +0.210 HD
ENDBRANCH  60  61
BRANCH  59  63
ATOM     63  O   UNL     1       5.079   6.830  23.698  0.00  0.00    -0.386 OA
ATOM     64  H   UNL     1       5.820   7.186  24.221  0.00  0.00    +0.210 HD
ENDBRANCH  59  63
BRANCH  58  65
ATOM     65  O   UNL     1       2.903   5.229  23.098  0.00  0.00    -0.386 OA
ATOM     66  H   UNL     1       2.482   5.734  22.378  0.00  0.00    +0.210 HD
ENDBRANCH  58  65
BRANCH  57  67
ATOM     67  C   UNL     1       5.698   2.931  21.944  0.00  0.00    +0.190 C 
BRANCH  67  68
ATOM     68  O   UNL     1       6.046   1.590  22.255  0.00  0.00    -0.392 OA
ATOM     69  H   UNL     1       7.016   1.562  22.368  0.00  0.00    +0.210 HD
ENDBRANCH  67  68
ENDBRANCH  57  67
ENDBRANCH  54  55
ENDBRANCH   5  54
TORSDOF 24
ENDMDL
MODEL 3
REMARK VINA RESULT:      -5.9      0.842      1.603
REMARK  Name = 
REMARK  24 active torsions:
REMARK  status: ('A' for Active; 'I' for Inactive)
REMARK    1  A    between atoms: C_3  and  O_50
REMARK    2  A    between atoms: C_4  and  O_35
REMARK    3  A    between atoms: C_6  and  C_7
REMARK    4  A    between atoms: C_8  and  O_20
REMARK    5  A    between atoms: C_12  and  O_19
REMARK    6  A    between atoms: C_14  and  O_18
REMARK    7  A    between atoms: O_20  and  C_21
REMARK    8  A    between atoms: C_23  and  O_34
REMARK    9  A    between atoms: C_24  and  O_33
REMARK   10  A    between atoms: C_26  and  O_32
REMARK   11  A    between atoms: C_28  and  C_30
REMARK   12  A    between atoms: C_30  and  O_31
REMARK   13  A    between atoms: O_35  and  C_36
REMARK   14  A    between atoms: C_38  and  O_49
REMARK   15  A    between atoms: C_39  and  O_48
REMARK   16  A    between atoms: C_41  and  O_47
REMARK   17  A    between atoms: C_43  and  C_45
REMARK   18  A    between atoms: C_45  and  O_46
REMARK   19  A    between atoms: O_50  and  C_51
REMARK   20  A    between atoms: C_53  and  O_64
REMARK   21  A    between atoms: C_54  and  O_63
REMARK   22  A    between atoms: C_55  and  O_62
REMARK   23  A    between atoms: C_57  and  C_60
REMARK   24  A    between atoms: C_60  and  O_61
REMARK                            x       y       z     vdW  Elec       q    Type
REMARK                         _______ _______ _______ _____ _____    ______ ____
ROOT
ATOM      1  C   UNL     1       8.691   0.277  23.590  0.00  0.00    +0.015 A 
ATOM      2  C   UNL     1       7.370   0.026  23.220  0.00  0.00    +0.025 A 
ATOM      3  C   UNL     1       6.670   1.074  22.601  0.00  0.00    +0.061 A 
ATOM      4  C   UNL     1       7.220   2.382  22.473  0.00  0.00    +0.166 A 
ATOM      5  C   UNL     1       8.478   2.658  23.006  0.00  0.00    +0.166 A 
ATOM      6  C   UNL     1       9.235   1.572  23.482  0.00  0.00    +0.050 A 
ENDROOT
BRANCH   2   7
ATOM      7  C   UNL     1       6.710  -1.254  23.602  0.00  0.00    +0.181 A 
ATOM      8  O   UNL     1       6.911  -2.305  22.706  0.00  0.00    -0.451 OA
ATOM      9  C   UNL     1       6.371  -3.542  22.990  0.00  0.00    +0.147 A 
ATOM     10  C   UNL     1       5.662  -3.813  24.158  0.00  0.00    +0.109 A 
ATOM     11  C   UNL     1       5.120  -5.100  24.370  0.00  0.00    +0.135 A 
ATOM     12  C   UNL     1       5.270  -6.109  23.426  0.00  0.00    +0.091 A 
ATOM     13  C   UNL     1       5.981  -5.829  22.278  0.00  0.00    +0.124 A 
ATOM     14  C   UNL     1       5.481  -2.707  25.107  0.00  0.00    +0.238 A 
ATOM     15  O   UNL     1       4.878  -2.915  26.154  0.00  0.00    -0.283 OA
ATOM     16  C   UNL     1       6.546  -4.567  22.055  0.00  0.00    +0.092 A 
ATOM     17  C   UNL     1       5.997  -1.344  24.749  0.00  0.00    +0.214 A 
BRANCH  11  18
ATOM     18  O   UNL     1       4.419  -5.460  25.488  0.00  0.00    -0.506 OA
ATOM     19  H   UNL     1       3.484  -5.184  25.383  0.00  0.00    +0.292 HD
ENDBRANCH  11  18
BRANCH  13  20
ATOM     20  O   UNL     1       6.161  -6.769  21.311  0.00  0.00    -0.507 OA
ATOM     21  H   UNL     1       6.059  -7.667  21.683  0.00  0.00    +0.292 HD
ENDBRANCH  13  20
BRANCH  17  22
ATOM     22  O   UNL     1       5.955  -0.325  25.702  0.00  0.00    -0.453 OA
BRANCH  22  23
ATOM     23  C   UNL     1       6.368  -0.601  27.068  0.00  0.00    +0.340 C 
ATOM     24  O   UNL     1       5.348  -0.114  27.960  0.00  0.00    -0.331 OA
ATOM     25  C   UNL     1       5.483   1.124  28.700  0.00  0.00    +0.179 C 
ATOM     26  C   UNL     1       6.665   2.096  28.391  0.00  0.00    +0.177 C 
ATOM     27  C   UNL     1       7.534   1.599  27.241  0.00  0.00    +0.180 C 
ATOM     28  C   UNL     1       7.691   0.077  27.437  0.00  0.00    +0.214 C 
BRANCH  28  29
ATOM     29  O   UNL     1       8.850  -0.473  26.827  0.00  0.00    -0.383 OA
ATOM     30  H   UNL     1       8.602  -1.291  26.360  0.00  0.00    +0.210 HD
ENDBRANCH  28  29
BRANCH  27  31
ATOM     31  O   UNL     1       6.935   2.018  26.009  0.00  0.00    -0.386 OA
ATOM     32  H   UNL     1       6.510   1.247  25.581  0.00  0.00    +0.210 HD
ENDBRANCH  27  31
BRANCH  26  33
ATOM     33  O   UNL     1       7.494   2.302  29.547  0.00  0.00    -0.386 OA
ATOM     34  H   UNL     1       7.186   3.109  30.000  0.00  0.00    +0.210 HD
ENDBRANCH  26  33
BRANCH  25  35
ATOM     35  C   UNL     1       5.366   0.852  30.225  0.00  0.00    +0.190 C 
BRANCH  35  36
ATOM     36  O   UNL     1       4.607  -0.334  30.484  0.00  0.00    -0.392 OA
ATOM     37  H   UNL     1       4.168  -0.578  29.649  0.00  0.00    +0.210 HD
ENDBRANCH  35  36
ENDBRANCH  25  35
ENDBRANCH  22  23
ENDBRANCH  17  22
ENDBRANCH   2   7
BRANCH   4  38
ATOM     38  O   UNL     1       6.349   3.300  21.978  0.00  0.00    -0.457 OA
BRANCH  38  39
ATOM     39  C   UNL     1       5.067   3.610  22.538  0.00  0.00    +0.339 C 
ATOM     40  O   UNL     1       3.939   2.854  22.037  0.00  0.00    -0.331 OA
ATOM     41  C   UNL     1       2.707   3.610  22.160  0.00  0.00    +0.179 C 
ATOM     42  C   UNL     1       2.424   4.083  23.610  0.00  0.00    +0.177 C 
ATOM     43  C   UNL     1       3.666   4.706  24.279  0.00  0.00    +0.180 C 
ATOM     44  C   UNL     1       4.919   3.815  24.065  0.00  0.00    +0.214 C 
BRANCH  44  45
ATOM     45  O   UNL     1       6.050   4.410  24.698  0.00  0.00    -0.383 OA
ATOM     46  H   UNL     1       5.748   4.837  25.518  0.00  0.00    +0.210 HD
ENDBRANCH  44  45
BRANCH  43  47
ATOM     47  O   UNL     1       3.888   6.052  23.816  0.00  0.00    -0.386 OA
ATOM     48  H   UNL     1       3.937   6.092  22.847  0.00  0.00    +0.210 HD
ENDBRANCH  43  47
BRANCH  42  49
ATOM     49  O   UNL     1       1.986   2.975  24.405  0.00  0.00    -0.386 OA
ATOM     50  H   UNL     1       1.292   2.496  23.915  0.00  0.00    +0.210 HD
ENDBRANCH  42  49
BRANCH  41  51
ATOM     51  C   UNL     1       1.513   2.775  21.632  0.00  0.00    +0.190 C 
BRANCH  51  52
ATOM     52  O   UNL     1       1.851   1.991  20.491  0.00  0.00    -0.392 OA
ATOM     53  H   UNL     1       2.731   2.260  20.181  0.00  0.00    +0.210 HD
ENDBRANCH  51  52
ENDBRANCH  41  51
ENDBRANCH  38  39
ENDBRANCH   4  38
BRANCH   5  54
ATOM     54  O   UNL     1       8.848   3.985  23.135  0.00  0.00    -0.457 OA
BRANCH  54  55
ATOM     55  C   UNL     1       9.523   4.325  24.361  0.00  0.00    +0.339 C 
ATOM     56  O   UNL     1       8.713   5.149  25.203  0.00  0.00    -0.331 OA
ATOM     57  C   UNL     1       8.847   6.567  25.050  0.00  0.00    +0.179 C 
ATOM     58  C   UNL     1      10.290   6.998  25.292  0.00  0.00    +0.177 C 
ATOM     59  C   UNL     1      11.180   6.370  24.226  0.00  0.00    +0.180 C 
ATOM     60  C   UNL     1      10.991   4.840  24.186  0.00  0.00    +0.214 C 
BRANCH  60  61
ATOM     61  O   UNL     1      11.661   4.274  23.054  0.00  0.00    -0.383 OA
ATOM     62  H   UNL     1      12.409   3.739  23.383  0.00  0.00    +0.210 HD
ENDBRANCH  60  61
BRANCH  59  63
ATOM     63  O   UNL     1      12.544   6.735  24.516  0.00  0.00    -0.386 OA
ATOM     64  H   UNL     1      12.727   7.582  24.071  0.00  0.00    +0.210 HD
ENDBRANCH  59  63
BRANCH  58  65
ATOM     65  O   UNL     1      10.722   6.548  26.590  0.00  0.00    -0.386 OA
ATOM     66  H   UNL     1      10.020   5.953  26.914  0.00  0.00    +0.210 HD
ENDBRANCH  58  65
BRANCH  57  67
ATOM     67  C   UNL     1       8.317   7.107  23.705  0.00  0.00    +0.190 C 
BRANCH  67  68
ATOM     68  O   UNL     1       7.089   6.511  23.314  0.00  0.00    -0.392 OA
ATOM     69  H   UNL     1       6.426   7.226  23.256  0.00  0.00    +0.210 HD
ENDBRANCH  67  68
ENDBRANCH  57  67
ENDBRANCH  54  55
ENDBRANCH   5  54
TORSDOF 24
ENDMDL
MODEL 4
REMARK VINA RESULT:      -5.8      2.653      9.812
REMARK  Name = 
REMARK  24 active torsions:
REMARK  status: ('A' for Active; 'I' for Inactive)
REMARK    1  A    between atoms: C_3  and  O_50
REMARK    2  A    between atoms: C_4  and  O_35
REMARK    3  A    between atoms: C_6  and  C_7
REMARK    4  A    between atoms: C_8  and  O_20
REMARK    5  A    between atoms: C_12  and  O_19
REMARK    6  A    between atoms: C_14  and  O_18
REMARK    7  A    between atoms: O_20  and  C_21
REMARK    8  A    between atoms: C_23  and  O_34
REMARK    9  A    between atoms: C_24  and  O_33
REMARK   10  A    between atoms: C_26  and  O_32
REMARK   11  A    between atoms: C_28  and  C_30
REMARK   12  A    between atoms: C_30  and  O_31
REMARK   13  A    between atoms: O_35  and  C_36
REMARK   14  A    between atoms: C_38  and  O_49
REMARK   15  A    between atoms: C_39  and  O_48
REMARK   16  A    between atoms: C_41  and  O_47
REMARK   17  A    between atoms: C_43  and  C_45
REMARK   18  A    between atoms: C_45  and  O_46
REMARK   19  A    between atoms: O_50  and  C_51
REMARK   20  A    between atoms: C_53  and  O_64
REMARK   21  A    between atoms: C_54  and  O_63
REMARK   22  A    between atoms: C_55  and  O_62
REMARK   23  A    between atoms: C_57  and  C_60
REMARK   24  A    between atoms: C_60  and  O_61
REMARK                            x       y       z     vdW  Elec       q    Type
REMARK                         _______ _______ _______ _____ _____    ______ ____
ROOT
ATOM      1  C   UNL     1       3.931   0.469  27.645  0.00  0.00    +0.015 A 
ATOM      2  C   UNL     1       5.147   0.843  27.073  0.00  0.00    +0.025 A 
ATOM      3  C   UNL     1       6.060  -0.185  26.784  0.00  0.00    +0.061 A 
ATOM      4  C   UNL     1       5.830  -1.535  27.175  0.00  0.00    +0.166 A 
ATOM      5  C   UNL     1       4.685  -1.860  27.900  0.00  0.00    +0.166 A 
ATOM      6  C   UNL     1       3.704  -0.862  28.049  0.00  0.00    +0.050 A 
ENDROOT
BRANCH   2   7
ATOM      7  C   UNL     1       5.496   2.283  26.917  0.00  0.00    +0.181 A 
ATOM      8  O   UNL     1       5.536   3.005  28.110  0.00  0.00    -0.451 OA
ATOM      9  C   UNL     1       5.887   4.339  28.075  0.00  0.00    +0.147 A 
ATOM     10  C   UNL     1       6.248   5.001  26.904  0.00  0.00    +0.109 A 
ATOM     11  C   UNL     1       6.575   6.375  26.943  0.00  0.00    +0.135 A 
ATOM     12  C   UNL     1       6.534   7.090  28.134  0.00  0.00    +0.091 A 
ATOM     13  C   UNL     1       6.182   6.421  29.287  0.00  0.00    +0.124 A 
ATOM     14  C   UNL     1       6.230   4.223  25.658  0.00  0.00    +0.238 A 
ATOM     15  O   UNL     1       6.560   4.768  24.611  0.00  0.00    -0.283 OA
ATOM     16  C   UNL     1       5.875   5.055  29.276  0.00  0.00    +0.092 A 
ATOM     17  C   UNL     1       5.764   2.797  25.694  0.00  0.00    +0.214 A 
BRANCH  11  18
ATOM     18  O   UNL     1       6.950   7.104  25.848  0.00  0.00    -0.506 OA
ATOM     19  H   UNL     1       7.922   7.036  25.736  0.00  0.00    +0.292 HD
ENDBRANCH  11  18
BRANCH  13  20
ATOM     20  O   UNL     1       6.118   7.063  30.485  0.00  0.00    -0.507 OA
ATOM     21  H   UNL     1       5.484   7.806  30.442  0.00  0.00    +0.292 HD
ENDBRANCH  13  20
BRANCH  17  22
ATOM     22  O   UNL     1       5.877   2.011  24.546  0.00  0.00    -0.453 OA
BRANCH  22  23
ATOM     23  C   UNL     1       7.071   1.207  24.341  0.00  0.00    +0.340 C 
ATOM     24  O   UNL     1       8.222   2.008  24.668  0.00  0.00    -0.331 OA
ATOM     25  C   UNL     1       9.064   2.613  23.656  0.00  0.00    +0.179 C 
ATOM     26  C   UNL     1       8.625   2.595  22.158  0.00  0.00    +0.177 C 
ATOM     27  C   UNL     1       7.257   1.951  21.966  0.00  0.00    +0.180 C 
ATOM     28  C   UNL     1       7.218   0.720  22.896  0.00  0.00    +0.214 C 
BRANCH  28  29
ATOM     29  O   UNL     1       6.301  -0.286  22.494  0.00  0.00    -0.383 OA
ATOM     30  H   UNL     1       6.143  -0.204  21.536  0.00  0.00    +0.210 HD
ENDBRANCH  28  29
BRANCH  27  31
ATOM     31  O   UNL     1       6.253   2.946  22.195  0.00  0.00    -0.386 OA
ATOM     32  H   UNL     1       5.370   2.528  22.150  0.00  0.00    +0.210 HD
ENDBRANCH  27  31
BRANCH  26  33
ATOM     33  O   UNL     1       9.584   1.909  21.336  0.00  0.00    -0.386 OA
ATOM     34  H   UNL     1      10.415   2.421  21.349  0.00  0.00    +0.210 HD
ENDBRANCH  26  33
BRANCH  25  35
ATOM     35  C   UNL     1      10.530   2.124  23.816  0.00  0.00    +0.190 C 
BRANCH  35  36
ATOM     36  O   UNL     1      10.597   0.695  23.869  0.00  0.00    -0.392 OA
ATOM     37  H   UNL     1      10.718   0.383  22.953  0.00  0.00    +0.210 HD
ENDBRANCH  35  36
ENDBRANCH  25  35
ENDBRANCH  22  23
ENDBRANCH  17  22
ENDBRANCH   2   7
BRANCH   4  38
ATOM     38  O   UNL     1       6.881  -2.364  26.939  0.00  0.00    -0.457 OA
BRANCH  38  39
ATOM     39  C   UNL     1       7.256  -2.878  25.654  0.00  0.00    +0.339 C 
ATOM     40  O   UNL     1       6.189  -3.394  24.825  0.00  0.00    -0.331 OA
ATOM     41  C   UNL     1       6.682  -4.403  23.907  0.00  0.00    +0.179 C 
ATOM     42  C   UNL     1       7.847  -3.900  23.015  0.00  0.00    +0.177 C 
ATOM     43  C   UNL     1       8.921  -3.142  23.823  0.00  0.00    +0.180 C 
ATOM     44  C   UNL     1       8.270  -2.105  24.777  0.00  0.00    +0.214 C 
BRANCH  44  45
ATOM     45  O   UNL     1       9.283  -1.415  25.506  0.00  0.00    -0.383 OA
ATOM     46  H   UNL     1       8.950  -0.526  25.718  0.00  0.00    +0.210 HD
ENDBRANCH  44  45
BRANCH  43  47
ATOM     47  O   UNL     1       9.777  -4.054  24.538  0.00  0.00    -0.386 OA
ATOM     48  H   UNL     1       9.271  -4.610  25.153  0.00  0.00    +0.210 HD
ENDBRANCH  43  47
BRANCH  42  49
ATOM     49  O   UNL     1       7.339  -3.026  22.001  0.00  0.00    -0.386 OA
ATOM     50  H   UNL     1       6.393  -2.865  22.174  0.00  0.00    +0.210 HD
ENDBRANCH  42  49
BRANCH  41  51
ATOM     51  C   UNL     1       5.525  -4.929  23.020  0.00  0.00    +0.190 C 
BRANCH  51  52
ATOM     52  O   UNL     1       5.987  -5.620  21.862  0.00  0.00    -0.392 OA
ATOM     53  H   UNL     1       6.029  -6.569  22.065  0.00  0.00    +0.210 HD
ENDBRANCH  51  52
ENDBRANCH  41  51
ENDBRANCH  38  39
ENDBRANCH   4  38
BRANCH   5  54
ATOM     54  O   UNL     1       4.640  -3.097  28.519  0.00  0.00    -0.457 OA
BRANCH  54  55
ATOM     55  C   UNL     1       4.345  -4.213  27.658  0.00  0.00    +0.339 C 
ATOM     56  O   UNL     1       2.959  -4.558  27.692  0.00  0.00    -0.331 OA
ATOM     57  C   UNL     1       2.556  -5.541  28.655  0.00  0.00    +0.179 C 
ATOM     58  C   UNL     1       3.317  -6.846  28.439  0.00  0.00    +0.177 C 
ATOM     59  C   UNL     1       4.801  -6.599  28.680  0.00  0.00    +0.180 C 
ATOM     60  C   UNL     1       5.312  -5.435  27.806  0.00  0.00    +0.214 C 
BRANCH  60  61
ATOM     61  O   UNL     1       6.644  -5.065  28.180  0.00  0.00    -0.383 OA
ATOM     62  H   UNL     1       7.138  -5.883  28.383  0.00  0.00    +0.210 HD
ENDBRANCH  60  61
BRANCH  59  63
ATOM     63  O   UNL     1       5.505  -7.826  28.403  0.00  0.00    -0.386 OA
ATOM     64  H   UNL     1       5.254  -8.474  29.085  0.00  0.00    +0.210 HD
ENDBRANCH  59  63
BRANCH  58  65
ATOM     65  O   UNL     1       3.128  -7.301  27.086  0.00  0.00    -0.386 OA
ATOM     66  H   UNL     1       3.593  -6.658  26.520  0.00  0.00    +0.210 HD
ENDBRANCH  58  65
BRANCH  57  67
ATOM     67  C   UNL     1       2.660  -5.065  30.119  0.00  0.00    +0.190 C 
BRANCH  67  68
ATOM     68  O   UNL     1       2.342  -3.690  30.279  0.00  0.00    -0.392 OA
ATOM     69  H   UNL     1       3.085  -3.275  30.758  0.00  0.00    +0.210 HD
ENDBRANCH  67  68
ENDBRANCH  57  67
ENDBRANCH  54  55
ENDBRANCH   5  54
TORSDOF 24
ENDMDL
MODEL 5
REMARK VINA RESULT:      -5.6      2.397      9.022
REMARK  Name = 
REMARK  24 active torsions:
REMARK  status: ('A' for Active; 'I' for Inactive)
REMARK    1  A    between atoms: C_3  and  O_50
REMARK    2  A    between atoms: C_4  and  O_35
REMARK    3  A    between atoms: C_6  and  C_7
REMARK    4  A    between atoms: C_8  and  O_20
REMARK    5  A    between atoms: C_12  and  O_19
REMARK    6  A    between atoms: C_14  and  O_18
REMARK    7  A    between atoms: O_20  and  C_21
REMARK    8  A    between atoms: C_23  and  O_34
REMARK    9  A    between atoms: C_24  and  O_33
REMARK   10  A    between atoms: C_26  and  O_32
REMARK   11  A    between atoms: C_28  and  C_30
REMARK   12  A    between atoms: C_30  and  O_31
REMARK   13  A    between atoms: O_35  and  C_36
REMARK   14  A    between atoms: C_38  and  O_49
REMARK   15  A    between atoms: C_39  and  O_48
REMARK   16  A    between atoms: C_41  and  O_47
REMARK   17  A    between atoms: C_43  and  C_45
REMARK   18  A    between atoms: C_45  and  O_46
REMARK   19  A    between atoms: O_50  and  C_51
REMARK   20  A    between atoms: C_53  and  O_64
REMARK   21  A    between atoms: C_54  and  O_63
REMARK   22  A    between atoms: C_55  and  O_62
REMARK   23  A    between atoms: C_57  and  C_60
REMARK   24  A    between atoms: C_60  and  O_61
REMARK                            x       y       z     vdW  Elec       q    Type
REMARK                         _______ _______ _______ _____ _____    ______ ____
ROOT
ATOM      1  C   UNL     1       7.583  -1.145  26.375  0.00  0.00    +0.015 A 
ATOM      2  C   UNL     1       6.944   0.065  26.108  0.00  0.00    +0.025 A 
ATOM      3  C   UNL     1       5.560   0.123  26.342  0.00  0.00    +0.061 A 
ATOM      4  C   UNL     1       4.804  -1.029  26.705  0.00  0.00    +0.166 A 
ATOM      5  C   UNL     1       5.435  -2.268  26.799  0.00  0.00    +0.166 A 
ATOM      6  C   UNL     1       6.839  -2.291  26.718  0.00  0.00    +0.050 A 
ENDROOT
BRANCH   2   7
ATOM      7  C   UNL     1       7.688   1.187  25.469  0.00  0.00    +0.181 A 
ATOM      8  O   UNL     1       7.491   2.433  26.066  0.00  0.00    -0.451 OA
ATOM      9  C   UNL     1       8.166   3.529  25.570  0.00  0.00    +0.147 A 
ATOM     10  C   UNL     1       9.077   3.450  24.519  0.00  0.00    +0.109 A 
ATOM     11  C   UNL     1       9.715   4.621  24.051  0.00  0.00    +0.135 A 
ATOM     12  C   UNL     1       9.444   5.862  24.614  0.00  0.00    +0.091 A 
ATOM     13  C   UNL     1       8.546   5.924  25.658  0.00  0.00    +0.124 A 
ATOM     14  C   UNL     1       9.298   2.129  23.917  0.00  0.00    +0.238 A 
ATOM     15  O   UNL     1      10.107   2.020  23.002  0.00  0.00    -0.283 OA
ATOM     16  C   UNL     1       7.917   4.775  26.153  0.00  0.00    +0.092 A 
ATOM     17  C   UNL     1       8.495   0.959  24.406  0.00  0.00    +0.214 A 
BRANCH  11  18
ATOM     18  O   UNL     1      10.629   4.639  23.033  0.00  0.00    -0.506 OA
ATOM     19  H   UNL     1      11.527   4.518  23.407  0.00  0.00    +0.292 HD
ENDBRANCH  11  18
BRANCH  13  20
ATOM     20  O   UNL     1       8.231   7.108  26.251  0.00  0.00    -0.507 OA
ATOM     21  H   UNL     1       8.455   7.085  27.202  0.00  0.00    +0.292 HD
ENDBRANCH  13  20
BRANCH  17  22
ATOM     22  O   UNL     1       8.798  -0.321  23.940  0.00  0.00    -0.453 OA
BRANCH  22  23
ATOM     23  C   UNL     1       8.210  -0.791  22.696  0.00  0.00    +0.340 C 
ATOM     24  O   UNL     1       6.882  -1.274  22.974  0.00  0.00    -0.331 OA
ATOM     25  C   UNL     1       6.568  -2.685  23.071  0.00  0.00    +0.179 C 
ATOM     26  C   UNL     1       7.717  -3.743  23.091  0.00  0.00    +0.177 C 
ATOM     27  C   UNL     1       9.097  -3.095  23.059  0.00  0.00    +0.180 C 
ATOM     28  C   UNL     1       9.010  -1.928  22.054  0.00  0.00    +0.214 C 
BRANCH  28  29
ATOM     29  O   UNL     1      10.256  -1.553  21.487  0.00  0.00    -0.383 OA
ATOM     30  H   UNL     1      10.233  -0.603  21.274  0.00  0.00    +0.210 HD
ENDBRANCH  28  29
BRANCH  27  31
ATOM     31  O   UNL     1       9.463  -2.748  24.399  0.00  0.00    -0.386 OA
ATOM     32  H   UNL     1      10.072  -1.982  24.377  0.00  0.00    +0.210 HD
ENDBRANCH  27  31
BRANCH  26  33
ATOM     33  O   UNL     1       7.606  -4.661  21.990  0.00  0.00    -0.386 OA
ATOM     34  H   UNL     1       6.977  -4.286  21.346  0.00  0.00    +0.210 HD
ENDBRANCH  26  33
BRANCH  25  35
ATOM     35  C   UNL     1       5.476  -3.064  22.035  0.00  0.00    +0.190 C 
BRANCH  35  36
ATOM     36  O   UNL     1       4.883  -4.330  22.345  0.00  0.00    -0.392 OA
ATOM     37  H   UNL     1       4.891  -4.856  21.525  0.00  0.00    +0.210 HD
ENDBRANCH  35  36
ENDBRANCH  25  35
ENDBRANCH  22  23
ENDBRANCH  17  22
ENDBRANCH   2   7
BRANCH   4  38
ATOM     38  O   UNL     1       3.463  -0.815  26.752  0.00  0.00    -0.457 OA
BRANCH  38  39
ATOM     39  C   UNL     1       2.835   0.427  27.091  0.00  0.00    +0.339 C 
ATOM     40  O   UNL     1       2.938   1.493  26.118  0.00  0.00    -0.331 OA
ATOM     41  C   UNL     1       2.857   2.793  26.756  0.00  0.00    +0.179 C 
ATOM     42  C   UNL     1       1.573   2.977  27.607  0.00  0.00    +0.177 C 
ATOM     43  C   UNL     1       1.290   1.762  28.515  0.00  0.00    +0.180 C 
ATOM     44  C   UNL     1       1.422   0.434  27.723  0.00  0.00    +0.214 C 
BRANCH  44  45
ATOM     45  O   UNL     1       1.150  -0.671  28.582  0.00  0.00    -0.383 OA
ATOM     46  H   UNL     1       1.147  -1.480  28.043  0.00  0.00    +0.210 HD
ENDBRANCH  44  45
BRANCH  43  47
ATOM     47  O   UNL     1       2.140   1.771  29.678  0.00  0.00    -0.386 OA
ATOM     48  H   UNL     1       2.959   1.273  29.525  0.00  0.00    +0.210 HD
ENDBRANCH  43  47
BRANCH  42  49
ATOM     49  O   UNL     1       0.446   3.175  26.747  0.00  0.00    -0.386 OA
ATOM     50  H   UNL     1      -0.317   3.447  27.291  0.00  0.00    +0.210 HD
ENDBRANCH  42  49
BRANCH  41  51
ATOM     51  C   UNL     1       2.954   3.917  25.693  0.00  0.00    +0.190 C 
BRANCH  51  52
ATOM     52  O   UNL     1       2.505   5.179  26.182  0.00  0.00    -0.392 OA
ATOM     53  H   UNL     1       1.958   5.028  26.969  0.00  0.00    +0.210 HD
ENDBRANCH  51  52
ENDBRANCH  41  51
ENDBRANCH  38  39
ENDBRANCH   4  38
BRANCH   5  54
ATOM     54  O   UNL     1       4.637  -3.398  26.851  0.00  0.00    -0.457 OA
BRANCH  54  55
ATOM     55  C   UNL     1       4.587  -4.180  25.643  0.00  0.00    +0.339 C 
ATOM     56  O   UNL     1       3.464  -3.832  24.830  0.00  0.00    -0.331 OA
ATOM     57  C   UNL     1       2.254  -4.572  25.040  0.00  0.00    +0.179 C 
ATOM     58  C   UNL     1       2.494  -6.063  24.821  0.00  0.00    +0.177 C 
ATOM     59  C   UNL     1       3.485  -6.563  25.866  0.00  0.00    +0.180 C 
ATOM     60  C   UNL     1       4.777  -5.720  25.844  0.00  0.00    +0.214 C 
BRANCH  60  61
ATOM     61  O   UNL     1       5.617  -6.049  26.956  0.00  0.00    -0.383 OA
ATOM     62  H   UNL     1       5.886  -5.215  27.388  0.00  0.00    +0.210 HD
ENDBRANCH  60  61
BRANCH  59  63
ATOM     63  O   UNL     1       3.748  -7.955  25.597  0.00  0.00    -0.386 OA
ATOM     64  H   UNL     1       4.306  -8.004  24.800  0.00  0.00    +0.210 HD
ENDBRANCH  59  63
BRANCH  58  65
ATOM     65  O   UNL     1       3.044  -6.280  23.508  0.00  0.00    -0.386 OA
ATOM     66  H   UNL     1       3.856  -6.805  23.642  0.00  0.00    +0.210 HD
ENDBRANCH  58  65
BRANCH  57  67
ATOM     67  C   UNL     1       1.582  -4.304  26.403  0.00  0.00    +0.190 C 
BRANCH  67  68
ATOM     68  O   UNL     1       1.625  -2.937  26.783  0.00  0.00    -0.392 OA
ATOM     69  H   UNL     1       1.257  -2.419  26.042  0.00  0.00    +0.210 HD
ENDBRANCH  67  68
ENDBRANCH  57  67
ENDBRANCH  54  55
ENDBRANCH   5  54
TORSDOF 24
ENDMDL
MODEL 6
REMARK VINA RESULT:      -5.5      3.140      9.450
REMARK  Name = 
REMARK  24 active torsions:
REMARK  status: ('A' for Active; 'I' for Inactive)
REMARK    1  A    between atoms: C_3  and  O_50
REMARK    2  A    between atoms: C_4  and  O_35
REMARK    3  A    between atoms: C_6  and  C_7
REMARK    4  A    between atoms: C_8  and  O_20
REMARK    5  A    between atoms: C_12  and  O_19
REMARK    6  A    between atoms: C_14  and  O_18
REMARK    7  A    between atoms: O_20  and  C_21
REMARK    8  A    between atoms: C_23  and  O_34
REMARK    9  A    between atoms: C_24  and  O_33
REMARK   10  A    between atoms: C_26  and  O_32
REMARK   11  A    between atoms: C_28  and  C_30
REMARK   12  A    between atoms: C_30  and  O_31
REMARK   13  A    between atoms: O_35  and  C_36
REMARK   14  A    between atoms: C_38  and  O_49
REMARK   15  A    between atoms: C_39  and  O_48
REMARK   16  A    between atoms: C_41  and  O_47
REMARK   17  A    between atoms: C_43  and  C_45
REMARK   18  A    between atoms: C_45  and  O_46
REMARK   19  A    between atoms: O_50  and  C_51
REMARK   20  A    between atoms: C_53  and  O_64
REMARK   21  A    between atoms: C_54  and  O_63
REMARK   22  A    between atoms: C_55  and  O_62
REMARK   23  A    between atoms: C_57  and  C_60
REMARK   24  A    between atoms: C_60  and  O_61
REMARK                            x       y       z     vdW  Elec       q    Type
REMARK                         _______ _______ _______ _____ _____    ______ ____
ROOT
ATOM      1  C   UNL     1       6.885  -3.590  26.735  0.00  0.00    +0.015 A 
ATOM      2  C   UNL     1       6.424  -2.395  26.183  0.00  0.00    +0.025 A 
ATOM      3  C   UNL     1       5.220  -1.879  26.692  0.00  0.00    +0.061 A 
ATOM      4  C   UNL     1       4.424  -2.597  27.630  0.00  0.00    +0.166 A 
ATOM      5  C   UNL     1       4.817  -3.869  28.040  0.00  0.00    +0.166 A 
ATOM      6  C   UNL     1       6.094  -4.313  27.651  0.00  0.00    +0.050 A 
ENDROOT
BRANCH   2   7
ATOM      7  C   UNL     1       7.116  -1.788  25.012  0.00  0.00    +0.181 A 
ATOM      8  O   UNL     1       7.735  -0.565  25.270  0.00  0.00    -0.451 OA
ATOM      9  C   UNL     1       8.435   0.060  24.259  0.00  0.00    +0.147 A 
ATOM     10  C   UNL     1       8.593  -0.492  22.990  0.00  0.00    +0.109 A 
ATOM     11  C   UNL     1       9.307   0.217  21.998  0.00  0.00    +0.135 A 
ATOM     12  C   UNL     1       9.850   1.470  22.258  0.00  0.00    +0.091 A 
ATOM     13  C   UNL     1       9.691   2.001  23.521  0.00  0.00    +0.124 A 
ATOM     14  C   UNL     1       7.962  -1.793  22.738  0.00  0.00    +0.238 A 
ATOM     15  O   UNL     1       8.097  -2.317  21.638  0.00  0.00    -0.283 OA
ATOM     16  C   UNL     1       9.008   1.307  24.527  0.00  0.00    +0.092 A 
ATOM     17  C   UNL     1       7.131  -2.424  23.817  0.00  0.00    +0.214 A 
BRANCH  11  18
ATOM     18  O   UNL     1       9.521  -0.249  20.729  0.00  0.00    -0.506 OA
ATOM     19  H   UNL     1       9.487  -1.229  20.739  0.00  0.00    +0.292 HD
ENDBRANCH  11  18
BRANCH  13  20
ATOM     20  O   UNL     1      10.193   3.224  23.841  0.00  0.00    -0.507 OA
ATOM     21  H   UNL     1       9.492   3.904  23.801  0.00  0.00    +0.292 HD
ENDBRANCH  13  20
BRANCH  17  22
ATOM     22  O   UNL     1       6.646  -3.720  23.638  0.00  0.00    -0.453 OA
BRANCH  22  23
ATOM     23  C   UNL     1       5.415  -3.930  22.892  0.00  0.00    +0.340 C 
ATOM     24  O   UNL     1       4.303  -3.766  23.792  0.00  0.00    -0.331 OA
ATOM     25  C   UNL     1       3.571  -4.889  24.341  0.00  0.00    +0.179 C 
ATOM     26  C   UNL     1       4.104  -6.343  24.145  0.00  0.00    +0.177 C 
ATOM     27  C   UNL     1       5.435  -6.373  23.401  0.00  0.00    +0.180 C 
ATOM     28  C   UNL     1       5.329  -5.328  22.271  0.00  0.00    +0.214 C 
BRANCH  28  29
ATOM     29  O   UNL     1       6.200  -5.564  21.175  0.00  0.00    -0.383 OA
ATOM     30  H   UNL     1       5.766  -5.261  20.357  0.00  0.00    +0.210 HD
ENDBRANCH  28  29
BRANCH  27  31
ATOM     31  O   UNL     1       6.487  -6.171  24.350  0.00  0.00    -0.386 OA
ATOM     32  H   UNL     1       6.672  -5.213  24.426  0.00  0.00    +0.210 HD
ENDBRANCH  27  31
BRANCH  26  33
ATOM     33  O   UNL     1       3.156  -7.161  23.438  0.00  0.00    -0.386 OA
ATOM     34  H   UNL     1       3.508  -7.328  22.544  0.00  0.00    +0.210 HD
ENDBRANCH  26  33
BRANCH  25  35
ATOM     35  C   UNL     1       2.069  -4.787  23.962  0.00  0.00    +0.190 C 
BRANCH  35  36
ATOM     36  O   UNL     1       1.262  -5.612  24.810  0.00  0.00    -0.392 OA
ATOM     37  H   UNL     1       0.366  -5.621  24.427  0.00  0.00    +0.210 HD
ENDBRANCH  35  36
ENDBRANCH  25  35
ENDBRANCH  22  23
ENDBRANCH  17  22
ENDBRANCH   2   7
BRANCH   4  38
ATOM     38  O   UNL     1       3.228  -2.009  27.901  0.00  0.00    -0.457 OA
BRANCH  38  39
ATOM     39  C   UNL     1       2.884  -0.653  27.591  0.00  0.00    +0.339 C 
ATOM     40  O   UNL     1       3.608  -0.033  26.502  0.00  0.00    -0.331 OA
ATOM     41  C   UNL     1       3.665   1.408  26.666  0.00  0.00    +0.179 C 
ATOM     42  C   UNL     1       2.265   2.061  26.811  0.00  0.00    +0.177 C 
ATOM     43  C   UNL     1       1.363   1.305  27.808  0.00  0.00    +0.180 C 
ATOM     44  C   UNL     1       1.398  -0.224  27.540  0.00  0.00    +0.214 C 
BRANCH  44  45
ATOM     45  O   UNL     1       0.552  -0.898  28.470  0.00  0.00    -0.383 OA
ATOM     46  H   UNL     1       0.447  -1.817  28.172  0.00  0.00    +0.210 HD
ENDBRANCH  44  45
BRANCH  43  47
ATOM     47  O   UNL     1       1.718   1.612  29.170  0.00  0.00    -0.386 OA
ATOM     48  H   UNL     1       0.971   1.470  29.774  0.00  0.00    +0.210 HD
ENDBRANCH  43  47
BRANCH  42  49
ATOM     49  O   UNL     1       1.611   2.093  25.538  0.00  0.00    -0.386 OA
ATOM     50  H   UNL     1       0.816   2.654  25.610  0.00  0.00    +0.210 HD
ENDBRANCH  42  49
BRANCH  41  51
ATOM     51  C   UNL     1       4.430   2.050  25.481  0.00  0.00    +0.190 C 
BRANCH  51  52
ATOM     52  O   UNL     1       5.023   1.083  24.619  0.00  0.00    -0.392 OA
ATOM     53  H   UNL     1       5.216   1.506  23.767  0.00  0.00    +0.210 HD
ENDBRANCH  51  52
ENDBRANCH  41  51
ENDBRANCH  38  39
ENDBRANCH   4  38
BRANCH   5  54
ATOM     54  O   UNL     1       3.886  -4.652  28.700  0.00  0.00    -0.457 OA
BRANCH  54  55
ATOM     55  C   UNL     1       3.159  -5.583  27.877  0.00  0.00    +0.339 C 
ATOM     56  O   UNL     1       1.880  -5.070  27.499  0.00  0.00    -0.331 OA
ATOM     57  C   UNL     1       0.774  -5.380  28.356  0.00  0.00    +0.179 C 
ATOM     58  C   UNL     1       0.606  -6.890  28.489  0.00  0.00    +0.177 C 
ATOM     59  C   UNL     1       1.844  -7.468  29.166  0.00  0.00    +0.180 C 
ATOM     60  C   UNL     1       3.125  -7.053  28.412  0.00  0.00    +0.214 C 
BRANCH  60  61
ATOM     61  O   UNL     1       4.293  -7.414  29.158  0.00  0.00    -0.383 OA
ATOM     62  H   UNL     1       4.942  -7.794  28.535  0.00  0.00    +0.210 HD
ENDBRANCH  60  61
BRANCH  59  63
ATOM     63  O   UNL     1       1.693  -8.901  29.218  0.00  0.00    -0.386 OA
ATOM     64  H   UNL     1       0.818  -9.094  29.599  0.00  0.00    +0.210 HD
ENDBRANCH  59  63
BRANCH  58  65
ATOM     65  O   UNL     1       0.464  -7.482  27.184  0.00  0.00    -0.386 OA
ATOM     66  H   UNL     1       1.371  -7.646  26.865  0.00  0.00    +0.210 HD
ENDBRANCH  58  65
BRANCH  57  67
ATOM     67  C   UNL     1       0.841  -4.697  29.739  0.00  0.00    +0.190 C 
BRANCH  67  68
ATOM     68  O   UNL     1       1.342  -3.371  29.678  0.00  0.00    -0.392 OA
ATOM     69  H   UNL     1       1.438  -3.055  30.597  0.00  0.00    +0.210 HD
ENDBRANCH  67  68
ENDBRANCH  57  67
ENDBRANCH  54  55
ENDBRANCH   5  54
TORSDOF 24
ENDMDL
MODEL 7
REMARK VINA RESULT:      -5.4      2.717      9.831
REMARK  Name = 
REMARK  24 active torsions:
REMARK  status: ('A' for Active; 'I' for Inactive)
REMARK    1  A    between atoms: C_3  and  O_50
REMARK    2  A    between atoms: C_4  and  O_35
REMARK    3  A    between atoms: C_6  and  C_7
REMARK    4  A    between atoms: C_8  and  O_20
REMARK    5  A    between atoms: C_12  and  O_19
REMARK    6  A    between atoms: C_14  and  O_18
REMARK    7  A    between atoms: O_20  and  C_21
REMARK    8  A    between atoms: C_23  and  O_34
REMARK    9  A    between atoms: C_24  and  O_33
REMARK   10  A    between atoms: C_26  and  O_32
REMARK   11  A    between atoms: C_28  and  C_30
REMARK   12  A    between atoms: C_30  and  O_31
REMARK   13  A    between atoms: O_35  and  C_36
REMARK   14  A    between atoms: C_38  and  O_49
REMARK   15  A    between atoms: C_39  and  O_48
REMARK   16  A    between atoms: C_41  and  O_47
REMARK   17  A    between atoms: C_43  and  C_45
REMARK   18  A    between atoms: C_45  and  O_46
REMARK   19  A    between atoms: O_50  and  C_51
REMARK   20  A    between atoms: C_53  and  O_64
REMARK   21  A    between atoms: C_54  and  O_63
REMARK   22  A    between atoms: C_55  and  O_62
REMARK   23  A    between atoms: C_57  and  C_60
REMARK   24  A    between atoms: C_60  and  O_61
REMARK                            x       y       z     vdW  Elec       q    Type
REMARK                         _______ _______ _______ _____ _____    ______ ____
ROOT
ATOM      1  C   UNL     1       5.614   0.078  27.790  0.00  0.00    +0.015 A 
ATOM      2  C   UNL     1       5.006   0.533  26.621  0.00  0.00    +0.025 A 
ATOM      3  C   UNL     1       4.306  -0.413  25.854  0.00  0.00    +0.061 A 
ATOM      4  C   UNL     1       4.319  -1.802  26.168  0.00  0.00    +0.166 A 
ATOM      5  C   UNL     1       5.076  -2.261  27.245  0.00  0.00    +0.166 A 
ATOM      6  C   UNL     1       5.645  -1.296  28.098  0.00  0.00    +0.050 A 
ENDROOT
BRANCH   2   7
ATOM      7  C   UNL     1       5.224   1.931  26.151  0.00  0.00    +0.181 A 
ATOM      8  O   UNL     1       4.183   2.813  26.443  0.00  0.00    -0.451 OA
ATOM      9  C   UNL     1       4.306   4.139  26.082  0.00  0.00    +0.147 A 
ATOM     10  C   UNL     1       5.446   4.659  25.473  0.00  0.00    +0.109 A 
ATOM     11  C   UNL     1       5.490   6.025  25.114  0.00  0.00    +0.135 A 
ATOM     12  C   UNL     1       4.409   6.866  25.346  0.00  0.00    +0.091 A 
ATOM     13  C   UNL     1       3.290   6.339  25.956  0.00  0.00    +0.124 A 
ATOM     14  C   UNL     1       6.547   3.728  25.198  0.00  0.00    +0.238 A 
ATOM     15  O   UNL     1       7.572   4.155  24.680  0.00  0.00    -0.283 OA
ATOM     16  C   UNL     1       3.231   4.994  26.342  0.00  0.00    +0.092 A 
ATOM     17  C   UNL     1       6.369   2.271  25.514  0.00  0.00    +0.214 A 
BRANCH  11  18
ATOM     18  O   UNL     1       6.568   6.625  24.522  0.00  0.00    -0.506 OA
ATOM     19  H   UNL     1       6.357   7.568  24.354  0.00  0.00    +0.292 HD
ENDBRANCH  11  18
BRANCH  13  20
ATOM     20  O   UNL     1       2.195   7.106  26.209  0.00  0.00    -0.507 OA
ATOM     21  H   UNL     1       2.054   7.750  25.487  0.00  0.00    +0.292 HD
ENDBRANCH  13  20
BRANCH  17  22
ATOM     22  O   UNL     1       7.457   1.406  25.388  0.00  0.00    -0.453 OA
BRANCH  22  23
ATOM     23  C   UNL     1       7.487   0.444  24.298  0.00  0.00    +0.340 C 
ATOM     24  O   UNL     1       8.141  -0.752  24.764  0.00  0.00    -0.331 OA
ATOM     25  C   UNL     1       9.510  -1.077  24.423  0.00  0.00    +0.179 C 
ATOM     26  C   UNL     1      10.409  -0.022  23.703  0.00  0.00    +0.177 C 
ATOM     27  C   UNL     1       9.688   1.305  23.497  0.00  0.00    +0.180 C 
ATOM     28  C   UNL     1       8.246   0.959  23.072  0.00  0.00    +0.214 C 
BRANCH  28  29
ATOM     29  O   UNL     1       7.593   1.984  22.336  0.00  0.00    -0.383 OA
ATOM     30  H   UNL     1       6.747   1.639  21.999  0.00  0.00    +0.210 HD
ENDBRANCH  28  29
BRANCH  27  31
ATOM     31  O   UNL     1       9.824   2.082  24.693  0.00  0.00    -0.386 OA
ATOM     32  H   UNL     1       9.379   1.617  25.430  0.00  0.00    +0.210 HD
ENDBRANCH  27  31
BRANCH  26  33
ATOM     33  O   UNL     1      10.870  -0.505  22.429  0.00  0.00    -0.386 OA
ATOM     34  H   UNL     1      11.843  -0.432  22.413  0.00  0.00    +0.210 HD
ENDBRANCH  26  33
BRANCH  25  35
ATOM     35  C   UNL     1       9.572  -2.451  23.701  0.00  0.00    +0.190 C 
BRANCH  35  36
ATOM     36  O   UNL     1       8.621  -2.519  22.633  0.00  0.00    -0.392 OA
ATOM     37  H   UNL     1       8.875  -1.838  21.984  0.00  0.00    +0.210 HD
ENDBRANCH  35  36
ENDBRANCH  25  35
ENDBRANCH  22  23
ENDBRANCH  17  22
ENDBRANCH   2   7
BRANCH   4  38
ATOM     38  O   UNL     1       3.706  -2.583  25.240  0.00  0.00    -0.457 OA
BRANCH  38  39
ATOM     39  C   UNL     1       4.290  -3.729  24.607  0.00  0.00    +0.339 C 
ATOM     40  O   UNL     1       3.429  -4.877  24.421  0.00  0.00    -0.331 OA
ATOM     41  C   UNL     1       4.198  -6.106  24.381  0.00  0.00    +0.179 C 
ATOM     42  C   UNL     1       5.309  -6.096  23.297  0.00  0.00    +0.177 C 
ATOM     43  C   UNL     1       6.128  -4.789  23.306  0.00  0.00    +0.180 C 
ATOM     44  C   UNL     1       5.196  -3.549  23.365  0.00  0.00    +0.214 C 
BRANCH  44  45
ATOM     45  O   UNL     1       5.977  -2.356  23.366  0.00  0.00    -0.383 OA
ATOM     46  H   UNL     1       6.813  -2.542  23.825  0.00  0.00    +0.210 HD
ENDBRANCH  44  45
BRANCH  43  47
ATOM     47  O   UNL     1       7.087  -4.782  24.380  0.00  0.00    -0.386 OA
ATOM     48  H   UNL     1       7.061  -3.947  24.876  0.00  0.00    +0.210 HD
ENDBRANCH  43  47
BRANCH  42  49
ATOM     49  O   UNL     1       4.723  -6.258  22.001  0.00  0.00    -0.386 OA
ATOM     50  H   UNL     1       3.864  -5.795  21.987  0.00  0.00    +0.210 HD
ENDBRANCH  42  49
BRANCH  41  51
ATOM     51  C   UNL     1       3.257  -7.318  24.164  0.00  0.00    +0.190 C 
BRANCH  51  52
ATOM     52  O   UNL     1       3.319  -8.262  25.231  0.00  0.00    -0.392 OA
ATOM     53  H   UNL     1       3.410  -7.776  26.068  0.00  0.00    +0.210 HD
ENDBRANCH  51  52
ENDBRANCH  41  51
ENDBRANCH  38  39
ENDBRANCH   4  38
BRANCH   5  54
ATOM     54  O   UNL     1       5.311  -3.621  27.338  0.00  0.00    -0.457 OA
BRANCH  54  55
ATOM     55  C   UNL     1       4.760  -4.270  28.500  0.00  0.00    +0.339 C 
ATOM     56  O   UNL     1       5.774  -4.894  29.291  0.00  0.00    -0.331 OA
ATOM     57  C   UNL     1       6.075  -6.265  29.000  0.00  0.00    +0.179 C 
ATOM     58  C   UNL     1       4.826  -7.130  29.146  0.00  0.00    +0.177 C 
ATOM     59  C   UNL     1       3.797  -6.692  28.110  0.00  0.00    +0.180 C 
ATOM     60  C   UNL     1       3.517  -5.179  28.221  0.00  0.00    +0.214 C 
BRANCH  60  61
ATOM     61  O   UNL     1       2.717  -4.728  27.123  0.00  0.00    -0.383 OA
ATOM     62  H   UNL     1       2.062  -5.424  26.921  0.00  0.00    +0.210 HD
ENDBRANCH  60  61
BRANCH  59  63
ATOM     63  O   UNL     1       2.604  -7.475  28.312  0.00  0.00    -0.386 OA
ATOM     64  H   UNL     1       2.275  -7.748  27.437  0.00  0.00    +0.210 HD
ENDBRANCH  59  63
BRANCH  58  65
ATOM     65  O   UNL     1       4.268  -6.963  30.463  0.00  0.00    -0.386 OA
ATOM     66  H   UNL     1       4.783  -7.549  31.048  0.00  0.00    +0.210 HD
ENDBRANCH  58  65
BRANCH  57  67
ATOM     67  C   UNL     1       6.754  -6.483  27.632  0.00  0.00    +0.190 C 
BRANCH  67  68
ATOM     68  O   UNL     1       7.762  -5.523  27.354  0.00  0.00    -0.392 OA
ATOM     69  H   UNL     1       8.529  -5.737  27.920  0.00  0.00    +0.210 HD
ENDBRANCH  67  68
ENDBRANCH  57  67
ENDBRANCH  54  55
ENDBRANCH   5  54
TORSDOF 24
ENDMDL
MODEL 8
REMARK VINA RESULT:      -5.2      2.734      9.215
REMARK  Name = 
REMARK  24 active torsions:
REMARK  status: ('A' for Active; 'I' for Inactive)
REMARK    1  A    between atoms: C_3  and  O_50
REMARK    2  A    between atoms: C_4  and  O_35
REMARK    3  A    between atoms: C_6  and  C_7
REMARK    4  A    between atoms: C_8  and  O_20
REMARK    5  A    between atoms: C_12  and  O_19
REMARK    6  A    between atoms: C_14  and  O_18
REMARK    7  A    between atoms: O_20  and  C_21
REMARK    8  A    between atoms: C_23  and  O_34
REMARK    9  A    between atoms: C_24  and  O_33
REMARK   10  A    between atoms: C_26  and  O_32
REMARK   11  A    between atoms: C_28  and  C_30
REMARK   12  A    between atoms: C_30  and  O_31
REMARK   13  A    between atoms: O_35  and  C_36
REMARK   14  A    between atoms: C_38  and  O_49
REMARK   15  A    between atoms: C_39  and  O_48
REMARK   16  A    between atoms: C_41  and  O_47
REMARK   17  A    between atoms: C_43  and  C_45
REMARK   18  A    between atoms: C_45  and  O_46
REMARK   19  A    between atoms: O_50  and  C_51
REMARK   20  A    between atoms: C_53  and  O_64
REMARK   21  A    between atoms: C_54  and  O_63
REMARK   22  A    between atoms: C_55  and  O_62
REMARK   23  A    between atoms: C_57  and  C_60
REMARK   24  A    between atoms: C_60  and  O_61
REMARK                            x       y       z     vdW  Elec       q    Type
REMARK                         _______ _______ _______ _____ _____    ______ ____
ROOT
ATOM      1  C   UNL     1       5.528   0.263  27.815  0.00  0.00    +0.015 A 
ATOM      2  C   UNL     1       4.359   0.490  27.090  0.00  0.00    +0.025 A 
ATOM      3  C   UNL     1       3.755  -0.626  26.487  0.00  0.00    +0.061 A 
ATOM      4  C   UNL     1       4.365  -1.913  26.489  0.00  0.00    +0.166 A 
ATOM      5  C   UNL     1       5.620  -2.081  27.072  0.00  0.00    +0.166 A 
ATOM      6  C   UNL     1       6.146  -1.003  27.808  0.00  0.00    +0.050 A 
ENDROOT
BRANCH   2   7
ATOM      7  C   UNL     1       3.871   1.879  26.860  0.00  0.00    +0.181 A 
ATOM      8  O   UNL     1       3.349   2.509  27.990  0.00  0.00    -0.451 OA
ATOM      9  C   UNL     1       2.906   3.811  27.888  0.00  0.00    +0.147 A 
ATOM     10  C   UNL     1       2.991   4.553  26.712  0.00  0.00    +0.109 A 
ATOM     11  C   UNL     1       2.495   5.876  26.678  0.00  0.00    +0.135 A 
ATOM     12  C   UNL     1       1.910   6.455  27.798  0.00  0.00    +0.091 A 
ATOM     13  C   UNL     1       1.840   5.711  28.957  0.00  0.00    +0.124 A 
ATOM     14  C   UNL     1       3.568   3.890  25.537  0.00  0.00    +0.238 A 
ATOM     15  O   UNL     1       3.676   4.520  24.491  0.00  0.00    -0.283 OA
ATOM     16  C   UNL     1       2.343   4.406  29.021  0.00  0.00    +0.092 A 
ATOM     17  C   UNL     1       3.968   2.447  25.634  0.00  0.00    +0.214 A 
BRANCH  11  18
ATOM     18  O   UNL     1       2.545   6.683  25.574  0.00  0.00    -0.506 OA
ATOM     19  H   UNL     1       1.848   6.404  24.943  0.00  0.00    +0.292 HD
ENDBRANCH  11  18
BRANCH  13  20
ATOM     20  O   UNL     1       1.275   6.215  30.087  0.00  0.00    -0.507 OA
ATOM     21  H   UNL     1       1.618   7.112  30.271  0.00  0.00    +0.292 HD
ENDBRANCH  13  20
BRANCH  17  22
ATOM     22  O   UNL     1       4.645   1.851  24.570  0.00  0.00    -0.453 OA
BRANCH  22  23
ATOM     23  C   UNL     1       6.082   1.646  24.658  0.00  0.00    +0.340 C 
ATOM     24  O   UNL     1       6.700   2.897  25.015  0.00  0.00    -0.331 OA
ATOM     25  C   UNL     1       7.383   3.734  24.050  0.00  0.00    +0.179 C 
ATOM     26  C   UNL     1       7.289   3.409  22.526  0.00  0.00    +0.177 C 
ATOM     27  C   UNL     1       6.387   2.212  22.246  0.00  0.00    +0.180 C 
ATOM     28  C   UNL     1       6.695   1.167  23.338  0.00  0.00    +0.214 C 
BRANCH  28  29
ATOM     29  O   UNL     1       6.386  -0.169  22.971  0.00  0.00    -0.383 OA
ATOM     30  H   UNL     1       5.466  -0.362  23.227  0.00  0.00    +0.210 HD
ENDBRANCH  28  29
BRANCH  27  31
ATOM     31  O   UNL     1       5.033   2.673  22.179  0.00  0.00    -0.386 OA
ATOM     32  H   UNL     1       4.601   2.526  23.045  0.00  0.00    +0.210 HD
ENDBRANCH  27  31
BRANCH  26  33
ATOM     33  O   UNL     1       8.586   3.158  21.959  0.00  0.00    -0.386 OA
ATOM     34  H   UNL     1       8.741   2.195  21.974  0.00  0.00    +0.210 HD
ENDBRANCH  26  33
BRANCH  25  35
ATOM     35  C   UNL     1       8.857   3.959  24.484  0.00  0.00    +0.190 C 
BRANCH  35  36
ATOM     36  O   UNL     1       9.575   2.721  24.545  0.00  0.00    -0.392 OA
ATOM     37  H   UNL     1       9.537   2.328  23.655  0.00  0.00    +0.210 HD
ENDBRANCH  35  36
ENDBRANCH  25  35
ENDBRANCH  22  23
ENDBRANCH  17  22
ENDBRANCH   2   7
BRANCH   4  38
ATOM     38  O   UNL     1       3.708  -2.836  25.739  0.00  0.00    -0.457 OA
BRANCH  38  39
ATOM     39  C   UNL     1       3.660  -4.242  26.014  0.00  0.00    +0.339 C 
ATOM     40  O   UNL     1       3.334  -4.627  27.370  0.00  0.00    -0.331 OA
ATOM     41  C   UNL     1       3.900  -5.922  27.696  0.00  0.00    +0.179 C 
ATOM     42  C   UNL     1       3.470  -7.041  26.711  0.00  0.00    +0.177 C 
ATOM     43  C   UNL     1       3.591  -6.605  25.236  0.00  0.00    +0.180 C 
ATOM     44  C   UNL     1       2.964  -5.202  25.019  0.00  0.00    +0.214 C 
BRANCH  44  45
ATOM     45  O   UNL     1       3.083  -4.825  23.648  0.00  0.00    -0.383 OA
ATOM     46  H   UNL     1       3.755  -4.125  23.584  0.00  0.00    +0.210 HD
ENDBRANCH  44  45
BRANCH  43  47
ATOM     47  O   UNL     1       4.960  -6.649  24.789  0.00  0.00    -0.386 OA
ATOM     48  H   UNL     1       5.348  -7.530  24.918  0.00  0.00    +0.210 HD
ENDBRANCH  43  47
BRANCH  42  49
ATOM     49  O   UNL     1       2.112  -7.416  26.966  0.00  0.00    -0.386 OA
ATOM     50  H   UNL     1       1.777  -7.914  26.197  0.00  0.00    +0.210 HD
ENDBRANCH  42  49
BRANCH  41  51
ATOM     51  C   UNL     1       3.525  -6.319  29.146  0.00  0.00    +0.190 C 
BRANCH  51  52
ATOM     52  O   UNL     1       3.813  -7.685  29.436  0.00  0.00    -0.392 OA
ATOM     53  H   UNL     1       4.599  -7.948  28.931  0.00  0.00    +0.210 HD
ENDBRANCH  51  52
ENDBRANCH  41  51
ENDBRANCH  38  39
ENDBRANCH   4  38
BRANCH   5  54
ATOM     54  O   UNL     1       6.311  -3.248  26.795  0.00  0.00    -0.457 OA
BRANCH  54  55
ATOM     55  C   UNL     1       7.674  -3.077  26.366  0.00  0.00    +0.339 C 
ATOM     56  O   UNL     1       7.758  -2.339  25.145  0.00  0.00    -0.331 OA
ATOM     57  C   UNL     1       7.752  -3.093  23.926  0.00  0.00    +0.179 C 
ATOM     58  C   UNL     1       8.911  -4.086  23.906  0.00  0.00    +0.177 C 
ATOM     59  C   UNL     1       8.717  -5.096  25.031  0.00  0.00    +0.180 C 
ATOM     60  C   UNL     1       8.542  -4.379  26.386  0.00  0.00    +0.214 C 
BRANCH  60  61
ATOM     61  O   UNL     1       8.152  -5.308  27.405  0.00  0.00    -0.383 OA
ATOM     62  H   UNL     1       8.891  -5.387  28.039  0.00  0.00    +0.210 HD
ENDBRANCH  60  61
BRANCH  59  63
ATOM     63  O   UNL     1       9.856  -5.980  25.034  0.00  0.00    -0.386 OA
ATOM     64  H   UNL     1      10.352  -5.822  25.857  0.00  0.00    +0.210 HD
ENDBRANCH  59  63
BRANCH  58  65
ATOM     65  O   UNL     1      10.154  -3.389  24.108  0.00  0.00    -0.386 OA
ATOM     66  H   UNL     1      10.170  -3.138  25.050  0.00  0.00    +0.210 HD
ENDBRANCH  58  65
BRANCH  57  67
ATOM     67  C   UNL     1       6.409  -3.789  23.625  0.00  0.00    +0.190 C 
BRANCH  67  68
ATOM     68  O   UNL     1       5.388  -2.880  23.240  0.00  0.00    -0.392 OA
ATOM     69  H   UNL     1       5.790  -2.237  22.624  0.00  0.00    +0.210 HD
ENDBRANCH  67  68
ENDBRANCH  57  67
ENDBRANCH  54  55
ENDBRANCH   5  54
TORSDOF 24
ENDMDL
MODEL 9
REMARK VINA RESULT:      -5.2      2.699      9.942
REMARK  Name = 
REMARK  24 active torsions:
REMARK  status: ('A' for Active; 'I' for Inactive)
REMARK    1  A    between atoms: C_3  and  O_50
REMARK    2  A    between atoms: C_4  and  O_35
REMARK    3  A    between atoms: C_6  and  C_7
REMARK    4  A    between atoms: C_8  and  O_20
REMARK    5  A    between atoms: C_12  and  O_19
REMARK    6  A    between atoms: C_14  and  O_18
REMARK    7  A    between atoms: O_20  and  C_21
REMARK    8  A    between atoms: C_23  and  O_34
REMARK    9  A    between atoms: C_24  and  O_33
REMARK   10  A    between atoms: C_26  and  O_32
REMARK   11  A    between atoms: C_28  and  C_30
REMARK   12  A    between atoms: C_30  and  O_31
REMARK   13  A    between atoms: O_35  and  C_36
REMARK   14  A    between atoms: C_38  and  O_49
REMARK   15  A    between atoms: C_39  and  O_48
REMARK   16  A    between atoms: C_41  and  O_47
REMARK   17  A    between atoms: C_43  and  C_45
REMARK   18  A    between atoms: C_45  and  O_46
REMARK   19  A    between atoms: O_50  and  C_51
REMARK   20  A    between atoms: C_53  and  O_64
REMARK   21  A    between atoms: C_54  and  O_63
REMARK   22  A    between atoms: C_55  and  O_62
REMARK   23  A    between atoms: C_57  and  C_60
REMARK   24  A    between atoms: C_60  and  O_61
REMARK                            x       y       z     vdW  Elec       q    Type
REMARK                         _______ _______ _______ _____ _____    ______ ____
ROOT
ATOM      1  C   UNL     1       5.232   0.100  28.464  0.00  0.00    +0.015 A 
ATOM      2  C   UNL     1       5.230   0.687  27.200  0.00  0.00    +0.025 A 
ATOM      3  C   UNL     1       4.848  -0.125  26.119  0.00  0.00    +0.061 A 
ATOM      4  C   UNL     1       4.602  -1.520  26.269  0.00  0.00    +0.166 A 
ATOM      5  C   UNL     1       4.778  -2.123  27.512  0.00  0.00    +0.166 A 
ATOM      6  C   UNL     1       5.006  -1.282  28.617  0.00  0.00    +0.050 A 
ENDROOT
BRANCH   2   7
ATOM      7  C   UNL     1       5.751   2.070  27.009  0.00  0.00    +0.181 A 
ATOM      8  O   UNL     1       5.897   2.806  28.185  0.00  0.00    -0.451 OA
ATOM      9  C   UNL     1       6.408   4.086  28.118  0.00  0.00    +0.147 A 
ATOM     10  C   UNL     1       6.829   4.674  26.927  0.00  0.00    +0.109 A 
ATOM     11  C   UNL     1       7.322   5.999  26.934  0.00  0.00    +0.135 A 
ATOM     12  C   UNL     1       7.388   6.737  28.109  0.00  0.00    +0.091 A 
ATOM     13  C   UNL     1       6.974   6.139  29.280  0.00  0.00    +0.124 A 
ATOM     14  C   UNL     1       6.697   3.881  25.699  0.00  0.00    +0.238 A 
ATOM     15  O   UNL     1       7.075   4.361  24.637  0.00  0.00    -0.283 OA
ATOM     16  C   UNL     1       6.502   4.821  29.303  0.00  0.00    +0.092 A 
ATOM     17  C   UNL     1       6.060   2.524  25.771  0.00  0.00    +0.214 A 
BRANCH  11  18
ATOM     18  O   UNL     1       7.767   6.654  25.818  0.00  0.00    -0.506 OA
ATOM     19  H   UNL     1       7.313   7.522  25.755  0.00  0.00    +0.292 HD
ENDBRANCH  11  18
BRANCH  13  20
ATOM     20  O   UNL     1       7.007   6.807  30.465  0.00  0.00    -0.507 OA
ATOM     21  H   UNL     1       6.474   7.625  30.413  0.00  0.00    +0.292 HD
ENDBRANCH  13  20
BRANCH  17  22
ATOM     22  O   UNL     1       6.059   1.707  24.639  0.00  0.00    -0.453 OA
BRANCH  22  23
ATOM     23  C   UNL     1       7.173   0.802  24.405  0.00  0.00    +0.340 C 
ATOM     24  O   UNL     1       8.383   1.443  24.852  0.00  0.00    -0.331 OA
ATOM     25  C   UNL     1       9.331   2.045  23.938  0.00  0.00    +0.179 C 
ATOM     26  C   UNL     1       8.967   2.211  22.428  0.00  0.00    +0.177 C 
ATOM     27  C   UNL     1       7.551   1.737  22.122  0.00  0.00    +0.180 C 
ATOM     28  C   UNL     1       7.340   0.437  22.927  0.00  0.00    +0.214 C 
BRANCH  28  29
ATOM     29  O   UNL     1       6.345  -0.424  22.394  0.00  0.00    -0.383 OA
ATOM     30  H   UNL     1       6.586  -0.656  21.479  0.00  0.00    +0.210 HD
ENDBRANCH  28  29
BRANCH  27  31
ATOM     31  O   UNL     1       6.645   2.808  22.406  0.00  0.00    -0.386 OA
ATOM     32  H   UNL     1       6.242   3.118  21.570  0.00  0.00    +0.210 HD
ENDBRANCH  27  31
BRANCH  26  33
ATOM     33  O   UNL     1       9.890   1.504  21.583  0.00  0.00    -0.386 OA
ATOM     34  H   UNL     1       9.382   0.861  21.053  0.00  0.00    +0.210 HD
ENDBRANCH  26  33
BRANCH  25  35
ATOM     35  C   UNL     1      10.729   1.389  24.107  0.00  0.00    +0.190 C 
BRANCH  35  36
ATOM     36  O   UNL     1      10.722   0.416  25.157  0.00  0.00    -0.392 OA
ATOM     37  H   UNL     1       9.983  -0.193  24.974  0.00  0.00    +0.210 HD
ENDBRANCH  35  36
ENDBRANCH  25  35
ENDBRANCH  22  23
ENDBRANCH  17  22
ENDBRANCH   2   7
BRANCH   4  38
ATOM     38  O   UNL     1       4.382  -2.170  25.095  0.00  0.00    -0.457 OA
BRANCH  38  39
ATOM     39  C   UNL     1       5.389  -2.819  24.309  0.00  0.00    +0.339 C 
ATOM     40  O   UNL     1       6.725  -2.853  24.864  0.00  0.00    -0.331 OA
ATOM     41  C   UNL     1       7.724  -2.934  23.816  0.00  0.00    +0.179 C 
ATOM     42  C   UNL     1       7.516  -4.142  22.865  0.00  0.00    +0.177 C 
ATOM     43  C   UNL     1       6.049  -4.286  22.410  0.00  0.00    +0.180 C 
ATOM     44  C   UNL     1       5.079  -4.168  23.615  0.00  0.00    +0.214 C 
BRANCH  44  45
ATOM     45  O   UNL     1       3.732  -4.311  23.168  0.00  0.00    -0.383 OA
ATOM     46  H   UNL     1       3.578  -3.662  22.460  0.00  0.00    +0.210 HD
ENDBRANCH  44  45
BRANCH  43  47
ATOM     47  O   UNL     1       5.728  -3.336  21.376  0.00  0.00    -0.386 OA
ATOM     48  H   UNL     1       6.405  -3.325  20.679  0.00  0.00    +0.210 HD
ENDBRANCH  43  47
BRANCH  42  49
ATOM     49  O   UNL     1       7.910  -5.351  23.524  0.00  0.00    -0.386 OA
ATOM     50  H   UNL     1       7.253  -5.556  24.216  0.00  0.00    +0.210 HD
ENDBRANCH  42  49
BRANCH  41  51
ATOM     51  C   UNL     1       9.144  -2.984  24.435  0.00  0.00    +0.190 C 
BRANCH  51  52
ATOM     52  O   UNL     1      10.095  -2.221  23.697  0.00  0.00    -0.392 OA
ATOM     53  H   UNL     1       9.636  -1.785  22.960  0.00  0.00    +0.210 HD
ENDBRANCH  51  52
ENDBRANCH  41  51
ENDBRANCH  38  39
ENDBRANCH   4  38
BRANCH   5  54
ATOM     54  O   UNL     1       4.830  -3.506  27.560  0.00  0.00    -0.457 OA
BRANCH  54  55
ATOM     55  C   UNL     1       3.749  -4.145  28.265  0.00  0.00    +0.339 C 
ATOM     56  O   UNL     1       4.158  -4.614  29.552  0.00  0.00    -0.331 OA
ATOM     57  C   UNL     1       4.648  -5.959  29.629  0.00  0.00    +0.179 C 
ATOM     58  C   UNL     1       3.592  -6.942  29.132  0.00  0.00    +0.177 C 
ATOM     59  C   UNL     1       3.322  -6.673  27.656  0.00  0.00    +0.180 C 
ATOM     60  C   UNL     1       2.944  -5.195  27.429  0.00  0.00    +0.214 C 
BRANCH  60  61
ATOM     61  O   UNL     1       2.896  -4.892  26.030  0.00  0.00    -0.383 OA
ATOM     62  H   UNL     1       2.332  -5.562  25.596  0.00  0.00    +0.210 HD
ENDBRANCH  60  61
BRANCH  59  63
ATOM     63  O   UNL     1       2.275  -7.566  27.227  0.00  0.00    -0.386 OA
ATOM     64  H   UNL     1       1.524  -7.023  26.929  0.00  0.00    +0.210 HD
ENDBRANCH  59  63
BRANCH  58  65
ATOM     65  O   UNL     1       2.371  -6.764  29.874  0.00  0.00    -0.386 OA
ATOM     66  H   UNL     1       2.118  -5.830  29.752  0.00  0.00    +0.210 HD
ENDBRANCH  58  65
BRANCH  57  67
ATOM     67  C   UNL     1       6.000  -6.177  28.919  0.00  0.00    +0.190 C 
BRANCH  67  68
ATOM     68  O   UNL     1       6.481  -7.507  29.041  0.00  0.00    -0.392 OA
ATOM     69  H   UNL     1       5.703  -8.096  29.065  0.00  0.00    +0.210 HD
ENDBRANCH  67  68
ENDBRANCH  57  67
ENDBRANCH  54  55
ENDBRANCH   5  54
TORSDOF 24
ENDMDL
