MODEL 1
REMARK VINA RESULT:      -6.9      0.000      0.000
REMARK  Name = 
REMARK  26 active torsions:
REMARK  status: ('A' for Active; 'I' for Inactive)
REMARK    1  A    between atoms: C_1  and  C_2
REMARK    2  A    between atoms: C_3  and  O_72
REMARK    3  A    between atoms: C_5  and  O_59
REMARK    4  A    between atoms: C_6  and  O_58
REMARK    5  A    between atoms: C_8  and  O_11
REMARK    6  A    between atoms: O_11  and  C_12
REMARK    7  A    between atoms: C_12  and  C_13
REMARK    8  A    between atoms: C_14  and  O_57
REMARK    9  A    between atoms: C_16  and  O_56
REMARK   10  A    between atoms: C_18  and  O_44
REMARK   11  A    between atoms: C_19  and  O_22
REMARK   12  A    between atoms: O_22  and  C_23
REMARK   13  A    between atoms: C_24  and  C_36
REMARK   14  A    between atoms: C_28  and  O_35
REMARK   15  A    between atoms: C_30  and  O_34
REMARK   16  A    between atoms: C_38  and  O_43
REMARK   17  A    between atoms: C_39  and  O_42
REMARK   18  A    between atoms: O_44  and  C_45
REMARK   19  A    between atoms: C_47  and  O_55
REMARK   20  A    between atoms: C_49  and  C_52
REMARK   21  A    between atoms: C_49  and  O_54
REMARK   22  A    between atoms: C_52  and  O_53
REMARK   23  A    between atoms: O_59  and  C_60
REMARK   24  A    between atoms: C_62  and  O_71
REMARK   25  A    between atoms: C_63  and  O_70
REMARK   26  A    between atoms: C_65  and  O_69
REMARK                            x       y       z     vdW  Elec       q    Type
REMARK                         _______ _______ _______ _____ _____    ______ ____
ROOT
ATOM      1  C   UNL     1       3.110   0.842  28.542  0.00  0.00    +0.179 C 
ATOM      2  O   UNL     1       4.104   0.020  27.883  0.00  0.00    -0.331 OA
ATOM      3  C   UNL     1       3.689  -1.245  27.354  0.00  0.00    +0.340 C 
ATOM      4  C   UNL     1       2.653  -2.082  28.154  0.00  0.00    +0.221 C 
ATOM      5  C   UNL     1       1.547  -1.120  28.595  0.00  0.00    +0.180 C 
ATOM      6  C   UNL     1       2.166  -0.006  29.438  0.00  0.00    +0.177 C 
ENDROOT
BRANCH   6   7
ATOM      7  O   UNL     1       1.084   0.743  30.007  0.00  0.00    -0.386 OA
ATOM      8  H   UNL     1       1.328   1.687  29.961  0.00  0.00    +0.210 HD
ENDBRANCH   6   7
BRANCH   5   9
ATOM      9  O   UNL     1       0.481  -1.770  29.293  0.00  0.00    -0.386 OA
ATOM     10  H   UNL     1       0.571  -2.719  29.058  0.00  0.00    +0.210 HD
ENDBRANCH   5   9
BRANCH   4  11
ATOM     11  O   UNL     1       3.258  -2.824  29.238  0.00  0.00    -0.337 OA
BRANCH  11  12
ATOM     12  C   UNL     1       3.077  -4.246  29.159  0.00  0.00    +0.282 C 
ATOM     13  O   UNL     1       3.335  -4.890  30.422  0.00  0.00    -0.346 OA
ATOM     14  C   UNL     1       3.822  -6.229  30.142  0.00  0.00    +0.202 C 
ATOM     15  C   UNL     1       4.000  -6.365  28.624  0.00  0.00    +0.142 C 
ATOM     16  C   UNL     1       4.067  -4.907  28.191  0.00  0.00    +0.206 C 
BRANCH  15  17
ATOM     17  O   UNL     1       2.854  -6.998  28.023  0.00  0.00    -0.381 OA
ATOM     18  H   UNL     1       3.070  -7.920  27.795  0.00  0.00    +0.210 HD
ENDBRANCH  15  17
BRANCH  16  19
ATOM     19  O   UNL     1       5.390  -4.358  28.388  0.00  0.00    -0.384 OA
ATOM     20  H   UNL     1       5.934  -4.689  27.643  0.00  0.00    +0.210 HD
ENDBRANCH  16  19
BRANCH  15  21
ATOM     21  C   UNL     1       5.242  -7.172  28.217  0.00  0.00    +0.195 C 
BRANCH  21  22
ATOM     22  O   UNL     1       6.265  -7.175  29.208  0.00  0.00    -0.392 OA
ATOM     23  H   UNL     1       7.110  -7.269  28.714  0.00  0.00    +0.210 HD
ENDBRANCH  21  22
ENDBRANCH  15  21
ENDBRANCH  11  12
ENDBRANCH   4  11
BRANCH   3  24
ATOM     24  O   UNL     1       4.694  -2.090  26.761  0.00  0.00    -0.453 OA
BRANCH  24  25
ATOM     25  C   UNL     1       5.595  -1.870  25.750  0.00  0.00    +0.214 A 
ATOM     26  C   UNL     1       6.822  -0.983  25.824  0.00  0.00    +0.238 A 
ATOM     27  O   UNL     1       6.970  -0.176  26.735  0.00  0.00    -0.283 OA
ATOM     28  C   UNL     1       7.843  -1.175  24.749  0.00  0.00    +0.109 A 
ATOM     29  C   UNL     1       7.407  -1.741  23.548  0.00  0.00    +0.147 A 
ATOM     30  C   UNL     1       8.255  -1.942  22.447  0.00  0.00    +0.092 A 
ATOM     31  C   UNL     1       9.591  -1.594  22.558  0.00  0.00    +0.124 A 
ATOM     32  C   UNL     1      10.074  -1.062  23.751  0.00  0.00    +0.091 A 
ATOM     33  O   UNL     1       6.129  -2.187  23.407  0.00  0.00    -0.451 OA
ATOM     34  C   UNL     1       9.206  -0.856  24.838  0.00  0.00    +0.135 A 
ATOM     35  C   UNL     1       5.462  -2.524  24.572  0.00  0.00    +0.181 A 
BRANCH  35  36
ATOM     36  C   UNL     1       4.836  -3.862  24.472  0.00  0.00    +0.025 A 
ATOM     37  C   UNL     1       5.732  -4.948  24.595  0.00  0.00    +0.015 A 
ATOM     38  C   UNL     1       5.287  -6.256  24.683  0.00  0.00    +0.050 A 
ATOM     39  C   UNL     1       3.928  -6.484  24.752  0.00  0.00    +0.158 A 
ATOM     40  C   UNL     1       3.022  -5.431  24.666  0.00  0.00    +0.159 A 
ATOM     41  C   UNL     1       3.463  -4.123  24.447  0.00  0.00    +0.060 A 
BRANCH  40  42
ATOM     42  O   UNL     1       1.714  -5.716  24.936  0.00  0.00    -0.503 OA
ATOM     43  H   UNL     1       1.195  -4.907  24.926  0.00  0.00    +0.292 HD
ENDBRANCH  40  42
BRANCH  39  44
ATOM     44  O   UNL     1       3.488  -7.753  24.986  0.00  0.00    -0.503 OA
ATOM     45  H   UNL     1       3.822  -7.970  25.875  0.00  0.00    +0.292 HD
ENDBRANCH  39  44
ENDBRANCH  35  36
BRANCH  34  46
ATOM     46  O   UNL     1       9.723  -0.366  26.006  0.00  0.00    -0.506 OA
ATOM     47  H   UNL     1       9.621  -1.026  26.710  0.00  0.00    +0.292 HD
ENDBRANCH  34  46
BRANCH  31  48
ATOM     48  O   UNL     1      10.461  -1.764  21.524  0.00  0.00    -0.507 OA
ATOM     49  H   UNL     1      10.129  -1.296  20.738  0.00  0.00    +0.292 HD
ENDBRANCH  31  48
ENDBRANCH  24  25
ENDBRANCH   3  24
BRANCH   1  50
ATOM     50  C   UNL     1       2.281   1.789  27.607  0.00  0.00    +0.197 C 
BRANCH  50  51
ATOM     51  O   UNL     1       2.503   1.658  26.206  0.00  0.00    -0.346 OA
BRANCH  51  55
ATOM     52  C   UNL     1       2.834   5.377  24.122  0.00  0.00    +0.041 C 
ATOM     53  C   UNL     1       3.115   4.018  23.481  0.00  0.00    +0.149 C 
ATOM     54  O   UNL     1       2.572   2.955  24.286  0.00  0.00    -0.343 OA
ATOM     55  C   UNL     1       3.279   2.630  25.505  0.00  0.00    +0.282 C 
ATOM     56  C   UNL     1       4.736   2.249  25.145  0.00  0.00    +0.202 C 
ATOM     57  C   UNL     1       5.366   3.460  24.439  0.00  0.00    +0.186 C 
ATOM     58  C   UNL     1       4.609   3.808  23.153  0.00  0.00    +0.174 C 
BRANCH  58  59
ATOM     59  O   UNL     1       4.755   2.754  22.190  0.00  0.00    -0.387 OA
ATOM     60  H   UNL     1       4.224   2.001  22.506  0.00  0.00    +0.210 HD
ENDBRANCH  58  59
BRANCH  56  61
ATOM     61  O   UNL     1       4.828   1.084  24.308  0.00  0.00    -0.384 OA
ATOM     62  H   UNL     1       5.598   1.230  23.720  0.00  0.00    +0.210 HD
ENDBRANCH  56  61
BRANCH  57  63
ATOM     63  O   UNL     1       6.768   3.178  24.288  0.00  0.00    -0.340 OA
BRANCH  63  64
ATOM     64  C   UNL     1       7.455   3.895  23.245  0.00  0.00    +0.282 C 
ATOM     65  O   UNL     1       7.486   3.060  22.075  0.00  0.00    -0.346 OA
ATOM     66  C   UNL     1       8.244   1.854  22.238  0.00  0.00    +0.197 C 
ATOM     67  C   UNL     1       9.692   2.109  22.691  0.00  0.00    +0.171 C 
ATOM     68  C   UNL     1       9.734   3.040  23.900  0.00  0.00    +0.178 C 
ATOM     69  C   UNL     1       8.912   4.303  23.586  0.00  0.00    +0.201 C 
BRANCH  69  70
ATOM     70  O   UNL     1       8.989   5.272  24.639  0.00  0.00    -0.384 OA
ATOM     71  H   UNL     1       8.115   5.322  25.070  0.00  0.00    +0.210 HD
ENDBRANCH  69  70
BRANCH  68  72
ATOM     72  O   UNL     1       9.270   2.342  25.064  0.00  0.00    -0.386 OA
ATOM     73  H   UNL     1       8.596   2.905  25.490  0.00  0.00    +0.210 HD
ENDBRANCH  68  72
BRANCH  67  74
ATOM     74  O   UNL     1      10.447   2.669  21.620  0.00  0.00    -0.387 OA
ATOM     75  H   UNL     1      11.304   2.207  21.572  0.00  0.00    +0.210 HD
ENDBRANCH  67  74
ENDBRANCH  63  64
ENDBRANCH  57  63
ENDBRANCH  51  55
ENDBRANCH  50  51
ENDBRANCH   1  50
TORSDOF 25
ENDMDL
MODEL 2
REMARK VINA RESULT:      -6.6      2.095      3.681
REMARK  Name = 
REMARK  26 active torsions:
REMARK  status: ('A' for Active; 'I' for Inactive)
REMARK    1  A    between atoms: C_1  and  C_2
REMARK    2  A    between atoms: C_3  and  O_72
REMARK    3  A    between atoms: C_5  and  O_59
REMARK    4  A    between atoms: C_6  and  O_58
REMARK    5  A    between atoms: C_8  and  O_11
REMARK    6  A    between atoms: O_11  and  C_12
REMARK    7  A    between atoms: C_12  and  C_13
REMARK    8  A    between atoms: C_14  and  O_57
REMARK    9  A    between atoms: C_16  and  O_56
REMARK   10  A    between atoms: C_18  and  O_44
REMARK   11  A    between atoms: C_19  and  O_22
REMARK   12  A    between atoms: O_22  and  C_23
REMARK   13  A    between atoms: C_24  and  C_36
REMARK   14  A    between atoms: C_28  and  O_35
REMARK   15  A    between atoms: C_30  and  O_34
REMARK   16  A    between atoms: C_38  and  O_43
REMARK   17  A    between atoms: C_39  and  O_42
REMARK   18  A    between atoms: O_44  and  C_45
REMARK   19  A    between atoms: C_47  and  O_55
REMARK   20  A    between atoms: C_49  and  C_52
REMARK   21  A    between atoms: C_49  and  O_54
REMARK   22  A    between atoms: C_52  and  O_53
REMARK   23  A    between atoms: O_59  and  C_60
REMARK   24  A    between atoms: C_62  and  O_71
REMARK   25  A    between atoms: C_63  and  O_70
REMARK   26  A    between atoms: C_65  and  O_69
REMARK                            x       y       z     vdW  Elec       q    Type
REMARK                         _______ _______ _______ _____ _____    ______ ____
ROOT
ATOM      1  C   UNL     1       2.645  -0.889  28.316  0.00  0.00    +0.179 C 
ATOM      2  O   UNL     1       3.944  -0.984  27.683  0.00  0.00    -0.331 OA
ATOM      3  C   UNL     1       4.014  -1.545  26.368  0.00  0.00    +0.340 C 
ATOM      4  C   UNL     1       3.090  -2.744  26.021  0.00  0.00    +0.221 C 
ATOM      5  C   UNL     1       1.697  -2.402  26.553  0.00  0.00    +0.180 C 
ATOM      6  C   UNL     1       1.787  -2.159  28.059  0.00  0.00    +0.177 C 
ENDROOT
BRANCH   6   7
ATOM      7  O   UNL     1       0.445  -2.058  28.552  0.00  0.00    -0.386 OA
ATOM      8  H   UNL     1       0.447  -1.394  29.267  0.00  0.00    +0.210 HD
ENDBRANCH   6   7
BRANCH   5   9
ATOM      9  O   UNL     1       0.716  -3.398  26.246  0.00  0.00    -0.386 OA
ATOM     10  H   UNL     1      -0.146  -2.960  26.421  0.00  0.00    +0.210 HD
ENDBRANCH   5   9
BRANCH   4  11
ATOM     11  O   UNL     1       3.613  -4.005  26.500  0.00  0.00    -0.337 OA
BRANCH  11  12
ATOM     12  C   UNL     1       3.898  -4.962  25.468  0.00  0.00    +0.282 C 
ATOM     13  O   UNL     1       3.316  -4.579  24.208  0.00  0.00    -0.346 OA
ATOM     14  C   UNL     1       3.021  -5.795  23.471  0.00  0.00    +0.202 C 
ATOM     15  C   UNL     1       3.313  -6.991  24.388  0.00  0.00    +0.142 C 
ATOM     16  C   UNL     1       3.286  -6.337  25.763  0.00  0.00    +0.206 C 
BRANCH  15  17
ATOM     17  O   UNL     1       4.624  -7.531  24.132  0.00  0.00    -0.381 OA
ATOM     18  H   UNL     1       5.231  -6.814  23.879  0.00  0.00    +0.210 HD
ENDBRANCH  15  17
BRANCH  16  19
ATOM     19  O   UNL     1       1.934  -6.181  26.248  0.00  0.00    -0.384 OA
ATOM     20  H   UNL     1       1.349  -6.485  25.521  0.00  0.00    +0.210 HD
ENDBRANCH  16  19
BRANCH  15  21
ATOM     21  C   UNL     1       2.303  -8.139  24.247  0.00  0.00    +0.195 C 
BRANCH  21  22
ATOM     22  O   UNL     1       2.453  -9.150  25.240  0.00  0.00    -0.392 OA
ATOM     23  H   UNL     1       1.669  -9.737  25.139  0.00  0.00    +0.210 HD
ENDBRANCH  21  22
ENDBRANCH  15  21
ENDBRANCH  11  12
ENDBRANCH   4  11
BRANCH   3  24
ATOM     24  O   UNL     1       5.316  -1.702  25.770  0.00  0.00    -0.453 OA
BRANCH  24  25
ATOM     25  C   UNL     1       6.028  -0.909  24.904  0.00  0.00    +0.214 A 
ATOM     26  C   UNL     1       6.552   0.482  25.193  0.00  0.00    +0.238 A 
ATOM     27  O   UNL     1       6.156   1.125  26.159  0.00  0.00    -0.283 OA
ATOM     28  C   UNL     1       7.596   1.003  24.257  0.00  0.00    +0.109 A 
ATOM     29  C   UNL     1       7.644   0.442  22.978  0.00  0.00    +0.147 A 
ATOM     30  C   UNL     1       8.549   0.866  21.992  0.00  0.00    +0.092 A 
ATOM     31  C   UNL     1       9.459   1.863  22.302  0.00  0.00    +0.124 A 
ATOM     32  C   UNL     1       9.470   2.422  23.577  0.00  0.00    +0.091 A 
ATOM     33  O   UNL     1       6.838  -0.602  22.641  0.00  0.00    -0.451 OA
ATOM     34  C   UNL     1       8.545   1.995  24.547  0.00  0.00    +0.135 A 
ATOM     35  C   UNL     1       6.373  -1.384  23.684  0.00  0.00    +0.181 A 
BRANCH  35  36
ATOM     36  C   UNL     1       6.598  -2.825  23.426  0.00  0.00    +0.025 A 
ATOM     37  C   UNL     1       5.945  -3.330  22.279  0.00  0.00    +0.015 A 
ATOM     38  C   UNL     1       6.179  -4.613  21.811  0.00  0.00    +0.050 A 
ATOM     39  C   UNL     1       7.151  -5.370  22.431  0.00  0.00    +0.158 A 
ATOM     40  C   UNL     1       7.834  -4.886  23.543  0.00  0.00    +0.159 A 
ATOM     41  C   UNL     1       7.509  -3.644  24.097  0.00  0.00    +0.060 A 
BRANCH  40  42
ATOM     42  O   UNL     1       8.907  -5.611  23.976  0.00  0.00    -0.503 OA
ATOM     43  H   UNL     1       9.628  -5.533  23.344  0.00  0.00    +0.292 HD
ENDBRANCH  40  42
BRANCH  39  44
ATOM     44  O   UNL     1       7.490  -6.574  21.887  0.00  0.00    -0.503 OA
ATOM     45  H   UNL     1       6.686  -6.871  21.426  0.00  0.00    +0.292 HD
ENDBRANCH  39  44
ENDBRANCH  35  36
BRANCH  34  46
ATOM     46  O   UNL     1       8.608   2.540  25.799  0.00  0.00    -0.506 OA
ATOM     47  H   UNL     1       7.715   2.606  26.172  0.00  0.00    +0.292 HD
ENDBRANCH  34  46
BRANCH  31  48
ATOM     48  O   UNL     1      10.360   2.316  21.387  0.00  0.00    -0.507 OA
ATOM     49  H   UNL     1      10.994   2.913  21.821  0.00  0.00    +0.292 HD
ENDBRANCH  31  48
ENDBRANCH  24  25
ENDBRANCH   3  24
BRANCH   1  50
ATOM     50  C   UNL     1       1.823   0.407  27.992  0.00  0.00    +0.197 C 
BRANCH  50  51
ATOM     51  O   UNL     1       2.115   1.058  26.759  0.00  0.00    -0.346 OA
BRANCH  51  55
ATOM     52  C   UNL     1       1.893   4.984  28.435  0.00  0.00    +0.041 C 
ATOM     53  C   UNL     1       1.364   4.625  27.048  0.00  0.00    +0.149 C 
ATOM     54  O   UNL     1       1.236   3.197  26.908  0.00  0.00    -0.343 OA
ATOM     55  C   UNL     1       2.458   2.443  26.739  0.00  0.00    +0.282 C 
ATOM     56  C   UNL     1       3.196   2.974  25.486  0.00  0.00    +0.202 C 
ATOM     57  C   UNL     1       3.486   4.465  25.719  0.00  0.00    +0.186 C 
ATOM     58  C   UNL     1       2.189   5.259  25.908  0.00  0.00    +0.174 C 
BRANCH  58  59
ATOM     59  O   UNL     1       1.426   5.260  24.693  0.00  0.00    -0.387 OA
ATOM     60  H   UNL     1       2.050   5.112  23.961  0.00  0.00    +0.210 HD
ENDBRANCH  58  59
BRANCH  56  61
ATOM     61  O   UNL     1       2.449   2.799  24.270  0.00  0.00    -0.384 OA
ATOM     62  H   UNL     1       1.741   3.476  24.285  0.00  0.00    +0.210 HD
ENDBRANCH  56  61
BRANCH  57  63
ATOM     63  O   UNL     1       4.342   4.902  24.650  0.00  0.00    -0.340 OA
BRANCH  63  64
ATOM     64  C   UNL     1       5.551   4.147  24.450  0.00  0.00    +0.282 C 
ATOM     65  O   UNL     1       6.645   4.903  24.999  0.00  0.00    -0.346 OA
ATOM     66  C   UNL     1       6.887   6.149  24.331  0.00  0.00    +0.197 C 
ATOM     67  C   UNL     1       7.120   5.987  22.819  0.00  0.00    +0.171 C 
ATOM     68  C   UNL     1       6.020   5.142  22.182  0.00  0.00    +0.178 C 
ATOM     69  C   UNL     1       5.882   3.826  22.969  0.00  0.00    +0.201 C 
BRANCH  69  70
ATOM     70  O   UNL     1       4.936   2.935  22.366  0.00  0.00    -0.384 OA
ATOM     71  H   UNL     1       4.726   2.234  23.012  0.00  0.00    +0.210 HD
ENDBRANCH  69  70
BRANCH  68  72
ATOM     72  O   UNL     1       4.801   5.896  22.127  0.00  0.00    -0.386 OA
ATOM     73  H   UNL     1       4.930   6.695  22.673  0.00  0.00    +0.210 HD
ENDBRANCH  68  72
BRANCH  67  74
ATOM     74  O   UNL     1       8.392   5.390  22.582  0.00  0.00    -0.387 OA
ATOM     75  H   UNL     1       9.081   5.982  22.934  0.00  0.00    +0.210 HD
ENDBRANCH  67  74
ENDBRANCH  63  64
ENDBRANCH  57  63
ENDBRANCH  51  55
ENDBRANCH  50  51
ENDBRANCH   1  50
TORSDOF 25
ENDMDL
MODEL 3
REMARK VINA RESULT:      -6.3      1.947      6.337
REMARK  Name = 
REMARK  26 active torsions:
REMARK  status: ('A' for Active; 'I' for Inactive)
REMARK    1  A    between atoms: C_1  and  C_2
REMARK    2  A    between atoms: C_3  and  O_72
REMARK    3  A    between atoms: C_5  and  O_59
REMARK    4  A    between atoms: C_6  and  O_58
REMARK    5  A    between atoms: C_8  and  O_11
REMARK    6  A    between atoms: O_11  and  C_12
REMARK    7  A    between atoms: C_12  and  C_13
REMARK    8  A    between atoms: C_14  and  O_57
REMARK    9  A    between atoms: C_16  and  O_56
REMARK   10  A    between atoms: C_18  and  O_44
REMARK   11  A    between atoms: C_19  and  O_22
REMARK   12  A    between atoms: O_22  and  C_23
REMARK   13  A    between atoms: C_24  and  C_36
REMARK   14  A    between atoms: C_28  and  O_35
REMARK   15  A    between atoms: C_30  and  O_34
REMARK   16  A    between atoms: C_38  and  O_43
REMARK   17  A    between atoms: C_39  and  O_42
REMARK   18  A    between atoms: O_44  and  C_45
REMARK   19  A    between atoms: C_47  and  O_55
REMARK   20  A    between atoms: C_49  and  C_52
REMARK   21  A    between atoms: C_49  and  O_54
REMARK   22  A    between atoms: C_52  and  O_53
REMARK   23  A    between atoms: O_59  and  C_60
REMARK   24  A    between atoms: C_62  and  O_71
REMARK   25  A    between atoms: C_63  and  O_70
REMARK   26  A    between atoms: C_65  and  O_69
REMARK                            x       y       z     vdW  Elec       q    Type
REMARK                         _______ _______ _______ _____ _____    ______ ____
ROOT
ATOM      1  C   UNL     1       7.556  -3.078  23.251  0.00  0.00    +0.179 C 
ATOM      2  O   UNL     1       6.542  -2.690  24.209  0.00  0.00    -0.331 OA
ATOM      3  C   UNL     1       5.807  -3.726  24.869  0.00  0.00    +0.340 C 
ATOM      4  C   UNL     1       5.412  -4.991  24.059  0.00  0.00    +0.221 C 
ATOM      5  C   UNL     1       6.650  -5.418  23.268  0.00  0.00    +0.180 C 
ATOM      6  C   UNL     1       7.085  -4.264  22.365  0.00  0.00    +0.177 C 
ENDROOT
BRANCH   6   7
ATOM      7  O   UNL     1       8.103  -4.772  21.491  0.00  0.00    -0.386 OA
ATOM      8  H   UNL     1       7.795  -4.634  20.576  0.00  0.00    +0.210 HD
ENDBRANCH   6   7
BRANCH   5   9
ATOM      9  O   UNL     1       6.452  -6.620  22.517  0.00  0.00    -0.386 OA
ATOM     10  H   UNL     1       7.341  -6.840  22.161  0.00  0.00    +0.210 HD
ENDBRANCH   5   9
BRANCH   4  11
ATOM     11  O   UNL     1       4.234  -4.783  23.245  0.00  0.00    -0.337 OA
BRANCH  11  12
ATOM     12  C   UNL     1       3.370  -5.926  23.147  0.00  0.00    +0.282 C 
ATOM     13  O   UNL     1       2.052  -5.563  22.691  0.00  0.00    -0.346 OA
ATOM     14  C   UNL     1       1.112  -6.510  23.263  0.00  0.00    +0.202 C 
ATOM     15  C   UNL     1       1.881  -7.420  24.231  0.00  0.00    +0.142 C 
ATOM     16  C   UNL     1       3.126  -6.591  24.508  0.00  0.00    +0.206 C 
BRANCH  15  17
ATOM     17  O   UNL     1       2.251  -8.658  23.593  0.00  0.00    -0.381 OA
ATOM     18  H   UNL     1       3.001  -9.060  24.067  0.00  0.00    +0.210 HD
ENDBRANCH  15  17
BRANCH  16  19
ATOM     19  O   UNL     1       2.877  -5.582  25.513  0.00  0.00    -0.384 OA
ATOM     20  H   UNL     1       2.007  -5.802  25.907  0.00  0.00    +0.210 HD
ENDBRANCH  16  19
BRANCH  15  21
ATOM     21  C   UNL     1       1.095  -7.772  25.503  0.00  0.00    +0.195 C 
BRANCH  21  22
ATOM     22  O   UNL     1       1.918  -8.256  26.561  0.00  0.00    -0.392 OA
ATOM     23  H   UNL     1       1.932  -9.234  26.457  0.00  0.00    +0.210 HD
ENDBRANCH  21  22
ENDBRANCH  15  21
ENDBRANCH  11  12
ENDBRANCH   4  11
BRANCH   3  24
ATOM     24  O   UNL     1       4.751  -3.335  25.769  0.00  0.00    -0.453 OA
BRANCH  24  25
ATOM     25  C   UNL     1       4.633  -2.279  26.638  0.00  0.00    +0.214 A 
ATOM     26  C   UNL     1       4.602  -0.811  26.261  0.00  0.00    +0.238 A 
ATOM     27  O   UNL     1       4.941  -0.433  25.146  0.00  0.00    -0.283 OA
ATOM     28  C   UNL     1       4.106   0.131  27.312  0.00  0.00    +0.109 A 
ATOM     29  C   UNL     1       4.188  -0.294  28.641  0.00  0.00    +0.147 A 
ATOM     30  C   UNL     1       3.792   0.508  29.724  0.00  0.00    +0.092 A 
ATOM     31  C   UNL     1       3.267   1.764  29.470  0.00  0.00    +0.124 A 
ATOM     32  C   UNL     1       3.132   2.210  28.157  0.00  0.00    +0.091 A 
ATOM     33  O   UNL     1       4.610  -1.550  28.949  0.00  0.00    -0.451 OA
ATOM     34  C   UNL     1       3.548   1.398  27.087  0.00  0.00    +0.135 A 
ATOM     35  C   UNL     1       4.466  -2.509  27.962  0.00  0.00    +0.181 A 
BRANCH  35  36
ATOM     36  C   UNL     1       3.803  -3.727  28.480  0.00  0.00    +0.025 A 
ATOM     37  C   UNL     1       2.400  -3.627  28.615  0.00  0.00    +0.015 A 
ATOM     38  C   UNL     1       1.616  -4.724  28.933  0.00  0.00    +0.050 A 
ATOM     39  C   UNL     1       2.221  -5.960  29.019  0.00  0.00    +0.158 A 
ATOM     40  C   UNL     1       3.598  -6.095  28.858  0.00  0.00    +0.159 A 
ATOM     41  C   UNL     1       4.409  -4.973  28.666  0.00  0.00    +0.060 A 
BRANCH  40  42
ATOM     42  O   UNL     1       4.089  -7.365  28.765  0.00  0.00    -0.503 OA
ATOM     43  H   UNL     1       3.505  -7.975  29.226  0.00  0.00    +0.292 HD
ENDBRANCH  40  42
BRANCH  39  44
ATOM     44  O   UNL     1       1.438  -7.064  29.185  0.00  0.00    -0.503 OA
ATOM     45  H   UNL     1       1.804  -7.720  28.567  0.00  0.00    +0.292 HD
ENDBRANCH  39  44
ENDBRANCH  35  36
BRANCH  34  46
ATOM     46  O   UNL     1       3.367   1.853  25.810  0.00  0.00    -0.506 OA
ATOM     47  H   UNL     1       4.204   1.795  25.322  0.00  0.00    +0.292 HD
ENDBRANCH  34  46
BRANCH  31  48
ATOM     48  O   UNL     1       2.867   2.587  30.479  0.00  0.00    -0.507 OA
ATOM     49  H   UNL     1       1.928   2.425  30.679  0.00  0.00    +0.292 HD
ENDBRANCH  31  48
ENDBRANCH  24  25
ENDBRANCH   3  24
BRANCH   1  50
ATOM     50  C   UNL     1       8.980  -3.364  23.844  0.00  0.00    +0.197 C 
BRANCH  50  51
ATOM     51  O   UNL     1       9.803  -2.230  24.104  0.00  0.00    -0.346 OA
BRANCH  51  55
ATOM     52  C   UNL     1       8.871   0.698  21.131  0.00  0.00    +0.041 C 
ATOM     53  C   UNL     1       9.986   0.864  22.163  0.00  0.00    +0.149 C 
ATOM     54  O   UNL     1      10.306  -0.402  22.771  0.00  0.00    -0.343 OA
ATOM     55  C   UNL     1       9.364  -0.922  23.736  0.00  0.00    +0.282 C 
ATOM     56  C   UNL     1       9.196   0.116  24.872  0.00  0.00    +0.202 C 
ATOM     57  C   UNL     1       8.684   1.417  24.234  0.00  0.00    +0.186 C 
ATOM     58  C   UNL     1       9.681   1.961  23.205  0.00  0.00    +0.174 C 
BRANCH  58  59
ATOM     59  O   UNL     1      10.893   2.369  23.855  0.00  0.00    -0.387 OA
ATOM     60  H   UNL     1      11.396   2.904  23.216  0.00  0.00    +0.210 HD
ENDBRANCH  58  59
BRANCH  56  61
ATOM     61  O   UNL     1      10.412   0.365  25.597  0.00  0.00    -0.384 OA
ATOM     62  H   UNL     1      10.934   0.989  25.050  0.00  0.00    +0.210 HD
ENDBRANCH  56  61
BRANCH  57  63
ATOM     63  O   UNL     1       8.340   2.308  25.309  0.00  0.00    -0.340 OA
BRANCH  63  64
ATOM     64  C   UNL     1       7.034   2.135  25.890  0.00  0.00    +0.282 C 
ATOM     65  O   UNL     1       6.054   2.469  24.892  0.00  0.00    -0.346 OA
ATOM     66  C   UNL     1       6.083   3.843  24.482  0.00  0.00    +0.197 C 
ATOM     67  C   UNL     1       5.935   4.826  25.656  0.00  0.00    +0.171 C 
ATOM     68  C   UNL     1       6.912   4.490  26.780  0.00  0.00    +0.178 C 
ATOM     69  C   UNL     1       6.759   3.003  27.146  0.00  0.00    +0.201 C 
BRANCH  69  70
ATOM     70  O   UNL     1       7.574   2.638  28.266  0.00  0.00    -0.384 OA
ATOM     71  H   UNL     1       7.167   3.009  29.072  0.00  0.00    +0.210 HD
ENDBRANCH  69  70
BRANCH  68  72
ATOM     72  O   UNL     1       8.244   4.839  26.382  0.00  0.00    -0.386 OA
ATOM     73  H   UNL     1       8.246   4.912  25.409  0.00  0.00    +0.210 HD
ENDBRANCH  68  72
BRANCH  67  74
ATOM     74  O   UNL     1       4.598   4.799  26.149  0.00  0.00    -0.387 OA
ATOM     75  H   UNL     1       4.457   5.589  26.702  0.00  0.00    +0.210 HD
ENDBRANCH  67  74
ENDBRANCH  63  64
ENDBRANCH  57  63
ENDBRANCH  51  55
ENDBRANCH  50  51
ENDBRANCH   1  50
TORSDOF 25
ENDMDL
MODEL 4
REMARK VINA RESULT:      -6.2      1.998      8.683
REMARK  Name = 
REMARK  26 active torsions:
REMARK  status: ('A' for Active; 'I' for Inactive)
REMARK    1  A    between atoms: C_1  and  C_2
REMARK    2  A    between atoms: C_3  and  O_72
REMARK    3  A    between atoms: C_5  and  O_59
REMARK    4  A    between atoms: C_6  and  O_58
REMARK    5  A    between atoms: C_8  and  O_11
REMARK    6  A    between atoms: O_11  and  C_12
REMARK    7  A    between atoms: C_12  and  C_13
REMARK    8  A    between atoms: C_14  and  O_57
REMARK    9  A    between atoms: C_16  and  O_56
REMARK   10  A    between atoms: C_18  and  O_44
REMARK   11  A    between atoms: C_19  and  O_22
REMARK   12  A    between atoms: O_22  and  C_23
REMARK   13  A    between atoms: C_24  and  C_36
REMARK   14  A    between atoms: C_28  and  O_35
REMARK   15  A    between atoms: C_30  and  O_34
REMARK   16  A    between atoms: C_38  and  O_43
REMARK   17  A    between atoms: C_39  and  O_42
REMARK   18  A    between atoms: O_44  and  C_45
REMARK   19  A    between atoms: C_47  and  O_55
REMARK   20  A    between atoms: C_49  and  C_52
REMARK   21  A    between atoms: C_49  and  O_54
REMARK   22  A    between atoms: C_52  and  O_53
REMARK   23  A    between atoms: O_59  and  C_60
REMARK   24  A    between atoms: C_62  and  O_71
REMARK   25  A    between atoms: C_63  and  O_70
REMARK   26  A    between atoms: C_65  and  O_69
REMARK                            x       y       z     vdW  Elec       q    Type
REMARK                         _______ _______ _______ _____ _____    ______ ____
ROOT
ATOM      1  C   UNL     1       4.187   1.275  28.594  0.00  0.00    +0.179 C 
ATOM      2  O   UNL     1       4.178   0.604  27.311  0.00  0.00    -0.331 OA
ATOM      3  C   UNL     1       5.371   0.648  26.519  0.00  0.00    +0.340 C 
ATOM      4  C   UNL     1       6.206   1.957  26.505  0.00  0.00    +0.221 C 
ATOM      5  C   UNL     1       6.322   2.428  27.956  0.00  0.00    +0.180 C 
ATOM      6  C   UNL     1       4.919   2.644  28.521  0.00  0.00    +0.177 C 
ENDROOT
BRANCH   6   7
ATOM      7  O   UNL     1       5.070   3.286  29.795  0.00  0.00    -0.386 OA
ATOM      8  H   UNL     1       4.948   4.243  29.654  0.00  0.00    +0.210 HD
ENDBRANCH   6   7
BRANCH   5   9
ATOM      9  O   UNL     1       7.128   3.601  28.106  0.00  0.00    -0.386 OA
ATOM     10  H   UNL     1       8.052   3.267  28.132  0.00  0.00    +0.210 HD
ENDBRANCH   5   9
BRANCH   4  11
ATOM     11  O   UNL     1       5.666   2.951  25.603  0.00  0.00    -0.337 OA
BRANCH  11  12
ATOM     12  C   UNL     1       6.573   3.374  24.572  0.00  0.00    +0.282 C 
ATOM     13  O   UNL     1       7.794   3.906  25.119  0.00  0.00    -0.346 OA
ATOM     14  C   UNL     1       8.300   4.897  24.185  0.00  0.00    +0.202 C 
ATOM     15  C   UNL     1       7.259   5.077  23.072  0.00  0.00    +0.142 C 
ATOM     16  C   UNL     1       6.004   4.524  23.732  0.00  0.00    +0.206 C 
BRANCH  15  17
ATOM     17  O   UNL     1       7.592   4.283  21.917  0.00  0.00    -0.381 OA
ATOM     18  H   UNL     1       8.551   4.115  21.899  0.00  0.00    +0.210 HD
ENDBRANCH  15  17
BRANCH  16  19
ATOM     19  O   UNL     1       5.384   5.505  24.594  0.00  0.00    -0.384 OA
ATOM     20  H   UNL     1       6.119   5.988  25.027  0.00  0.00    +0.210 HD
ENDBRANCH  16  19
BRANCH  15  21
ATOM     21  C   UNL     1       7.102   6.532  22.603  0.00  0.00    +0.195 C 
BRANCH  21  22
ATOM     22  O   UNL     1       7.251   6.692  21.195  0.00  0.00    -0.392 OA
ATOM     23  H   UNL     1       8.188   6.459  21.001  0.00  0.00    +0.210 HD
ENDBRANCH  21  22
ENDBRANCH  15  21
ENDBRANCH  11  12
ENDBRANCH   4  11
BRANCH   3  24
ATOM     24  O   UNL     1       5.336   0.039  25.213  0.00  0.00    -0.453 OA
BRANCH  24  25
ATOM     25  C   UNL     1       5.813  -1.162  24.750  0.00  0.00    +0.214 A 
ATOM     26  C   UNL     1       4.999  -2.422  24.533  0.00  0.00    +0.238 A 
ATOM     27  O   UNL     1       3.874  -2.542  25.004  0.00  0.00    -0.283 OA
ATOM     28  C   UNL     1       5.634  -3.482  23.691  0.00  0.00    +0.109 A 
ATOM     29  C   UNL     1       7.028  -3.472  23.595  0.00  0.00    +0.147 A 
ATOM     30  C   UNL     1       7.750  -4.432  22.868  0.00  0.00    +0.092 A 
ATOM     31  C   UNL     1       7.056  -5.418  22.188  0.00  0.00    +0.124 A 
ATOM     32  C   UNL     1       5.664  -5.441  22.225  0.00  0.00    +0.091 A 
ATOM     33  O   UNL     1       7.762  -2.478  24.166  0.00  0.00    -0.451 OA
ATOM     34  C   UNL     1       4.960  -4.479  22.971  0.00  0.00    +0.135 A 
ATOM     35  C   UNL     1       7.110  -1.276  24.381  0.00  0.00    +0.181 A 
BRANCH  35  36
ATOM     36  C   UNL     1       7.891  -0.133  23.857  0.00  0.00    +0.025 A 
ATOM     37  C   UNL     1       8.983   0.260  24.664  0.00  0.00    +0.015 A 
ATOM     38  C   UNL     1       9.903   1.204  24.240  0.00  0.00    +0.050 A 
ATOM     39  C   UNL     1       9.797   1.692  22.953  0.00  0.00    +0.158 A 
ATOM     40  C   UNL     1       8.751   1.298  22.124  0.00  0.00    +0.159 A 
ATOM     41  C   UNL     1       7.747   0.446  22.593  0.00  0.00    +0.060 A 
BRANCH  40  42
ATOM     42  O   UNL     1       8.825   1.673  20.813  0.00  0.00    -0.503 OA
ATOM     43  H   UNL     1       7.940   1.745  20.444  0.00  0.00    +0.292 HD
ENDBRANCH  40  42
BRANCH  39  44
ATOM     44  O   UNL     1      10.781   2.508  22.478  0.00  0.00    -0.503 OA
ATOM     45  H   UNL     1      10.314   3.307  22.177  0.00  0.00    +0.292 HD
ENDBRANCH  39  44
ENDBRANCH  35  36
BRANCH  34  46
ATOM     46  O   UNL     1       3.592  -4.510  22.956  0.00  0.00    -0.506 OA
ATOM     47  H   UNL     1       3.288  -5.210  22.356  0.00  0.00    +0.292 HD
ENDBRANCH  34  46
BRANCH  31  48
ATOM     48  O   UNL     1       7.701  -6.377  21.466  0.00  0.00    -0.507 OA
ATOM     49  H   UNL     1       7.467  -7.257  21.809  0.00  0.00    +0.292 HD
ENDBRANCH  31  48
ENDBRANCH  24  25
ENDBRANCH   3  24
BRANCH   1  50
ATOM     50  C   UNL     1       4.719   0.429  29.802  0.00  0.00    +0.197 C 
BRANCH  50  51
ATOM     51  O   UNL     1       4.737  -0.986  29.632  0.00  0.00    -0.346 OA
BRANCH  51  55
ATOM     52  C   UNL     1       0.483  -1.228  29.268  0.00  0.00    +0.041 C 
ATOM     53  C   UNL     1       1.320  -2.204  30.094  0.00  0.00    +0.149 C 
ATOM     54  O   UNL     1       2.636  -1.669  30.332  0.00  0.00    -0.343 OA
ATOM     55  C   UNL     1       3.557  -1.677  29.219  0.00  0.00    +0.282 C 
ATOM     56  C   UNL     1       3.725  -3.135  28.725  0.00  0.00    +0.202 C 
ATOM     57  C   UNL     1       2.336  -3.641  28.305  0.00  0.00    +0.186 C 
ATOM     58  C   UNL     1       1.359  -3.623  29.486  0.00  0.00    +0.174 C 
BRANCH  58  59
ATOM     59  O   UNL     1       1.766  -4.571  30.482  0.00  0.00    -0.387 OA
ATOM     60  H   UNL     1       2.138  -4.065  31.226  0.00  0.00    +0.210 HD
ENDBRANCH  58  59
BRANCH  56  61
ATOM     61  O   UNL     1       4.292  -4.008  29.718  0.00  0.00    -0.384 OA
ATOM     62  H   UNL     1       5.035  -3.515  30.123  0.00  0.00    +0.210 HD
ENDBRANCH  56  61
BRANCH  57  63
ATOM     63  O   UNL     1       2.526  -4.914  27.665  0.00  0.00    -0.340 OA
BRANCH  63  64
ATOM     64  C   UNL     1       3.175  -4.893  26.380  0.00  0.00    +0.282 C 
ATOM     65  O   UNL     1       2.229  -5.340  25.395  0.00  0.00    -0.346 OA
ATOM     66  C   UNL     1       1.812  -6.702  25.561  0.00  0.00    +0.197 C 
ATOM     67  C   UNL     1       2.988  -7.694  25.590  0.00  0.00    +0.171 C 
ATOM     68  C   UNL     1       4.060  -7.245  26.579  0.00  0.00    +0.178 C 
ATOM     69  C   UNL     1       4.440  -5.785  26.274  0.00  0.00    +0.201 C 
BRANCH  69  70
ATOM     70  O   UNL     1       5.518  -5.325  27.099  0.00  0.00    -0.384 OA
ATOM     71  H   UNL     1       6.313  -5.239  26.540  0.00  0.00    +0.210 HD
ENDBRANCH  69  70
BRANCH  68  72
ATOM     72  O   UNL     1       3.592  -7.437  27.920  0.00  0.00    -0.386 OA
ATOM     73  H   UNL     1       3.290  -6.569  28.249  0.00  0.00    +0.210 HD
ENDBRANCH  68  72
BRANCH  67  74
ATOM     74  O   UNL     1       3.550  -7.822  24.287  0.00  0.00    -0.387 OA
ATOM     75  H   UNL     1       3.647  -8.770  24.084  0.00  0.00    +0.210 HD
ENDBRANCH  67  74
ENDBRANCH  63  64
ENDBRANCH  57  63
ENDBRANCH  51  55
ENDBRANCH  50  51
ENDBRANCH   1  50
TORSDOF 25
ENDMDL
MODEL 5
REMARK VINA RESULT:      -6.1      1.446      2.018
REMARK  Name = 
REMARK  26 active torsions:
REMARK  status: ('A' for Active; 'I' for Inactive)
REMARK    1  A    between atoms: C_1  and  C_2
REMARK    2  A    between atoms: C_3  and  O_72
REMARK    3  A    between atoms: C_5  and  O_59
REMARK    4  A    between atoms: C_6  and  O_58
REMARK    5  A    between atoms: C_8  and  O_11
REMARK    6  A    between atoms: O_11  and  C_12
REMARK    7  A    between atoms: C_12  and  C_13
REMARK    8  A    between atoms: C_14  and  O_57
REMARK    9  A    between atoms: C_16  and  O_56
REMARK   10  A    between atoms: C_18  and  O_44
REMARK   11  A    between atoms: C_19  and  O_22
REMARK   12  A    between atoms: O_22  and  C_23
REMARK   13  A    between atoms: C_24  and  C_36
REMARK   14  A    between atoms: C_28  and  O_35
REMARK   15  A    between atoms: C_30  and  O_34
REMARK   16  A    between atoms: C_38  and  O_43
REMARK   17  A    between atoms: C_39  and  O_42
REMARK   18  A    between atoms: O_44  and  C_45
REMARK   19  A    between atoms: C_47  and  O_55
REMARK   20  A    between atoms: C_49  and  C_52
REMARK   21  A    between atoms: C_49  and  O_54
REMARK   22  A    between atoms: C_52  and  O_53
REMARK   23  A    between atoms: O_59  and  C_60
REMARK   24  A    between atoms: C_62  and  O_71
REMARK   25  A    between atoms: C_63  and  O_70
REMARK   26  A    between atoms: C_65  and  O_69
REMARK                            x       y       z     vdW  Elec       q    Type
REMARK                         _______ _______ _______ _____ _____    ______ ____
ROOT
ATOM      1  C   UNL     1       3.004   0.861  28.343  0.00  0.00    +0.179 C 
ATOM      2  O   UNL     1       4.043   0.074  27.714  0.00  0.00    -0.331 OA
ATOM      3  C   UNL     1       3.688  -1.203  27.172  0.00  0.00    +0.340 C 
ATOM      4  C   UNL     1       2.658  -2.076  27.940  0.00  0.00    +0.221 C 
ATOM      5  C   UNL     1       1.508  -1.153  28.348  0.00  0.00    +0.180 C 
ATOM      6  C   UNL     1       2.062  -0.020  29.210  0.00  0.00    +0.177 C 
ENDROOT
BRANCH   6   7
ATOM      7  O   UNL     1       0.939   0.691  29.747  0.00  0.00    -0.386 OA
ATOM      8  H   UNL     1       0.173   0.087  29.720  0.00  0.00    +0.210 HD
ENDBRANCH   6   7
BRANCH   5   9
ATOM      9  O   UNL     1       0.443  -1.840  29.013  0.00  0.00    -0.386 OA
ATOM     10  H   UNL     1       0.603  -1.680  29.970  0.00  0.00    +0.210 HD
ENDBRANCH   5   9
BRANCH   4  11
ATOM     11  O   UNL     1       3.255  -2.799  29.041  0.00  0.00    -0.337 OA
BRANCH  11  12
ATOM     12  C   UNL     1       3.106  -4.225  28.967  0.00  0.00    +0.282 C 
ATOM     13  O   UNL     1       3.306  -4.852  30.249  0.00  0.00    -0.346 OA
ATOM     14  C   UNL     1       3.833  -6.184  30.010  0.00  0.00    +0.202 C 
ATOM     15  C   UNL     1       4.098  -6.330  28.506  0.00  0.00    +0.142 C 
ATOM     16  C   UNL     1       4.161  -4.875  28.063  0.00  0.00    +0.206 C 
BRANCH  15  17
ATOM     17  O   UNL     1       3.000  -6.991  27.849  0.00  0.00    -0.381 OA
ATOM     18  H   UNL     1       2.425  -7.413  28.512  0.00  0.00    +0.210 HD
ENDBRANCH  15  17
BRANCH  16  19
ATOM     19  O   UNL     1       5.460  -4.298  28.327  0.00  0.00    -0.384 OA
ATOM     20  H   UNL     1       5.993  -5.009  28.742  0.00  0.00    +0.210 HD
ENDBRANCH  16  19
BRANCH  15  21
ATOM     21  C   UNL     1       5.376  -7.116  28.177  0.00  0.00    +0.195 C 
BRANCH  21  22
ATOM     22  O   UNL     1       6.331  -7.110  29.233  0.00  0.00    -0.392 OA
ATOM     23  H   UNL     1       6.041  -7.815  29.855  0.00  0.00    +0.210 HD
ENDBRANCH  21  22
ENDBRANCH  15  21
ENDBRANCH  11  12
ENDBRANCH   4  11
BRANCH   3  24
ATOM     24  O   UNL     1       4.738  -2.013  26.609  0.00  0.00    -0.453 OA
BRANCH  24  25
ATOM     25  C   UNL     1       5.655  -1.764  25.618  0.00  0.00    +0.214 A 
ATOM     26  C   UNL     1       6.840  -0.825  25.712  0.00  0.00    +0.238 A 
ATOM     27  O   UNL     1       6.930  -0.003  26.617  0.00  0.00    -0.283 OA
ATOM     28  C   UNL     1       7.895  -0.984  24.664  0.00  0.00    +0.109 A 
ATOM     29  C   UNL     1       7.514  -1.580  23.459  0.00  0.00    +0.147 A 
ATOM     30  C   UNL     1       8.397  -1.755  22.382  0.00  0.00    +0.092 A 
ATOM     31  C   UNL     1       9.714  -1.349  22.522  0.00  0.00    +0.124 A 
ATOM     32  C   UNL     1      10.144  -0.785  23.721  0.00  0.00    +0.091 A 
ATOM     33  O   UNL     1       6.260  -2.082  23.292  0.00  0.00    -0.451 OA
ATOM     34  C   UNL     1       9.241  -0.605  24.783  0.00  0.00    +0.135 A 
ATOM     35  C   UNL     1       5.579  -2.436  24.444  0.00  0.00    +0.181 A 
BRANCH  35  36
ATOM     36  C   UNL     1       5.013  -3.800  24.344  0.00  0.00    +0.025 A 
ATOM     37  C   UNL     1       5.941  -4.844  24.562  0.00  0.00    +0.015 A 
ATOM     38  C   UNL     1       5.542  -6.167  24.660  0.00  0.00    +0.050 A 
ATOM     39  C   UNL     1       4.191  -6.448  24.644  0.00  0.00    +0.158 A 
ATOM     40  C   UNL     1       3.252  -5.436  24.463  0.00  0.00    +0.159 A 
ATOM     41  C   UNL     1       3.657  -4.118  24.233  0.00  0.00    +0.060 A 
BRANCH  40  42
ATOM     42  O   UNL     1       1.941  -5.766  24.652  0.00  0.00    -0.503 OA
ATOM     43  H   UNL     1       1.866  -6.408  25.364  0.00  0.00    +0.292 HD
ENDBRANCH  40  42
BRANCH  39  44
ATOM     44  O   UNL     1       3.784  -7.727  24.887  0.00  0.00    -0.503 OA
ATOM     45  H   UNL     1       3.430  -8.039  24.036  0.00  0.00    +0.292 HD
ENDBRANCH  39  44
ENDBRANCH  35  36
BRANCH  34  46
ATOM     46  O   UNL     1       9.706  -0.081  25.958  0.00  0.00    -0.506 OA
ATOM     47  H   UNL     1       8.974   0.007  26.589  0.00  0.00    +0.292 HD
ENDBRANCH  34  46
BRANCH  31  48
ATOM     48  O   UNL     1      10.616  -1.492  21.511  0.00  0.00    -0.507 OA
ATOM     49  H   UNL     1      11.267  -2.175  21.749  0.00  0.00    +0.292 HD
ENDBRANCH  31  48
ENDBRANCH  24  25
ENDBRANCH   3  24
BRANCH   1  50
ATOM     50  C   UNL     1       2.171   1.781  27.385  0.00  0.00    +0.197 C 
BRANCH  50  51
ATOM     51  O   UNL     1       2.349   3.187  27.534  0.00  0.00    -0.346 OA
BRANCH  51  55
ATOM     52  C   UNL     1       5.626   5.490  29.031  0.00  0.00    +0.041 C 
ATOM     53  C   UNL     1       4.781   5.902  27.827  0.00  0.00    +0.149 C 
ATOM     54  O   UNL     1       3.553   5.152  27.788  0.00  0.00    -0.343 OA
ATOM     55  C   UNL     1       3.642   3.771  27.369  0.00  0.00    +0.282 C 
ATOM     56  C   UNL     1       4.267   3.722  25.954  0.00  0.00    +0.202 C 
ATOM     57  C   UNL     1       5.657   4.371  26.043  0.00  0.00    +0.186 C 
ATOM     58  C   UNL     1       5.560   5.832  26.495  0.00  0.00    +0.174 C 
BRANCH  58  59
ATOM     59  O   UNL     1       4.894   6.618  25.497  0.00  0.00    -0.387 OA
ATOM     60  H   UNL     1       5.392   7.449  25.406  0.00  0.00    +0.210 HD
ENDBRANCH  58  59
BRANCH  56  61
ATOM     61  O   UNL     1       3.471   4.389  24.959  0.00  0.00    -0.384 OA
ATOM     62  H   UNL     1       4.086   4.969  24.461  0.00  0.00    +0.210 HD
ENDBRANCH  56  61
BRANCH  57  63
ATOM     63  O   UNL     1       6.311   4.145  24.782  0.00  0.00    -0.340 OA
BRANCH  63  64
ATOM     64  C   UNL     1       6.556   2.771  24.427  0.00  0.00    +0.282 C 
ATOM     65  O   UNL     1       7.974   2.542  24.483  0.00  0.00    -0.346 OA
ATOM     66  C   UNL     1       8.727   3.299  23.525  0.00  0.00    +0.197 C 
ATOM     67  C   UNL     1       8.257   3.076  22.077  0.00  0.00    +0.171 C 
ATOM     68  C   UNL     1       6.744   3.248  21.958  0.00  0.00    +0.178 C 
ATOM     69  C   UNL     1       6.057   2.364  23.015  0.00  0.00    +0.201 C 
BRANCH  69  70
ATOM     70  O   UNL     1       4.630   2.395  22.897  0.00  0.00    -0.384 OA
ATOM     71  H   UNL     1       4.305   3.198  23.346  0.00  0.00    +0.210 HD
ENDBRANCH  69  70
BRANCH  68  72
ATOM     72  O   UNL     1       6.405   4.636  22.078  0.00  0.00    -0.386 OA
ATOM     73  H   UNL     1       7.082   5.143  21.590  0.00  0.00    +0.210 HD
ENDBRANCH  68  72
BRANCH  67  74
ATOM     74  O   UNL     1       8.635   1.775  21.636  0.00  0.00    -0.387 OA
ATOM     75  H   UNL     1       9.607   1.716  21.646  0.00  0.00    +0.210 HD
ENDBRANCH  67  74
ENDBRANCH  63  64
ENDBRANCH  57  63
ENDBRANCH  51  55
ENDBRANCH  50  51
ENDBRANCH   1  50
TORSDOF 25
ENDMDL
MODEL 6
REMARK VINA RESULT:      -6.0      1.873      6.251
REMARK  Name = 
REMARK  26 active torsions:
REMARK  status: ('A' for Active; 'I' for Inactive)
REMARK    1  A    between atoms: C_1  and  C_2
REMARK    2  A    between atoms: C_3  and  O_72
REMARK    3  A    between atoms: C_5  and  O_59
REMARK    4  A    between atoms: C_6  and  O_58
REMARK    5  A    between atoms: C_8  and  O_11
REMARK    6  A    between atoms: O_11  and  C_12
REMARK    7  A    between atoms: C_12  and  C_13
REMARK    8  A    between atoms: C_14  and  O_57
REMARK    9  A    between atoms: C_16  and  O_56
REMARK   10  A    between atoms: C_18  and  O_44
REMARK   11  A    between atoms: C_19  and  O_22
REMARK   12  A    between atoms: O_22  and  C_23
REMARK   13  A    between atoms: C_24  and  C_36
REMARK   14  A    between atoms: C_28  and  O_35
REMARK   15  A    between atoms: C_30  and  O_34
REMARK   16  A    between atoms: C_38  and  O_43
REMARK   17  A    between atoms: C_39  and  O_42
REMARK   18  A    between atoms: O_44  and  C_45
REMARK   19  A    between atoms: C_47  and  O_55
REMARK   20  A    between atoms: C_49  and  C_52
REMARK   21  A    between atoms: C_49  and  O_54
REMARK   22  A    between atoms: C_52  and  O_53
REMARK   23  A    between atoms: O_59  and  C_60
REMARK   24  A    between atoms: C_62  and  O_71
REMARK   25  A    between atoms: C_63  and  O_70
REMARK   26  A    between atoms: C_65  and  O_69
REMARK                            x       y       z     vdW  Elec       q    Type
REMARK                         _______ _______ _______ _____ _____    ______ ____
ROOT
ATOM      1  C   UNL     1       8.169  -2.480  24.937  0.00  0.00    +0.179 C 
ATOM      2  O   UNL     1       6.849  -2.066  25.366  0.00  0.00    -0.331 OA
ATOM      3  C   UNL     1       6.218  -2.808  26.415  0.00  0.00    +0.340 C 
ATOM      4  C   UNL     1       6.402  -4.350  26.450  0.00  0.00    +0.221 C 
ATOM      5  C   UNL     1       7.887  -4.627  26.204  0.00  0.00    +0.180 C 
ATOM      6  C   UNL     1       8.287  -4.028  24.857  0.00  0.00    +0.177 C 
ENDROOT
BRANCH   6   7
ATOM      7  O   UNL     1       9.612  -4.491  24.565  0.00  0.00    -0.386 OA
ATOM      8  H   UNL     1       9.696  -4.539  23.595  0.00  0.00    +0.210 HD
ENDBRANCH   6   7
BRANCH   5   9
ATOM      9  O   UNL     1       8.220  -6.017  26.274  0.00  0.00    -0.386 OA
ATOM     10  H   UNL     1       7.358  -6.475  26.387  0.00  0.00    +0.210 HD
ENDBRANCH   5   9
BRANCH   4  11
ATOM     11  O   UNL     1       5.514  -5.037  25.538  0.00  0.00    -0.337 OA
BRANCH  11  12
ATOM     12  C   UNL     1       4.745  -6.091  26.137  0.00  0.00    +0.282 C 
ATOM     13  O   UNL     1       4.535  -7.186  25.225  0.00  0.00    -0.346 OA
ATOM     14  C   UNL     1       3.271  -7.812  25.571  0.00  0.00    +0.202 C 
ATOM     15  C   UNL     1       2.606  -6.969  26.668  0.00  0.00    +0.142 C 
ATOM     16  C   UNL     1       3.328  -5.638  26.512  0.00  0.00    +0.206 C 
BRANCH  15  17
ATOM     17  O   UNL     1       2.871  -7.517  27.973  0.00  0.00    -0.381 OA
ATOM     18  H   UNL     1       2.137  -7.303  28.575  0.00  0.00    +0.210 HD
ENDBRANCH  15  17
BRANCH  16  19
ATOM     19  O   UNL     1       2.761  -4.852  25.439  0.00  0.00    -0.384 OA
ATOM     20  H   UNL     1       3.504  -4.336  25.060  0.00  0.00    +0.210 HD
ENDBRANCH  16  19
BRANCH  15  21
ATOM     21  C   UNL     1       1.082  -6.850  26.516  0.00  0.00    +0.195 C 
BRANCH  21  22
ATOM     22  O   UNL     1       0.576  -5.567  26.874  0.00  0.00    -0.392 OA
ATOM     23  H   UNL     1       1.364  -4.982  26.937  0.00  0.00    +0.210 HD
ENDBRANCH  21  22
ENDBRANCH  15  21
ENDBRANCH  11  12
ENDBRANCH   4  11
BRANCH   3  24
ATOM     24  O   UNL     1       4.877  -2.437  26.792  0.00  0.00    -0.453 OA
BRANCH  24  25
ATOM     25  C   UNL     1       4.372  -1.303  27.378  0.00  0.00    +0.214 A 
ATOM     26  C   UNL     1       4.155   0.034  26.698  0.00  0.00    +0.238 A 
ATOM     27  O   UNL     1       4.662   0.284  25.610  0.00  0.00    -0.283 OA
ATOM     28  C   UNL     1       3.269   1.003  27.413  0.00  0.00    +0.109 A 
ATOM     29  C   UNL     1       3.126   0.840  28.793  0.00  0.00    +0.147 A 
ATOM     30  C   UNL     1       2.353   1.703  29.588  0.00  0.00    +0.092 A 
ATOM     31  C   UNL     1       1.675   2.746  28.979  0.00  0.00    +0.124 A 
ATOM     32  C   UNL     1       1.760   2.921  27.600  0.00  0.00    +0.091 A 
ATOM     33  O   UNL     1       3.692  -0.218  29.435  0.00  0.00    -0.451 OA
ATOM     34  C   UNL     1       2.551   2.055  26.824  0.00  0.00    +0.135 A 
ATOM     35  C   UNL     1       3.956  -1.338  28.666  0.00  0.00    +0.181 A 
BRANCH  35  36
ATOM     36  C   UNL     1       3.430  -2.568  29.299  0.00  0.00    +0.025 A 
ATOM     37  C   UNL     1       2.022  -2.689  29.283  0.00  0.00    +0.015 A 
ATOM     38  C   UNL     1       1.383  -3.849  29.690  0.00  0.00    +0.050 A 
ATOM     39  C   UNL     1       2.157  -4.942  30.022  0.00  0.00    +0.158 A 
ATOM     40  C   UNL     1       3.547  -4.863  30.015  0.00  0.00    +0.159 A 
ATOM     41  C   UNL     1       4.193  -3.656  29.731  0.00  0.00    +0.060 A 
BRANCH  40  42
ATOM     42  O   UNL     1       4.235  -6.032  30.166  0.00  0.00    -0.503 OA
ATOM     43  H   UNL     1       3.625  -6.776  30.128  0.00  0.00    +0.292 HD
ENDBRANCH  40  42
BRANCH  39  44
ATOM     44  O   UNL     1       1.538  -6.129  30.280  0.00  0.00    -0.503 OA
ATOM     45  H   UNL     1       1.948  -6.760  29.664  0.00  0.00    +0.292 HD
ENDBRANCH  39  44
ENDBRANCH  35  36
BRANCH  34  46
ATOM     46  O   UNL     1       2.583   2.234  25.468  0.00  0.00    -0.506 OA
ATOM     47  H   UNL     1       2.380   3.159  25.257  0.00  0.00    +0.292 HD
ENDBRANCH  34  46
BRANCH  31  48
ATOM     48  O   UNL     1       0.912   3.616  29.698  0.00  0.00    -0.507 OA
ATOM     49  H   UNL     1       1.482   4.291  30.105  0.00  0.00    +0.292 HD
ENDBRANCH  31  48
ENDBRANCH  24  25
ENDBRANCH   3  24
BRANCH   1  50
ATOM     50  C   UNL     1       9.369  -1.876  25.745  0.00  0.00    +0.197 C 
BRANCH  50  51
ATOM     51  O   UNL     1       9.820  -0.584  25.348  0.00  0.00    -0.346 OA
BRANCH  51  55
ATOM     52  C   UNL     1       9.319  -0.017  21.140  0.00  0.00    +0.041 C 
ATOM     53  C   UNL     1       9.862   1.058  22.081  0.00  0.00    +0.149 C 
ATOM     54  O   UNL     1      10.265   0.477  23.336  0.00  0.00    -0.343 OA
ATOM     55  C   UNL     1       9.210   0.084  24.243  0.00  0.00    +0.282 C 
ATOM     56  C   UNL     1       8.340   1.326  24.557  0.00  0.00    +0.202 C 
ATOM     57  C   UNL     1       7.770   1.836  23.225  0.00  0.00    +0.186 C 
ATOM     58  C   UNL     1       8.890   2.243  22.262  0.00  0.00    +0.174 C 
BRANCH  58  59
ATOM     59  O   UNL     1       9.597   3.382  22.774  0.00  0.00    -0.387 OA
ATOM     60  H   UNL     1       9.765   3.978  22.024  0.00  0.00    +0.210 HD
ENDBRANCH  58  59
BRANCH  56  61
ATOM     61  O   UNL     1       9.066   2.375  25.220  0.00  0.00    -0.384 OA
ATOM     62  H   UNL     1       8.405   2.878  25.740  0.00  0.00    +0.210 HD
ENDBRANCH  56  61
BRANCH  57  63
ATOM     63  O   UNL     1       6.809   2.858  23.540  0.00  0.00    -0.340 OA
BRANCH  63  64
ATOM     64  C   UNL     1       6.143   3.476  22.423  0.00  0.00    +0.282 C 
ATOM     65  O   UNL     1       6.817   4.711  22.129  0.00  0.00    -0.346 OA
ATOM     66  C   UNL     1       6.733   5.686  23.177  0.00  0.00    +0.197 C 
ATOM     67  C   UNL     1       5.286   6.009  23.587  0.00  0.00    +0.171 C 
ATOM     68  C   UNL     1       4.495   4.732  23.859  0.00  0.00    +0.178 C 
ATOM     69  C   UNL     1       4.640   3.788  22.651  0.00  0.00    +0.201 C 
BRANCH  69  70
ATOM     70  O   UNL     1       3.840   2.608  22.790  0.00  0.00    -0.384 OA
ATOM     71  H   UNL     1       2.923   2.884  22.981  0.00  0.00    +0.210 HD
ENDBRANCH  69  70
BRANCH  68  72
ATOM     72  O   UNL     1       4.935   4.143  25.090  0.00  0.00    -0.386 OA
ATOM     73  H   UNL     1       5.284   3.257  24.878  0.00  0.00    +0.210 HD
ENDBRANCH  68  72
BRANCH  67  74
ATOM     74  O   UNL     1       4.647   6.769  22.564  0.00  0.00    -0.387 OA
ATOM     75  H   UNL     1       5.010   6.495  21.703  0.00  0.00    +0.210 HD
ENDBRANCH  67  74
ENDBRANCH  63  64
ENDBRANCH  57  63
ENDBRANCH  51  55
ENDBRANCH  50  51
ENDBRANCH   1  50
TORSDOF 25
ENDMDL
MODEL 7
REMARK VINA RESULT:      -6.0      1.477      2.247
REMARK  Name = 
REMARK  26 active torsions:
REMARK  status: ('A' for Active; 'I' for Inactive)
REMARK    1  A    between atoms: C_1  and  C_2
REMARK    2  A    between atoms: C_3  and  O_72
REMARK    3  A    between atoms: C_5  and  O_59
REMARK    4  A    between atoms: C_6  and  O_58
REMARK    5  A    between atoms: C_8  and  O_11
REMARK    6  A    between atoms: O_11  and  C_12
REMARK    7  A    between atoms: C_12  and  C_13
REMARK    8  A    between atoms: C_14  and  O_57
REMARK    9  A    between atoms: C_16  and  O_56
REMARK   10  A    between atoms: C_18  and  O_44
REMARK   11  A    between atoms: C_19  and  O_22
REMARK   12  A    between atoms: O_22  and  C_23
REMARK   13  A    between atoms: C_24  and  C_36
REMARK   14  A    between atoms: C_28  and  O_35
REMARK   15  A    between atoms: C_30  and  O_34
REMARK   16  A    between atoms: C_38  and  O_43
REMARK   17  A    between atoms: C_39  and  O_42
REMARK   18  A    between atoms: O_44  and  C_45
REMARK   19  A    between atoms: C_47  and  O_55
REMARK   20  A    between atoms: C_49  and  C_52
REMARK   21  A    between atoms: C_49  and  O_54
REMARK   22  A    between atoms: C_52  and  O_53
REMARK   23  A    between atoms: O_59  and  C_60
REMARK   24  A    between atoms: C_62  and  O_71
REMARK   25  A    between atoms: C_63  and  O_70
REMARK   26  A    between atoms: C_65  and  O_69
REMARK                            x       y       z     vdW  Elec       q    Type
REMARK                         _______ _______ _______ _____ _____    ______ ____
ROOT
ATOM      1  C   UNL     1       3.630   1.095  28.958  0.00  0.00    +0.179 C 
ATOM      2  O   UNL     1       4.613   0.175  28.424  0.00  0.00    -0.331 OA
ATOM      3  C   UNL     1       4.163  -0.844  27.524  0.00  0.00    +0.340 C 
ATOM      4  C   UNL     1       2.792  -1.522  27.793  0.00  0.00    +0.221 C 
ATOM      5  C   UNL     1       1.800  -0.406  28.125  0.00  0.00    +0.180 C 
ATOM      6  C   UNL     1       2.311   0.368  29.340  0.00  0.00    +0.177 C 
ENDROOT
BRANCH   6   7
ATOM      7  O   UNL     1       1.261   1.254  29.749  0.00  0.00    -0.386 OA
ATOM      8  H   UNL     1       1.683   2.053  30.117  0.00  0.00    +0.210 HD
ENDBRANCH   6   7
BRANCH   5   9
ATOM      9  O   UNL     1       0.467  -0.880  28.335  0.00  0.00    -0.386 OA
ATOM     10  H   UNL     1      -0.074  -0.408  27.664  0.00  0.00    +0.210 HD
ENDBRANCH   5   9
BRANCH   4  11
ATOM     11  O   UNL     1       2.873  -2.559  28.799  0.00  0.00    -0.337 OA
BRANCH  11  12
ATOM     12  C   UNL     1       2.100  -3.733  28.506  0.00  0.00    +0.282 C 
ATOM     13  O   UNL     1       0.891  -3.786  29.287  0.00  0.00    -0.346 OA
ATOM     14  C   UNL     1       0.559  -5.185  29.492  0.00  0.00    +0.202 C 
ATOM     15  C   UNL     1       1.703  -6.034  28.920  0.00  0.00    +0.142 C 
ATOM     16  C   UNL     1       2.841  -5.025  28.874  0.00  0.00    +0.206 C 
BRANCH  15  17
ATOM     17  O   UNL     1       1.396  -6.485  27.587  0.00  0.00    -0.381 OA
ATOM     18  H   UNL     1       1.792  -7.361  27.437  0.00  0.00    +0.210 HD
ENDBRANCH  15  17
BRANCH  16  19
ATOM     19  O   UNL     1       3.473  -4.881  30.165  0.00  0.00    -0.384 OA
ATOM     20  H   UNL     1       3.779  -5.777  30.419  0.00  0.00    +0.210 HD
ENDBRANCH  16  19
BRANCH  15  21
ATOM     21  C   UNL     1       2.032  -7.275  29.764  0.00  0.00    +0.195 C 
BRANCH  21  22
ATOM     22  O   UNL     1       3.234  -7.927  29.367  0.00  0.00    -0.392 OA
ATOM     23  H   UNL     1       3.377  -8.642  30.028  0.00  0.00    +0.210 HD
ENDBRANCH  21  22
ENDBRANCH  15  21
ENDBRANCH  11  12
ENDBRANCH   4  11
BRANCH   3  24
ATOM     24  O   UNL     1       5.132  -1.800  27.049  0.00  0.00    -0.453 OA
BRANCH  24  25
ATOM     25  C   UNL     1       6.008  -1.768  25.993  0.00  0.00    +0.214 A 
ATOM     26  C   UNL     1       6.826  -0.574  25.547  0.00  0.00    +0.238 A 
ATOM     27  O   UNL     1       6.575   0.557  25.950  0.00  0.00    -0.283 OA
ATOM     28  C   UNL     1       7.966  -0.861  24.622  0.00  0.00    +0.109 A 
ATOM     29  C   UNL     1       7.897  -2.037  23.870  0.00  0.00    +0.147 A 
ATOM     30  C   UNL     1       8.882  -2.406  22.939  0.00  0.00    +0.092 A 
ATOM     31  C   UNL     1       9.988  -1.589  22.774  0.00  0.00    +0.124 A 
ATOM     32  C   UNL     1      10.113  -0.427  23.532  0.00  0.00    +0.091 A 
ATOM     33  O   UNL     1       6.883  -2.926  24.052  0.00  0.00    -0.451 OA
ATOM     34  C   UNL     1       9.110  -0.067  24.449  0.00  0.00    +0.135 A 
ATOM     35  C   UNL     1       6.248  -2.895  25.282  0.00  0.00    +0.181 A 
BRANCH  35  36
ATOM     36  C   UNL     1       6.149  -4.247  25.876  0.00  0.00    +0.025 A 
ATOM     37  C   UNL     1       6.982  -4.465  26.997  0.00  0.00    +0.015 A 
ATOM     38  C   UNL     1       6.892  -5.617  27.761  0.00  0.00    +0.050 A 
ATOM     39  C   UNL     1       5.891  -6.521  27.470  0.00  0.00    +0.158 A 
ATOM     40  C   UNL     1       5.034  -6.316  26.392  0.00  0.00    +0.159 A 
ATOM     41  C   UNL     1       5.205  -5.221  25.541  0.00  0.00    +0.060 A 
BRANCH  40  42
ATOM     42  O   UNL     1       3.958  -7.150  26.290  0.00  0.00    -0.503 OA
ATOM     43  H   UNL     1       3.236  -6.817  26.832  0.00  0.00    +0.292 HD
ENDBRANCH  40  42
BRANCH  39  44
ATOM     44  O   UNL     1       5.703  -7.581  28.306  0.00  0.00    -0.503 OA
ATOM     45  H   UNL     1       4.751  -7.776  28.246  0.00  0.00    +0.292 HD
ENDBRANCH  39  44
ENDBRANCH  35  36
BRANCH  34  46
ATOM     46  O   UNL     1       9.283   1.062  25.202  0.00  0.00    -0.506 OA
ATOM     47  H   UNL     1       8.595   1.107  25.884  0.00  0.00    +0.292 HD
ENDBRANCH  34  46
BRANCH  31  48
ATOM     48  O   UNL     1      10.974  -1.894  21.886  0.00  0.00    -0.507 OA
ATOM     49  H   UNL     1      10.621  -2.482  21.195  0.00  0.00    +0.292 HD
ENDBRANCH  31  48
ENDBRANCH  24  25
ENDBRANCH   3  24
BRANCH   1  50
ATOM     50  C   UNL     1       3.330   2.357  28.079  0.00  0.00    +0.197 C 
BRANCH  50  51
ATOM     51  O   UNL     1       2.430   2.177  26.989  0.00  0.00    -0.346 OA
BRANCH  51  55
ATOM     52  C   UNL     1       0.448   4.814  24.268  0.00  0.00    +0.041 C 
ATOM     53  C   UNL     1       1.158   3.530  23.838  0.00  0.00    +0.149 C 
ATOM     54  O   UNL     1       1.398   2.679  24.975  0.00  0.00    -0.343 OA
ATOM     55  C   UNL     1       2.456   3.073  25.877  0.00  0.00    +0.282 C 
ATOM     56  C   UNL     1       3.778   3.170  25.076  0.00  0.00    +0.202 C 
ATOM     57  C   UNL     1       3.569   4.215  23.969  0.00  0.00    +0.186 C 
ATOM     58  C   UNL     1       2.439   3.799  23.020  0.00  0.00    +0.174 C 
BRANCH  58  59
ATOM     59  O   UNL     1       2.811   2.620  22.292  0.00  0.00    -0.387 OA
ATOM     60  H   UNL     1       3.566   2.220  22.759  0.00  0.00    +0.210 HD
ENDBRANCH  58  59
BRANCH  56  61
ATOM     61  O   UNL     1       4.188   1.917  24.504  0.00  0.00    -0.384 OA
ATOM     62  H   UNL     1       3.929   1.225  25.147  0.00  0.00    +0.210 HD
ENDBRANCH  56  61
BRANCH  57  63
ATOM     63  O   UNL     1       4.850   4.448  23.359  0.00  0.00    -0.340 OA
BRANCH  63  64
ATOM     64  C   UNL     1       5.890   4.937  24.225  0.00  0.00    +0.282 C 
ATOM     65  O   UNL     1       6.098   6.329  23.931  0.00  0.00    -0.346 OA
ATOM     66  C   UNL     1       6.589   6.580  22.607  0.00  0.00    +0.197 C 
ATOM     67  C   UNL     1       7.887   5.818  22.291  0.00  0.00    +0.171 C 
ATOM     68  C   UNL     1       7.753   4.337  22.636  0.00  0.00    +0.178 C 
ATOM     69  C   UNL     1       7.252   4.206  24.086  0.00  0.00    +0.201 C 
BRANCH  69  70
ATOM     70  O   UNL     1       7.199   2.840  24.516  0.00  0.00    -0.384 OA
ATOM     71  H   UNL     1       6.655   2.798  25.325  0.00  0.00    +0.210 HD
ENDBRANCH  69  70
BRANCH  68  72
ATOM     72  O   UNL     1       6.896   3.694  21.683  0.00  0.00    -0.386 OA
ATOM     73  H   UNL     1       7.396   3.618  20.849  0.00  0.00    +0.210 HD
ENDBRANCH  68  72
BRANCH  67  74
ATOM     74  O   UNL     1       8.976   6.389  23.011  0.00  0.00    -0.387 OA
ATOM     75  H   UNL     1       8.834   7.351  23.073  0.00  0.00    +0.210 HD
ENDBRANCH  67  74
ENDBRANCH  63  64
ENDBRANCH  57  63
ENDBRANCH  51  55
ENDBRANCH  50  51
ENDBRANCH   1  50
TORSDOF 25
ENDMDL
MODEL 8
REMARK VINA RESULT:      -5.9      2.046      6.947
REMARK  Name = 
REMARK  26 active torsions:
REMARK  status: ('A' for Active; 'I' for Inactive)
REMARK    1  A    between atoms: C_1  and  C_2
REMARK    2  A    between atoms: C_3  and  O_72
REMARK    3  A    between atoms: C_5  and  O_59
REMARK    4  A    between atoms: C_6  and  O_58
REMARK    5  A    between atoms: C_8  and  O_11
REMARK    6  A    between atoms: O_11  and  C_12
REMARK    7  A    between atoms: C_12  and  C_13
REMARK    8  A    between atoms: C_14  and  O_57
REMARK    9  A    between atoms: C_16  and  O_56
REMARK   10  A    between atoms: C_18  and  O_44
REMARK   11  A    between atoms: C_19  and  O_22
REMARK   12  A    between atoms: O_22  and  C_23
REMARK   13  A    between atoms: C_24  and  C_36
REMARK   14  A    between atoms: C_28  and  O_35
REMARK   15  A    between atoms: C_30  and  O_34
REMARK   16  A    between atoms: C_38  and  O_43
REMARK   17  A    between atoms: C_39  and  O_42
REMARK   18  A    between atoms: O_44  and  C_45
REMARK   19  A    between atoms: C_47  and  O_55
REMARK   20  A    between atoms: C_49  and  C_52
REMARK   21  A    between atoms: C_49  and  O_54
REMARK   22  A    between atoms: C_52  and  O_53
REMARK   23  A    between atoms: O_59  and  C_60
REMARK   24  A    between atoms: C_62  and  O_71
REMARK   25  A    between atoms: C_63  and  O_70
REMARK   26  A    between atoms: C_65  and  O_69
REMARK                            x       y       z     vdW  Elec       q    Type
REMARK                         _______ _______ _______ _____ _____    ______ ____
ROOT
ATOM      1  C   UNL     1       8.458   1.121  23.553  0.00  0.00    +0.179 C 
ATOM      2  O   UNL     1       7.949   0.538  24.776  0.00  0.00    -0.331 OA
ATOM      3  C   UNL     1       8.336  -0.802  25.097  0.00  0.00    +0.340 C 
ATOM      4  C   UNL     1       8.457  -1.838  23.946  0.00  0.00    +0.221 C 
ATOM      5  C   UNL     1       9.215  -1.152  22.807  0.00  0.00    +0.180 C 
ATOM      6  C   UNL     1       8.448   0.099  22.382  0.00  0.00    +0.177 C 
ENDROOT
BRANCH   6   7
ATOM      7  O   UNL     1       9.066   0.587  21.184  0.00  0.00    -0.386 OA
ATOM      8  H   UNL     1       9.414   1.477  21.379  0.00  0.00    +0.210 HD
ENDBRANCH   6   7
BRANCH   5   9
ATOM      9  O   UNL     1       9.460  -2.015  21.693  0.00  0.00    -0.386 OA
ATOM     10  H   UNL     1       9.201  -2.909  22.008  0.00  0.00    +0.210 HD
ENDBRANCH   5   9
BRANCH   4  11
ATOM     11  O   UNL     1       7.176  -2.386  23.556  0.00  0.00    -0.337 OA
BRANCH  11  12
ATOM     12  C   UNL     1       7.255  -3.617  22.820  0.00  0.00    +0.282 C 
ATOM     13  O   UNL     1       6.800  -3.458  21.462  0.00  0.00    -0.346 OA
ATOM     14  C   UNL     1       6.249  -4.730  21.031  0.00  0.00    +0.202 C 
ATOM     15  C   UNL     1       6.242  -5.680  22.236  0.00  0.00    +0.142 C 
ATOM     16  C   UNL     1       6.339  -4.702  23.399  0.00  0.00    +0.206 C 
BRANCH  15  17
ATOM     17  O   UNL     1       7.399  -6.539  22.224  0.00  0.00    -0.381 OA
ATOM     18  H   UNL     1       7.335  -7.167  21.484  0.00  0.00    +0.210 HD
ENDBRANCH  15  17
BRANCH  16  19
ATOM     19  O   UNL     1       5.048  -4.138  23.723  0.00  0.00    -0.384 OA
ATOM     20  H   UNL     1       5.230  -3.278  24.157  0.00  0.00    +0.210 HD
ENDBRANCH  16  19
BRANCH  15  21
ATOM     21  C   UNL     1       4.999  -6.580  22.307  0.00  0.00    +0.195 C 
BRANCH  21  22
ATOM     22  O   UNL     1       4.791  -7.157  23.592  0.00  0.00    -0.392 OA
ATOM     23  H   UNL     1       5.638  -7.603  23.821  0.00  0.00    +0.210 HD
ENDBRANCH  21  22
ENDBRANCH  15  21
ENDBRANCH  11  12
ENDBRANCH   4  11
BRANCH   3  24
ATOM     24  O   UNL     1       7.772  -1.403  26.280  0.00  0.00    -0.453 OA
BRANCH  24  25
ATOM     25  C   UNL     1       6.892  -2.443  26.447  0.00  0.00    +0.214 A 
ATOM     26  C   UNL     1       7.257  -3.896  26.669  0.00  0.00    +0.238 A 
ATOM     27  O   UNL     1       8.394  -4.306  26.461  0.00  0.00    -0.283 OA
ATOM     28  C   UNL     1       6.167  -4.781  27.184  0.00  0.00    +0.109 A 
ATOM     29  C   UNL     1       4.851  -4.373  26.953  0.00  0.00    +0.147 A 
ATOM     30  C   UNL     1       3.736  -5.130  27.351  0.00  0.00    +0.092 A 
ATOM     31  C   UNL     1       3.942  -6.319  28.030  0.00  0.00    +0.124 A 
ATOM     32  C   UNL     1       5.238  -6.742  28.315  0.00  0.00    +0.091 A 
ATOM     33  O   UNL     1       4.582  -3.173  26.372  0.00  0.00    -0.451 OA
ATOM     34  C   UNL     1       6.341  -5.978  27.895  0.00  0.00    +0.135 A 
ATOM     35  C   UNL     1       5.560  -2.200  26.484  0.00  0.00    +0.181 A 
BRANCH  35  36
ATOM     36  C   UNL     1       4.999  -0.918  26.967  0.00  0.00    +0.025 A 
ATOM     37  C   UNL     1       4.907  -0.801  28.372  0.00  0.00    +0.015 A 
ATOM     38  C   UNL     1       4.555   0.390  28.985  0.00  0.00    +0.050 A 
ATOM     39  C   UNL     1       4.389   1.510  28.197  0.00  0.00    +0.158 A 
ATOM     40  C   UNL     1       4.505   1.432  26.812  0.00  0.00    +0.159 A 
ATOM     41  C   UNL     1       4.732   0.206  26.180  0.00  0.00    +0.060 A 
BRANCH  40  42
ATOM     42  O   UNL     1       4.519   2.612  26.124  0.00  0.00    -0.503 OA
ATOM     43  H   UNL     1       4.890   2.474  25.247  0.00  0.00    +0.292 HD
ENDBRANCH  40  42
BRANCH  39  44
ATOM     44  O   UNL     1       4.188   2.715  28.803  0.00  0.00    -0.503 OA
ATOM     45  H   UNL     1       4.165   2.511  29.754  0.00  0.00    +0.292 HD
ENDBRANCH  39  44
ENDBRANCH  35  36
BRANCH  34  46
ATOM     46  O   UNL     1       7.599  -6.406  28.223  0.00  0.00    -0.506 OA
ATOM     47  H   UNL     1       8.257  -5.894  27.727  0.00  0.00    +0.292 HD
ENDBRANCH  34  46
BRANCH  31  48
ATOM     48  O   UNL     1       2.901  -7.096  28.441  0.00  0.00    -0.507 OA
ATOM     49  H   UNL     1       2.864  -7.105  29.413  0.00  0.00    +0.292 HD
ENDBRANCH  31  48
ENDBRANCH  24  25
ENDBRANCH   3  24
BRANCH   1  50
ATOM     50  C   UNL     1       9.858   1.820  23.662  0.00  0.00    +0.197 C 
BRANCH  50  51
ATOM     51  O   UNL     1       9.930   2.979  24.489  0.00  0.00    -0.346 OA
BRANCH  51  55
ATOM     52  C   UNL     1       9.087   7.108  23.768  0.00  0.00    +0.041 C 
ATOM     53  C   UNL     1       8.698   6.375  25.051  0.00  0.00    +0.149 C 
ATOM     54  O   UNL     1       9.422   5.136  25.167  0.00  0.00    -0.343 OA
ATOM     55  C   UNL     1       9.003   4.050  24.310  0.00  0.00    +0.282 C 
ATOM     56  C   UNL     1       7.509   3.749  24.587  0.00  0.00    +0.202 C 
ATOM     57  C   UNL     1       6.719   5.033  24.289  0.00  0.00    +0.186 C 
ATOM     58  C   UNL     1       7.172   6.185  25.193  0.00  0.00    +0.174 C 
BRANCH  58  59
ATOM     59  O   UNL     1       6.840   5.904  26.560  0.00  0.00    -0.387 OA
ATOM     60  H   UNL     1       7.160   5.006  26.755  0.00  0.00    +0.210 HD
ENDBRANCH  58  59
BRANCH  56  61
ATOM     61  O   UNL     1       7.258   3.313  25.934  0.00  0.00    -0.384 OA
ATOM     62  H   UNL     1       6.763   2.471  25.860  0.00  0.00    +0.210 HD
ENDBRANCH  56  61
BRANCH  57  63
ATOM     63  O   UNL     1       5.323   4.695  24.353  0.00  0.00    -0.340 OA
BRANCH  63  64
ATOM     64  C   UNL     1       4.627   4.617  23.095  0.00  0.00    +0.282 C 
ATOM     65  O   UNL     1       4.477   5.953  22.585  0.00  0.00    -0.346 OA
ATOM     66  C   UNL     1       3.653   6.800  23.397  0.00  0.00    +0.197 C 
ATOM     67  C   UNL     1       2.252   6.217  23.649  0.00  0.00    +0.171 C 
ATOM     68  C   UNL     1       2.338   4.774  24.140  0.00  0.00    +0.178 C 
ATOM     69  C   UNL     1       3.220   3.968  23.169  0.00  0.00    +0.201 C 
BRANCH  69  70
ATOM     70  O   UNL     1       3.264   2.577  23.509  0.00  0.00    -0.384 OA
ATOM     71  H   UNL     1       2.657   2.429  24.259  0.00  0.00    +0.210 HD
ENDBRANCH  69  70
BRANCH  68  72
ATOM     72  O   UNL     1       2.820   4.750  25.490  0.00  0.00    -0.386 OA
ATOM     73  H   UNL     1       2.825   5.672  25.812  0.00  0.00    +0.210 HD
ENDBRANCH  68  72
BRANCH  67  74
ATOM     74  O   UNL     1       1.476   6.280  22.455  0.00  0.00    -0.387 OA
ATOM     75  H   UNL     1       1.085   7.170  22.388  0.00  0.00    +0.210 HD
ENDBRANCH  67  74
ENDBRANCH  63  64
ENDBRANCH  57  63
ENDBRANCH  51  55
ENDBRANCH  50  51
ENDBRANCH   1  50
TORSDOF 25
ENDMDL
MODEL 9
REMARK VINA RESULT:      -5.8      1.909      9.867
REMARK  Name = 
REMARK  26 active torsions:
REMARK  status: ('A' for Active; 'I' for Inactive)
REMARK    1  A    between atoms: C_1  and  C_2
REMARK    2  A    between atoms: C_3  and  O_72
REMARK    3  A    between atoms: C_5  and  O_59
REMARK    4  A    between atoms: C_6  and  O_58
REMARK    5  A    between atoms: C_8  and  O_11
REMARK    6  A    between atoms: O_11  and  C_12
REMARK    7  A    between atoms: C_12  and  C_13
REMARK    8  A    between atoms: C_14  and  O_57
REMARK    9  A    between atoms: C_16  and  O_56
REMARK   10  A    between atoms: C_18  and  O_44
REMARK   11  A    between atoms: C_19  and  O_22
REMARK   12  A    between atoms: O_22  and  C_23
REMARK   13  A    between atoms: C_24  and  C_36
REMARK   14  A    between atoms: C_28  and  O_35
REMARK   15  A    between atoms: C_30  and  O_34
REMARK   16  A    between atoms: C_38  and  O_43
REMARK   17  A    between atoms: C_39  and  O_42
REMARK   18  A    between atoms: O_44  and  C_45
REMARK   19  A    between atoms: C_47  and  O_55
REMARK   20  A    between atoms: C_49  and  C_52
REMARK   21  A    between atoms: C_49  and  O_54
REMARK   22  A    between atoms: C_52  and  O_53
REMARK   23  A    between atoms: O_59  and  C_60
REMARK   24  A    between atoms: C_62  and  O_71
REMARK   25  A    between atoms: C_63  and  O_70
REMARK   26  A    between atoms: C_65  and  O_69
REMARK                            x       y       z     vdW  Elec       q    Type
REMARK                         _______ _______ _______ _____ _____    ______ ____
ROOT
ATOM      1  C   UNL     1       8.248  -3.122  25.316  0.00  0.00    +0.179 C 
ATOM      2  O   UNL     1       7.735  -1.807  25.641  0.00  0.00    -0.331 OA
ATOM      3  C   UNL     1       6.609  -1.321  24.902  0.00  0.00    +0.340 C 
ATOM      4  C   UNL     1       6.522  -1.640  23.384  0.00  0.00    +0.221 C 
ATOM      5  C   UNL     1       6.871  -3.120  23.218  0.00  0.00    +0.180 C 
ATOM      6  C   UNL     1       8.270  -3.366  23.781  0.00  0.00    +0.177 C 
ENDROOT
BRANCH   6   7
ATOM      7  O   UNL     1       8.644  -4.702  23.415  0.00  0.00    -0.386 OA
ATOM      8  H   UNL     1       9.073  -4.653  22.540  0.00  0.00    +0.210 HD
ENDBRANCH   6   7
BRANCH   5   9
ATOM      9  O   UNL     1       6.767  -3.576  21.866  0.00  0.00    -0.386 OA
ATOM     10  H   UNL     1       7.068  -2.814  21.323  0.00  0.00    +0.210 HD
ENDBRANCH   5   9
BRANCH   4  11
ATOM     11  O   UNL     1       7.332  -0.748  22.582  0.00  0.00    -0.337 OA
BRANCH  11  12
ATOM     12  C   UNL     1       7.717   0.465  23.247  0.00  0.00    +0.282 C 
ATOM     13  O   UNL     1       7.500   1.622  22.416  0.00  0.00    -0.346 OA
ATOM     14  C   UNL     1       8.486   2.622  22.788  0.00  0.00    +0.202 C 
ATOM     15  C   UNL     1       9.444   1.991  23.808  0.00  0.00    +0.142 C 
ATOM     16  C   UNL     1       9.217   0.505  23.564  0.00  0.00    +0.206 C 
BRANCH  15  17
ATOM     17  O   UNL     1       9.061   2.327  25.155  0.00  0.00    -0.381 OA
ATOM     18  H   UNL     1       8.817   1.519  25.639  0.00  0.00    +0.210 HD
ENDBRANCH  15  17
BRANCH  16  19
ATOM     19  O   UNL     1       9.974   0.035  22.426  0.00  0.00    -0.384 OA
ATOM     20  H   UNL     1      10.131  -0.921  22.582  0.00  0.00    +0.210 HD
ENDBRANCH  16  19
BRANCH  15  21
ATOM     21  C   UNL     1      10.909   2.415  23.624  0.00  0.00    +0.195 C 
BRANCH  21  22
ATOM     22  O   UNL     1      11.061   3.613  22.868  0.00  0.00    -0.392 OA
ATOM     23  H   UNL     1      11.287   3.322  21.956  0.00  0.00    +0.210 HD
ENDBRANCH  21  22
ENDBRANCH  15  21
ENDBRANCH  11  12
ENDBRANCH   4  11
BRANCH   3  24
ATOM     24  O   UNL     1       6.146   0.015  25.180  0.00  0.00    -0.453 OA
BRANCH  24  25
ATOM     25  C   UNL     1       5.144   0.486  25.992  0.00  0.00    +0.214 A 
ATOM     26  C   UNL     1       4.779  -0.048  27.362  0.00  0.00    +0.238 A 
ATOM     27  O   UNL     1       5.197  -1.131  27.756  0.00  0.00    -0.283 OA
ATOM     28  C   UNL     1       3.915   0.834  28.207  0.00  0.00    +0.109 A 
ATOM     29  C   UNL     1       3.130   1.781  27.545  0.00  0.00    +0.147 A 
ATOM     30  C   UNL     1       2.248   2.645  28.216  0.00  0.00    +0.092 A 
ATOM     31  C   UNL     1       2.171   2.581  29.597  0.00  0.00    +0.124 A 
ATOM     32  C   UNL     1       2.965   1.677  30.298  0.00  0.00    +0.091 A 
ATOM     33  O   UNL     1       3.227   1.955  26.199  0.00  0.00    -0.451 OA
ATOM     34  C   UNL     1       3.831   0.811  29.607  0.00  0.00    +0.135 A 
ATOM     35  C   UNL     1       4.418   1.564  25.611  0.00  0.00    +0.181 A 
BRANCH  35  36
ATOM     36  C   UNL     1       4.970   2.627  24.740  0.00  0.00    +0.025 A 
ATOM     37  C   UNL     1       4.393   2.697  23.452  0.00  0.00    +0.015 A 
ATOM     38  C   UNL     1       4.684   3.730  22.577  0.00  0.00    +0.050 A 
ATOM     39  C   UNL     1       5.480   4.765  23.024  0.00  0.00    +0.158 A 
ATOM     40  C   UNL     1       6.035   4.739  24.300  0.00  0.00    +0.159 A 
ATOM     41  C   UNL     1       5.851   3.636  25.139  0.00  0.00    +0.060 A 
BRANCH  40  42
ATOM     42  O   UNL     1       6.646   5.880  24.733  0.00  0.00    -0.503 OA
ATOM     43  H   UNL     1       5.983   6.541  24.954  0.00  0.00    +0.292 HD
ENDBRANCH  40  42
BRANCH  39  44
ATOM     44  O   UNL     1       5.650   5.854  22.223  0.00  0.00    -0.503 OA
ATOM     45  H   UNL     1       4.959   6.479  22.506  0.00  0.00    +0.292 HD
ENDBRANCH  39  44
ENDBRANCH  35  36
BRANCH  34  46
ATOM     46  O   UNL     1       4.623  -0.039  30.329  0.00  0.00    -0.506 OA
ATOM     47  H   UNL     1       4.201  -0.232  31.182  0.00  0.00    +0.292 HD
ENDBRANCH  34  46
BRANCH  31  48
ATOM     48  O   UNL     1       1.334   3.392  30.302  0.00  0.00    -0.507 OA
ATOM     49  H   UNL     1       1.023   2.928  31.099  0.00  0.00    +0.292 HD
ENDBRANCH  31  48
ENDBRANCH  24  25
ENDBRANCH   3  24
BRANCH   1  50
ATOM     50  C   UNL     1       7.563  -4.323  26.056  0.00  0.00    +0.197 C 
BRANCH  50  51
ATOM     51  O   UNL     1       7.099  -4.075  27.381  0.00  0.00    -0.346 OA
BRANCH  51  55
ATOM     52  C   UNL     1       3.849  -4.015  30.158  0.00  0.00    +0.041 C 
ATOM     53  C   UNL     1       4.608  -5.283  29.769  0.00  0.00    +0.149 C 
ATOM     54  O   UNL     1       5.854  -4.952  29.128  0.00  0.00    -0.343 OA
ATOM     55  C   UNL     1       5.782  -4.468  27.768  0.00  0.00    +0.282 C 
ATOM     56  C   UNL     1       5.076  -5.537  26.899  0.00  0.00    +0.202 C 
ATOM     57  C   UNL     1       3.674  -5.756  27.489  0.00  0.00    +0.186 C 
ATOM     58  C   UNL     1       3.754  -6.261  28.934  0.00  0.00    +0.174 C 
BRANCH  58  59
ATOM     59  O   UNL     1       4.335  -7.572  28.971  0.00  0.00    -0.387 OA
ATOM     60  H   UNL     1       4.135  -7.999  28.119  0.00  0.00    +0.210 HD
ENDBRANCH  58  59
BRANCH  56  61
ATOM     61  O   UNL     1       5.790  -6.783  26.841  0.00  0.00    -0.384 OA
ATOM     62  H   UNL     1       5.614  -7.239  27.690  0.00  0.00    +0.210 HD
ENDBRANCH  56  61
BRANCH  57  63
ATOM     63  O   UNL     1       2.954  -6.594  26.569  0.00  0.00    -0.340 OA
BRANCH  63  64
ATOM     64  C   UNL     1       2.782  -6.078  25.236  0.00  0.00    +0.282 C 
ATOM     65  O   UNL     1       1.409  -5.680  25.085  0.00  0.00    -0.346 OA
ATOM     66  C   UNL     1       0.473  -6.763  25.171  0.00  0.00    +0.197 C 
ATOM     67  C   UNL     1       0.764  -7.893  24.168  0.00  0.00    +0.171 C 
ATOM     68  C   UNL     1       2.226  -8.325  24.237  0.00  0.00    +0.178 C 
ATOM     69  C   UNL     1       3.121  -7.080  24.100  0.00  0.00    +0.201 C 
BRANCH  69  70
ATOM     70  O   UNL     1       4.513  -7.420  24.053  0.00  0.00    -0.384 OA
ATOM     71  H   UNL     1       4.980  -6.876  24.714  0.00  0.00    +0.210 HD
ENDBRANCH  69  70
BRANCH  68  72
ATOM     72  O   UNL     1       2.459  -9.056  25.448  0.00  0.00    -0.386 OA
ATOM     73  H   UNL     1       2.933  -8.461  26.059  0.00  0.00    +0.210 HD
ENDBRANCH  68  72
BRANCH  67  74
ATOM     74  O   UNL     1       0.443  -7.466  22.847  0.00  0.00    -0.387 OA
ATOM     75  H   UNL     1       1.204  -6.975  22.488  0.00  0.00    +0.210 HD
ENDBRANCH  67  74
ENDBRANCH  63  64
ENDBRANCH  57  63
ENDBRANCH  51  55
ENDBRANCH  50  51
ENDBRANCH   1  50
TORSDOF 25
ENDMDL
