MODEL 1
REMARK VINA RESULT:      -5.8      0.000      0.000
REMARK  Name = 
REMARK  29 active torsions:
REMARK  status: ('A' for Active; 'I' for Inactive)
REMARK    1  A    between atoms: C_1  and  C_2
REMARK    2  A    between atoms: C_3  and  O_65
REMARK    3  A    between atoms: C_4  and  O_64
REMARK    4  A    between atoms: C_5  and  O_63
REMARK    5  A    between atoms: C_6  and  O_8
REMARK    6  A    between atoms: O_8  and  C_9
REMARK    7  A    between atoms: C_9  and  C_10
REMARK    8  A    between atoms: C_11  and  O_62
REMARK    9  A    between atoms: C_12  and  O_61
REMARK   10  A    between atoms: C_13  and  O_60
REMARK   11  A    between atoms: C_14  and  O_16
REMARK   12  A    between atoms: O_16  and  C_17
REMARK   13  A    between atoms: C_18  and  C_41
REMARK   14  A    between atoms: C_22  and  O_29
REMARK   15  A    between atoms: C_24  and  O_28
REMARK   16  A    between atoms: O_29  and  C_30
REMARK   17  A    between atoms: C_31  and  O_40
REMARK   18  A    between atoms: C_32  and  O_39
REMARK   19  A    between atoms: C_33  and  O_38
REMARK   20  A    between atoms: C_34  and  C_36
REMARK   21  A    between atoms: C_36  and  O_37
REMARK   22  A    between atoms: C_43  and  O_48
REMARK   23  A    between atoms: C_44  and  O_47
REMARK   24  A    between atoms: O_48  and  C_49
REMARK   25  A    between atoms: C_50  and  O_59
REMARK   26  A    between atoms: C_51  and  O_58
REMARK   27  A    between atoms: C_52  and  O_57
REMARK   28  A    between atoms: C_53  and  C_55
REMARK   29  A    between atoms: C_55  and  O_56
REMARK                            x       y       z     vdW  Elec       q    Type
REMARK                         _______ _______ _______ _____ _____    ______ ____
ROOT
ATOM      1  C   UNL     1       6.493  -0.165  26.579  0.00  0.00    +0.214 A 
ATOM      2  C   UNL     1       6.920  -1.584  26.838  0.00  0.00    +0.238 A 
ATOM      3  O   UNL     1       8.097  -1.904  26.725  0.00  0.00    -0.283 OA
ATOM      4  C   UNL     1       5.873  -2.566  27.265  0.00  0.00    +0.109 A 
ATOM      5  C   UNL     1       4.586  -2.099  27.465  0.00  0.00    +0.147 A 
ATOM      6  C   UNL     1       3.535  -2.941  27.877  0.00  0.00    +0.093 A 
ATOM      7  C   UNL     1       3.733  -4.310  28.017  0.00  0.00    +0.131 A 
ATOM      8  C   UNL     1       5.031  -4.800  27.825  0.00  0.00    +0.092 A 
ATOM      9  O   UNL     1       4.241  -0.798  27.285  0.00  0.00    -0.451 OA
ATOM     10  C   UNL     1       6.093  -3.930  27.490  0.00  0.00    +0.135 A 
ATOM     11  C   UNL     1       5.205   0.112  26.868  0.00  0.00    +0.181 A 
ENDROOT
BRANCH  11  12
ATOM     12  C   UNL     1       4.601   1.446  26.900  0.00  0.00    +0.025 A 
ATOM     13  C   UNL     1       4.885   2.204  28.040  0.00  0.00    +0.015 A 
ATOM     14  C   UNL     1       4.071   3.272  28.390  0.00  0.00    +0.050 A 
ATOM     15  C   UNL     1       3.085   3.695  27.507  0.00  0.00    +0.159 A 
ATOM     16  C   UNL     1       2.950   3.107  26.248  0.00  0.00    +0.166 A 
ATOM     17  C   UNL     1       3.615   1.895  26.003  0.00  0.00    +0.061 A 
BRANCH  15  18
ATOM     18  O   UNL     1       2.384   4.805  27.878  0.00  0.00    -0.503 OA
ATOM     19  H   UNL     1       2.973   5.537  27.592  0.00  0.00    +0.292 HD
ENDBRANCH  15  18
BRANCH  16  20
ATOM     20  O   UNL     1       2.300   3.650  25.168  0.00  0.00    -0.457 OA
BRANCH  20  21
ATOM     21  C   UNL     1       2.722   4.955  24.723  0.00  0.00    +0.339 C 
ATOM     22  O   UNL     1       1.775   5.451  23.733  0.00  0.00    -0.331 OA
ATOM     23  C   UNL     1       1.762   4.704  22.501  0.00  0.00    +0.179 C 
ATOM     24  C   UNL     1       3.140   4.782  21.827  0.00  0.00    +0.177 C 
ATOM     25  C   UNL     1       4.209   4.266  22.790  0.00  0.00    +0.180 C 
ATOM     26  C   UNL     1       4.151   5.065  24.092  0.00  0.00    +0.214 C 
BRANCH  26  27
ATOM     27  O   UNL     1       5.280   4.722  24.907  0.00  0.00    -0.383 OA
ATOM     28  H   UNL     1       5.078   5.082  25.798  0.00  0.00    +0.210 HD
ENDBRANCH  26  27
BRANCH  25  29
ATOM     29  O   UNL     1       5.521   4.433  22.224  0.00  0.00    -0.386 OA
ATOM     30  H   UNL     1       6.099   4.715  22.963  0.00  0.00    +0.210 HD
ENDBRANCH  25  29
BRANCH  24  31
ATOM     31  O   UNL     1       3.481   6.139  21.481  0.00  0.00    -0.386 OA
ATOM     32  H   UNL     1       3.966   6.122  20.631  0.00  0.00    +0.210 HD
ENDBRANCH  24  31
BRANCH  23  33
ATOM     33  C   UNL     1       0.679   5.297  21.579  0.00  0.00    +0.190 C 
BRANCH  33  34
ATOM     34  O   UNL     1       0.981   5.115  20.199  0.00  0.00    -0.392 OA
ATOM     35  H   UNL     1       1.521   5.864  19.895  0.00  0.00    +0.210 HD
ENDBRANCH  33  34
ENDBRANCH  23  33
ENDBRANCH  20  21
ENDBRANCH  16  20
ENDBRANCH  11  12
BRANCH  10  36
ATOM     36  O   UNL     1       7.352  -4.452  27.374  0.00  0.00    -0.506 OA
ATOM     37  H   UNL     1       7.300  -5.408  27.212  0.00  0.00    +0.292 HD
ENDBRANCH  10  36
BRANCH   7  38
ATOM     38  O   UNL     1       2.749  -5.240  28.285  0.00  0.00    -0.461 OA
BRANCH  38  39
ATOM     39  C   UNL     1       3.091  -6.630  28.088  0.00  0.00    +0.339 C 
ATOM     40  O   UNL     1       2.701  -7.075  26.784  0.00  0.00    -0.331 OA
ATOM     41  C   UNL     1       1.273  -7.023  26.590  0.00  0.00    +0.179 C 
ATOM     42  C   UNL     1       0.604  -8.031  27.533  0.00  0.00    +0.177 C 
ATOM     43  C   UNL     1       0.953  -7.704  28.995  0.00  0.00    +0.180 C 
ATOM     44  C   UNL     1       2.476  -7.562  29.165  0.00  0.00    +0.214 C 
BRANCH  44  45
ATOM     45  O   UNL     1       2.847  -7.155  30.485  0.00  0.00    -0.383 OA
ATOM     46  H   UNL     1       3.155  -7.935  30.973  0.00  0.00    +0.210 HD
ENDBRANCH  44  45
BRANCH  43  47
ATOM     47  O   UNL     1       0.443  -8.765  29.829  0.00  0.00    -0.386 OA
ATOM     48  H   UNL     1      -0.389  -9.064  29.406  0.00  0.00    +0.210 HD
ENDBRANCH  43  47
BRANCH  42  49
ATOM     49  O   UNL     1       1.058  -9.370  27.255  0.00  0.00    -0.386 OA
ATOM     50  H   UNL     1       1.542  -9.355  26.406  0.00  0.00    +0.210 HD
ENDBRANCH  42  49
BRANCH  41  51
ATOM     51  C   UNL     1       0.978  -7.333  25.118  0.00  0.00    +0.190 C 
BRANCH  51  52
ATOM     52  O   UNL     1       1.676  -8.505  24.692  0.00  0.00    -0.392 OA
ATOM     53  H   UNL     1       2.287  -8.257  23.980  0.00  0.00    +0.210 HD
ENDBRANCH  51  52
ENDBRANCH  41  51
ENDBRANCH  38  39
ENDBRANCH   7  38
BRANCH   1  54
ATOM     54  O   UNL     1       7.365   0.855  26.181  0.00  0.00    -0.453 OA
BRANCH  54  57
ATOM     55  C   UNL     1       9.820   0.735  23.394  0.00  0.00    +0.179 C 
ATOM     56  O   UNL     1       9.053   0.456  24.592  0.00  0.00    -0.331 OA
ATOM     57  C   UNL     1       7.757   1.077  24.797  0.00  0.00    +0.340 C 
ATOM     58  C   UNL     1       7.833   2.596  24.539  0.00  0.00    +0.214 C 
ATOM     59  C   UNL     1       8.434   2.832  23.159  0.00  0.00    +0.180 C 
ATOM     60  C   UNL     1       9.854   2.253  23.105  0.00  0.00    +0.177 C 
BRANCH  60  61
ATOM     61  O   UNL     1      10.440   2.554  21.833  0.00  0.00    -0.386 OA
ATOM     62  H   UNL     1      10.697   1.696  21.438  0.00  0.00    +0.210 HD
ENDBRANCH  60  61
BRANCH  59  63
ATOM     63  O   UNL     1       8.510   4.230  22.854  0.00  0.00    -0.386 OA
ATOM     64  H   UNL     1       7.818   4.658  23.395  0.00  0.00    +0.210 HD
ENDBRANCH  59  63
BRANCH  58  65
ATOM     65  O   UNL     1       8.667   3.278  25.507  0.00  0.00    -0.383 OA
ATOM     66  H   UNL     1       8.065   3.736  26.128  0.00  0.00    +0.210 HD
ENDBRANCH  58  65
BRANCH  55  67
ATOM     67  C   UNL     1       9.483  -0.039  22.069  0.00  0.00    +0.197 C 
BRANCH  67  68
ATOM     68  O   UNL     1       9.871  -1.411  21.927  0.00  0.00    -0.346 OA
BRANCH  68  72
ATOM     69  C   UNL     1       5.902  -2.974  21.414  0.00  0.00    +0.041 C 
ATOM     70  C   UNL     1       6.464  -2.298  22.661  0.00  0.00    +0.149 C 
ATOM     71  O   UNL     1       7.647  -1.570  22.344  0.00  0.00    -0.343 OA
ATOM     72  C   UNL     1       8.808  -2.341  22.090  0.00  0.00    +0.282 C 
ATOM     73  C   UNL     1       9.139  -3.264  23.294  0.00  0.00    +0.201 C 
ATOM     74  C   UNL     1       7.920  -4.135  23.625  0.00  0.00    +0.179 C 
ATOM     75  C   UNL     1       6.689  -3.237  23.852  0.00  0.00    +0.174 C 
BRANCH  75  76
ATOM     76  O   UNL     1       5.504  -3.988  24.125  0.00  0.00    -0.387 OA
ATOM     77  H   UNL     1       5.758  -4.843  24.508  0.00  0.00    +0.210 HD
ENDBRANCH  75  76
BRANCH  74  78
ATOM     78  O   UNL     1       8.180  -4.921  24.796  0.00  0.00    -0.386 OA
ATOM     79  H   UNL     1       7.363  -5.436  24.953  0.00  0.00    +0.210 HD
ENDBRANCH  74  78
BRANCH  73  80
ATOM     80  O   UNL     1       9.466  -2.494  24.471  0.00  0.00    -0.384 OA
ATOM     81  H   UNL     1       9.911  -3.128  25.069  0.00  0.00    +0.210 HD
ENDBRANCH  73  80
ENDBRANCH  68  72
ENDBRANCH  67  68
ENDBRANCH  55  67
ENDBRANCH  54  57
ENDBRANCH   1  54
TORSDOF 28
ENDMDL
MODEL 2
REMARK VINA RESULT:      -5.8      2.092      4.941
REMARK  Name = 
REMARK  29 active torsions:
REMARK  status: ('A' for Active; 'I' for Inactive)
REMARK    1  A    between atoms: C_1  and  C_2
REMARK    2  A    between atoms: C_3  and  O_65
REMARK    3  A    between atoms: C_4  and  O_64
REMARK    4  A    between atoms: C_5  and  O_63
REMARK    5  A    between atoms: C_6  and  O_8
REMARK    6  A    between atoms: O_8  and  C_9
REMARK    7  A    between atoms: C_9  and  C_10
REMARK    8  A    between atoms: C_11  and  O_62
REMARK    9  A    between atoms: C_12  and  O_61
REMARK   10  A    between atoms: C_13  and  O_60
REMARK   11  A    between atoms: C_14  and  O_16
REMARK   12  A    between atoms: O_16  and  C_17
REMARK   13  A    between atoms: C_18  and  C_41
REMARK   14  A    between atoms: C_22  and  O_29
REMARK   15  A    between atoms: C_24  and  O_28
REMARK   16  A    between atoms: O_29  and  C_30
REMARK   17  A    between atoms: C_31  and  O_40
REMARK   18  A    between atoms: C_32  and  O_39
REMARK   19  A    between atoms: C_33  and  O_38
REMARK   20  A    between atoms: C_34  and  C_36
REMARK   21  A    between atoms: C_36  and  O_37
REMARK   22  A    between atoms: C_43  and  O_48
REMARK   23  A    between atoms: C_44  and  O_47
REMARK   24  A    between atoms: O_48  and  C_49
REMARK   25  A    between atoms: C_50  and  O_59
REMARK   26  A    between atoms: C_51  and  O_58
REMARK   27  A    between atoms: C_52  and  O_57
REMARK   28  A    between atoms: C_53  and  C_55
REMARK   29  A    between atoms: C_55  and  O_56
REMARK                            x       y       z     vdW  Elec       q    Type
REMARK                         _______ _______ _______ _____ _____    ______ ____
ROOT
ATOM      1  C   UNL     1       6.888  -1.441  25.170  0.00  0.00    +0.214 A 
ATOM      2  C   UNL     1       7.315  -2.695  24.459  0.00  0.00    +0.238 A 
ATOM      3  O   UNL     1       8.505  -2.938  24.298  0.00  0.00    -0.283 OA
ATOM      4  C   UNL     1       6.248  -3.639  23.995  0.00  0.00    +0.109 A 
ATOM      5  C   UNL     1       4.935  -3.337  24.307  0.00  0.00    +0.147 A 
ATOM      6  C   UNL     1       3.862  -4.167  23.925  0.00  0.00    +0.093 A 
ATOM      7  C   UNL     1       4.076  -5.289  23.135  0.00  0.00    +0.131 A 
ATOM      8  C   UNL     1       5.400  -5.614  22.815  0.00  0.00    +0.092 A 
ATOM      9  O   UNL     1       4.581  -2.228  25.006  0.00  0.00    -0.451 OA
ATOM     10  C   UNL     1       6.474  -4.816  23.273  0.00  0.00    +0.135 A 
ATOM     11  C   UNL     1       5.566  -1.339  25.419  0.00  0.00    +0.181 A 
ENDROOT
BRANCH  11  12
ATOM     12  C   UNL     1       4.928  -0.330  26.266  0.00  0.00    +0.025 A 
ATOM     13  C   UNL     1       4.643  -0.738  27.573  0.00  0.00    +0.015 A 
ATOM     14  C   UNL     1       3.694  -0.061  28.325  0.00  0.00    +0.050 A 
ATOM     15  C   UNL     1       3.164   1.129  27.843  0.00  0.00    +0.159 A 
ATOM     16  C   UNL     1       3.624   1.686  26.648  0.00  0.00    +0.166 A 
ATOM     17  C   UNL     1       4.402   0.887  25.795  0.00  0.00    +0.061 A 
BRANCH  15  18
ATOM     18  O   UNL     1       2.305   1.785  28.676  0.00  0.00    -0.503 OA
ATOM     19  H   UNL     1       1.430   1.599  28.272  0.00  0.00    +0.292 HD
ENDBRANCH  15  18
BRANCH  16  20
ATOM     20  O   UNL     1       3.474   2.993  26.255  0.00  0.00    -0.457 OA
BRANCH  20  21
ATOM     21  C   UNL     1       2.245   3.354  25.593  0.00  0.00    +0.339 C 
ATOM     22  O   UNL     1       2.358   3.044  24.174  0.00  0.00    -0.331 OA
ATOM     23  C   UNL     1       3.324   3.849  23.470  0.00  0.00    +0.179 C 
ATOM     24  C   UNL     1       2.922   5.329  23.538  0.00  0.00    +0.177 C 
ATOM     25  C   UNL     1       2.790   5.756  24.999  0.00  0.00    +0.180 C 
ATOM     26  C   UNL     1       1.786   4.847  25.707  0.00  0.00    +0.214 C 
BRANCH  26  27
ATOM     27  O   UNL     1       1.511   5.373  27.012  0.00  0.00    -0.383 OA
ATOM     28  H   UNL     1       0.699   5.917  26.910  0.00  0.00    +0.210 HD
ENDBRANCH  26  27
BRANCH  25  29
ATOM     29  O   UNL     1       2.307   7.107  25.088  0.00  0.00    -0.386 OA
ATOM     30  H   UNL     1       1.784   7.152  25.916  0.00  0.00    +0.210 HD
ENDBRANCH  25  29
BRANCH  24  31
ATOM     31  O   UNL     1       1.651   5.560  22.898  0.00  0.00    -0.386 OA
ATOM     32  H   UNL     1       1.780   6.240  22.205  0.00  0.00    +0.210 HD
ENDBRANCH  24  31
BRANCH  23  33
ATOM     33  C   UNL     1       3.381   3.375  22.004  0.00  0.00    +0.190 C 
BRANCH  33  34
ATOM     34  O   UNL     1       2.088   3.258  21.420  0.00  0.00    -0.392 OA
ATOM     35  H   UNL     1       1.489   2.844  22.065  0.00  0.00    +0.210 HD
ENDBRANCH  33  34
ENDBRANCH  23  33
ENDBRANCH  20  21
ENDBRANCH  16  20
ENDBRANCH  11  12
BRANCH  10  36
ATOM     36  O   UNL     1       7.750  -5.212  22.983  0.00  0.00    -0.506 OA
ATOM     37  H   UNL     1       8.203  -5.492  23.795  0.00  0.00    +0.292 HD
ENDBRANCH  10  36
BRANCH   7  38
ATOM     38  O   UNL     1       3.091  -6.092  22.597  0.00  0.00    -0.461 OA
BRANCH  38  39
ATOM     39  C   UNL     1       1.812  -6.099  23.271  0.00  0.00    +0.339 C 
ATOM     40  O   UNL     1       1.980  -6.104  24.692  0.00  0.00    -0.331 OA
ATOM     41  C   UNL     1       2.644  -7.296  25.162  0.00  0.00    +0.179 C 
ATOM     42  C   UNL     1       1.740  -8.507  24.899  0.00  0.00    +0.177 C 
ATOM     43  C   UNL     1       1.436  -8.627  23.396  0.00  0.00    +0.180 C 
ATOM     44  C   UNL     1       0.911  -7.289  22.845  0.00  0.00    +0.214 C 
BRANCH  44  45
ATOM     45  O   UNL     1       0.712  -7.316  21.430  0.00  0.00    -0.383 OA
ATOM     46  H   UNL     1      -0.083  -7.840  21.240  0.00  0.00    +0.210 HD
ENDBRANCH  44  45
BRANCH  43  47
ATOM     47  O   UNL     1       0.457  -9.672  23.215  0.00  0.00    -0.386 OA
ATOM     48  H   UNL     1       0.545  -9.965  22.285  0.00  0.00    +0.210 HD
ENDBRANCH  43  47
BRANCH  42  49
ATOM     49  O   UNL     1       0.487  -8.371  25.598  0.00  0.00    -0.386 OA
ATOM     50  H   UNL     1      -0.217  -8.239  24.933  0.00  0.00    +0.210 HD
ENDBRANCH  42  49
BRANCH  41  51
ATOM     51  C   UNL     1       2.944  -7.120  26.655  0.00  0.00    +0.190 C 
BRANCH  51  52
ATOM     52  O   UNL     1       4.310  -7.427  26.942  0.00  0.00    -0.392 OA
ATOM     53  H   UNL     1       4.604  -8.120  26.329  0.00  0.00    +0.210 HD
ENDBRANCH  51  52
ENDBRANCH  41  51
ENDBRANCH  38  39
ENDBRANCH   7  38
BRANCH   1  54
ATOM     54  O   UNL     1       7.777  -0.477  25.660  0.00  0.00    -0.453 OA
BRANCH  54  57
ATOM     55  C   UNL     1       8.232   1.329  22.443  0.00  0.00    +0.179 C 
ATOM     56  O   UNL     1       7.719   0.512  23.526  0.00  0.00    -0.331 OA
ATOM     57  C   UNL     1       8.258   0.645  24.867  0.00  0.00    +0.340 C 
ATOM     58  C   UNL     1       9.800   0.612  24.841  0.00  0.00    +0.214 C 
ATOM     59  C   UNL     1      10.299   1.659  23.855  0.00  0.00    +0.180 C 
ATOM     60  C   UNL     1       9.778   1.337  22.448  0.00  0.00    +0.177 C 
BRANCH  60  61
ATOM     61  O   UNL     1      10.321   2.279  21.515  0.00  0.00    -0.386 OA
ATOM     62  H   UNL     1      11.289   2.132  21.508  0.00  0.00    +0.210 HD
ENDBRANCH  60  61
BRANCH  59  63
ATOM     63  O   UNL     1      11.731   1.689  23.803  0.00  0.00    -0.386 OA
ATOM     64  H   UNL     1      12.017   0.754  23.822  0.00  0.00    +0.210 HD
ENDBRANCH  59  63
BRANCH  58  65
ATOM     65  O   UNL     1      10.316  -0.675  24.420  0.00  0.00    -0.383 OA
ATOM     66  H   UNL     1      11.079  -0.497  23.834  0.00  0.00    +0.210 HD
ENDBRANCH  58  65
BRANCH  55  67
ATOM     67  C   UNL     1       7.704   2.798  22.274  0.00  0.00    +0.197 C 
BRANCH  67  68
ATOM     68  O   UNL     1       6.766   3.332  23.218  0.00  0.00    -0.346 OA
BRANCH  68  72
ATOM     69  C   UNL     1       9.292   6.746  23.869  0.00  0.00    +0.041 C 
ATOM     70  C   UNL     1       9.173   5.513  24.761  0.00  0.00    +0.149 C 
ATOM     71  O   UNL     1       8.562   4.441  24.050  0.00  0.00    -0.343 OA
ATOM     72  C   UNL     1       7.170   4.557  23.817  0.00  0.00    +0.282 C 
ATOM     73  C   UNL     1       6.394   4.733  25.150  0.00  0.00    +0.201 C 
ATOM     74  C   UNL     1       6.959   5.933  25.920  0.00  0.00    +0.179 C 
ATOM     75  C   UNL     1       8.479   5.760  26.105  0.00  0.00    +0.174 C 
BRANCH  75  76
ATOM     76  O   UNL     1       9.080   6.867  26.780  0.00  0.00    -0.387 OA
ATOM     77  H   UNL     1       9.954   6.596  27.106  0.00  0.00    +0.210 HD
ENDBRANCH  75  76
BRANCH  74  78
ATOM     78  O   UNL     1       6.316   6.047  27.197  0.00  0.00    -0.386 OA
ATOM     79  H   UNL     1       6.582   5.248  27.696  0.00  0.00    +0.210 HD
ENDBRANCH  74  78
BRANCH  73  80
ATOM     80  O   UNL     1       6.524   3.566  25.991  0.00  0.00    -0.384 OA
ATOM     81  H   UNL     1       7.384   3.681  26.446  0.00  0.00    +0.210 HD
ENDBRANCH  73  80
ENDBRANCH  68  72
ENDBRANCH  67  68
ENDBRANCH  55  67
ENDBRANCH  54  57
ENDBRANCH   1  54
TORSDOF 28
ENDMDL
MODEL 3
REMARK VINA RESULT:      -5.7      2.168      5.416
REMARK  Name = 
REMARK  29 active torsions:
REMARK  status: ('A' for Active; 'I' for Inactive)
REMARK    1  A    between atoms: C_1  and  C_2
REMARK    2  A    between atoms: C_3  and  O_65
REMARK    3  A    between atoms: C_4  and  O_64
REMARK    4  A    between atoms: C_5  and  O_63
REMARK    5  A    between atoms: C_6  and  O_8
REMARK    6  A    between atoms: O_8  and  C_9
REMARK    7  A    between atoms: C_9  and  C_10
REMARK    8  A    between atoms: C_11  and  O_62
REMARK    9  A    between atoms: C_12  and  O_61
REMARK   10  A    between atoms: C_13  and  O_60
REMARK   11  A    between atoms: C_14  and  O_16
REMARK   12  A    between atoms: O_16  and  C_17
REMARK   13  A    between atoms: C_18  and  C_41
REMARK   14  A    between atoms: C_22  and  O_29
REMARK   15  A    between atoms: C_24  and  O_28
REMARK   16  A    between atoms: O_29  and  C_30
REMARK   17  A    between atoms: C_31  and  O_40
REMARK   18  A    between atoms: C_32  and  O_39
REMARK   19  A    between atoms: C_33  and  O_38
REMARK   20  A    between atoms: C_34  and  C_36
REMARK   21  A    between atoms: C_36  and  O_37
REMARK   22  A    between atoms: C_43  and  O_48
REMARK   23  A    between atoms: C_44  and  O_47
REMARK   24  A    between atoms: O_48  and  C_49
REMARK   25  A    between atoms: C_50  and  O_59
REMARK   26  A    between atoms: C_51  and  O_58
REMARK   27  A    between atoms: C_52  and  O_57
REMARK   28  A    between atoms: C_53  and  C_55
REMARK   29  A    between atoms: C_55  and  O_56
REMARK                            x       y       z     vdW  Elec       q    Type
REMARK                         _______ _______ _______ _____ _____    ______ ____
ROOT
ATOM      1  C   UNL     1       6.752  -1.519  25.130  0.00  0.00    +0.214 A 
ATOM      2  C   UNL     1       7.178  -2.751  24.379  0.00  0.00    +0.238 A 
ATOM      3  O   UNL     1       8.367  -2.976  24.188  0.00  0.00    -0.283 OA
ATOM      4  C   UNL     1       6.112  -3.694  23.914  0.00  0.00    +0.109 A 
ATOM      5  C   UNL     1       4.802  -3.415  24.261  0.00  0.00    +0.147 A 
ATOM      6  C   UNL     1       3.730  -4.246  23.880  0.00  0.00    +0.093 A 
ATOM      7  C   UNL     1       3.940  -5.347  23.058  0.00  0.00    +0.131 A 
ATOM      8  C   UNL     1       5.261  -5.649  22.703  0.00  0.00    +0.092 A 
ATOM      9  O   UNL     1       4.451  -2.327  24.994  0.00  0.00    -0.451 OA
ATOM     10  C   UNL     1       6.335  -4.850  23.158  0.00  0.00    +0.135 A 
ATOM     11  C   UNL     1       5.436  -1.439  25.410  0.00  0.00    +0.181 A 
ENDROOT
BRANCH  11  12
ATOM     12  C   UNL     1       4.804  -0.458  26.294  0.00  0.00    +0.025 A 
ATOM     13  C   UNL     1       3.913  -0.986  27.234  0.00  0.00    +0.015 A 
ATOM     14  C   UNL     1       2.960  -0.171  27.828  0.00  0.00    +0.050 A 
ATOM     15  C   UNL     1       3.014   1.202  27.623  0.00  0.00    +0.159 A 
ATOM     16  C   UNL     1       4.052   1.777  26.888  0.00  0.00    +0.166 A 
ATOM     17  C   UNL     1       4.864   0.935  26.110  0.00  0.00    +0.061 A 
BRANCH  15  18
ATOM     18  O   UNL     1       2.101   1.948  28.310  0.00  0.00    -0.503 OA
ATOM     19  H   UNL     1       2.418   1.876  29.237  0.00  0.00    +0.292 HD
ENDBRANCH  15  18
BRANCH  16  20
ATOM     20  O   UNL     1       4.433   3.095  26.921  0.00  0.00    -0.457 OA
BRANCH  20  21
ATOM     21  C   UNL     1       5.132   3.559  28.094  0.00  0.00    +0.339 C 
ATOM     22  O   UNL     1       4.472   4.755  28.600  0.00  0.00    -0.331 OA
ATOM     23  C   UNL     1       4.567   5.896  27.726  0.00  0.00    +0.179 C 
ATOM     24  C   UNL     1       6.039   6.288  27.532  0.00  0.00    +0.177 C 
ATOM     25  C   UNL     1       6.818   5.092  26.986  0.00  0.00    +0.180 C 
ATOM     26  C   UNL     1       6.651   3.901  27.929  0.00  0.00    +0.214 C 
BRANCH  26  27
ATOM     27  O   UNL     1       7.542   2.852  27.527  0.00  0.00    -0.383 OA
ATOM     28  H   UNL     1       6.964   2.128  27.200  0.00  0.00    +0.210 HD
ENDBRANCH  26  27
BRANCH  25  29
ATOM     29  O   UNL     1       8.220   5.399  26.901  0.00  0.00    -0.386 OA
ATOM     30  H   UNL     1       8.449   5.348  25.949  0.00  0.00    +0.210 HD
ENDBRANCH  25  29
BRANCH  24  31
ATOM     31  O   UNL     1       6.649   6.675  28.779  0.00  0.00    -0.386 OA
ATOM     32  H   UNL     1       6.730   5.876  29.338  0.00  0.00    +0.210 HD
ENDBRANCH  24  31
BRANCH  23  33
ATOM     33  C   UNL     1       3.779   7.062  28.355  0.00  0.00    +0.190 C 
BRANCH  33  34
ATOM     34  O   UNL     1       3.131   6.689  29.568  0.00  0.00    -0.392 OA
ATOM     35  H   UNL     1       3.465   5.819  29.846  0.00  0.00    +0.210 HD
ENDBRANCH  33  34
ENDBRANCH  23  33
ENDBRANCH  20  21
ENDBRANCH  16  20
ENDBRANCH  11  12
BRANCH  10  36
ATOM     36  O   UNL     1       7.609  -5.224  22.832  0.00  0.00    -0.506 OA
ATOM     37  H   UNL     1       8.234  -4.880  23.491  0.00  0.00    +0.292 HD
ENDBRANCH  10  36
BRANCH   7  38
ATOM     38  O   UNL     1       2.952  -6.147  22.520  0.00  0.00    -0.461 OA
BRANCH  38  39
ATOM     39  C   UNL     1       1.700  -6.215  23.241  0.00  0.00    +0.339 C 
ATOM     40  O   UNL     1       1.924  -6.267  24.654  0.00  0.00    -0.331 OA
ATOM     41  C   UNL     1       2.638  -7.455  25.054  0.00  0.00    +0.179 C 
ATOM     42  C   UNL     1       1.758  -8.681  24.780  0.00  0.00    +0.177 C 
ATOM     43  C   UNL     1       1.399  -8.755  23.286  0.00  0.00    +0.180 C 
ATOM     44  C   UNL     1       0.818  -7.414  22.805  0.00  0.00    +0.214 C 
BRANCH  44  45
ATOM     45  O   UNL     1       0.564  -7.396  21.399  0.00  0.00    -0.383 OA
ATOM     46  H   UNL     1       0.987  -6.609  21.018  0.00  0.00    +0.210 HD
ENDBRANCH  44  45
BRANCH  43  47
ATOM     47  O   UNL     1       0.444  -9.821  23.103  0.00  0.00    -0.386 OA
ATOM     48  H   UNL     1       0.789 -10.369  22.369  0.00  0.00    +0.210 HD
ENDBRANCH  43  47
BRANCH  42  49
ATOM     49  O   UNL     1       0.530  -8.607  25.530  0.00  0.00    -0.386 OA
ATOM     50  H   UNL     1      -0.203  -8.476  24.897  0.00  0.00    +0.210 HD
ENDBRANCH  42  49
BRANCH  41  51
ATOM     51  C   UNL     1       2.991  -7.324  26.540  0.00  0.00    +0.190 C 
BRANCH  51  52
ATOM     52  O   UNL     1       4.403  -7.409  26.740  0.00  0.00    -0.392 OA
ATOM     53  H   UNL     1       4.724  -6.543  27.036  0.00  0.00    +0.210 HD
ENDBRANCH  51  52
ENDBRANCH  41  51
ENDBRANCH  38  39
ENDBRANCH   7  38
BRANCH   1  54
ATOM     54  O   UNL     1       7.641  -0.558  25.626  0.00  0.00    -0.453 OA
BRANCH  54  57
ATOM     55  C   UNL     1       8.101   1.290  22.435  0.00  0.00    +0.179 C 
ATOM     56  O   UNL     1       7.598   0.441  23.497  0.00  0.00    -0.331 OA
ATOM     57  C   UNL     1       8.089   0.592  24.854  0.00  0.00    +0.340 C 
ATOM     58  C   UNL     1       9.631   0.635  24.875  0.00  0.00    +0.214 C 
ATOM     59  C   UNL     1      10.107   1.712  23.909  0.00  0.00    +0.180 C 
ATOM     60  C   UNL     1       9.644   1.375  22.486  0.00  0.00    +0.177 C 
BRANCH  60  61
ATOM     61  O   UNL     1      10.168   2.349  21.574  0.00  0.00    -0.386 OA
ATOM     62  H   UNL     1      11.071   2.561  21.887  0.00  0.00    +0.210 HD
ENDBRANCH  60  61
BRANCH  59  63
ATOM     63  O   UNL     1      11.536   1.813  23.901  0.00  0.00    -0.386 OA
ATOM     64  H   UNL     1      11.806   1.690  22.970  0.00  0.00    +0.210 HD
ENDBRANCH  59  63
BRANCH  58  65
ATOM     65  O   UNL     1      10.223  -0.622  24.462  0.00  0.00    -0.383 OA
ATOM     66  H   UNL     1      10.685  -0.987  25.243  0.00  0.00    +0.210 HD
ENDBRANCH  58  65
BRANCH  55  67
ATOM     67  C   UNL     1       7.507   2.732  22.257  0.00  0.00    +0.197 C 
BRANCH  67  68
ATOM     68  O   UNL     1       6.688   3.297  23.289  0.00  0.00    -0.346 OA
BRANCH  68  72
ATOM     69  C   UNL     1       4.765   7.106  22.785  0.00  0.00    +0.041 C 
ATOM     70  C   UNL     1       4.328   5.978  23.714  0.00  0.00    +0.149 C 
ATOM     71  O   UNL     1       5.395   5.054  23.912  0.00  0.00    -0.343 OA
ATOM     72  C   UNL     1       5.696   4.202  22.821  0.00  0.00    +0.282 C 
ATOM     73  C   UNL     1       4.448   3.386  22.389  0.00  0.00    +0.201 C 
ATOM     74  C   UNL     1       3.289   4.343  22.081  0.00  0.00    +0.179 C 
ATOM     75  C   UNL     1       3.040   5.262  23.292  0.00  0.00    +0.174 C 
BRANCH  75  76
ATOM     76  O   UNL     1       1.998   6.211  23.058  0.00  0.00    -0.387 OA
ATOM     77  H   UNL     1       1.509   5.948  22.261  0.00  0.00    +0.210 HD
ENDBRANCH  75  76
BRANCH  74  78
ATOM     78  O   UNL     1       2.102   3.597  21.775  0.00  0.00    -0.386 OA
ATOM     79  H   UNL     1       1.418   4.266  21.571  0.00  0.00    +0.210 HD
ENDBRANCH  74  78
BRANCH  73  80
ATOM     80  O   UNL     1       4.016   2.492  23.438  0.00  0.00    -0.384 OA
ATOM     81  H   UNL     1       3.347   3.001  23.940  0.00  0.00    +0.210 HD
ENDBRANCH  73  80
ENDBRANCH  68  72
ENDBRANCH  67  68
ENDBRANCH  55  67
ENDBRANCH  54  57
ENDBRANCH   1  54
TORSDOF 28
ENDMDL
MODEL 4
REMARK VINA RESULT:      -5.2      1.909      6.354
REMARK  Name = 
REMARK  29 active torsions:
REMARK  status: ('A' for Active; 'I' for Inactive)
REMARK    1  A    between atoms: C_1  and  C_2
REMARK    2  A    between atoms: C_3  and  O_65
REMARK    3  A    between atoms: C_4  and  O_64
REMARK    4  A    between atoms: C_5  and  O_63
REMARK    5  A    between atoms: C_6  and  O_8
REMARK    6  A    between atoms: O_8  and  C_9
REMARK    7  A    between atoms: C_9  and  C_10
REMARK    8  A    between atoms: C_11  and  O_62
REMARK    9  A    between atoms: C_12  and  O_61
REMARK   10  A    between atoms: C_13  and  O_60
REMARK   11  A    between atoms: C_14  and  O_16
REMARK   12  A    between atoms: O_16  and  C_17
REMARK   13  A    between atoms: C_18  and  C_41
REMARK   14  A    between atoms: C_22  and  O_29
REMARK   15  A    between atoms: C_24  and  O_28
REMARK   16  A    between atoms: O_29  and  C_30
REMARK   17  A    between atoms: C_31  and  O_40
REMARK   18  A    between atoms: C_32  and  O_39
REMARK   19  A    between atoms: C_33  and  O_38
REMARK   20  A    between atoms: C_34  and  C_36
REMARK   21  A    between atoms: C_36  and  O_37
REMARK   22  A    between atoms: C_43  and  O_48
REMARK   23  A    between atoms: C_44  and  O_47
REMARK   24  A    between atoms: O_48  and  C_49
REMARK   25  A    between atoms: C_50  and  O_59
REMARK   26  A    between atoms: C_51  and  O_58
REMARK   27  A    between atoms: C_52  and  O_57
REMARK   28  A    between atoms: C_53  and  C_55
REMARK   29  A    between atoms: C_55  and  O_56
REMARK                            x       y       z     vdW  Elec       q    Type
REMARK                         _______ _______ _______ _____ _____    ______ ____
ROOT
ATOM      1  C   UNL     1       5.489  -0.475  26.589  0.00  0.00    +0.214 A 
ATOM      2  C   UNL     1       4.180  -0.874  27.213  0.00  0.00    +0.238 A 
ATOM      3  O   UNL     1       3.693  -0.196  28.110  0.00  0.00    -0.283 OA
ATOM      4  C   UNL     1       3.489  -2.090  26.679  0.00  0.00    +0.109 A 
ATOM      5  C   UNL     1       4.057  -2.739  25.597  0.00  0.00    +0.147 A 
ATOM      6  C   UNL     1       3.478  -3.884  25.017  0.00  0.00    +0.093 A 
ATOM      7  C   UNL     1       2.343  -4.466  25.570  0.00  0.00    +0.131 A 
ATOM      8  C   UNL     1       1.749  -3.819  26.661  0.00  0.00    +0.092 A 
ATOM      9  O   UNL     1       5.209  -2.320  25.012  0.00  0.00    -0.451 OA
ATOM     10  C   UNL     1       2.297  -2.625  27.183  0.00  0.00    +0.135 A 
ATOM     11  C   UNL     1       5.865  -1.204  25.518  0.00  0.00    +0.181 A 
ENDROOT
BRANCH  11  12
ATOM     12  C   UNL     1       6.977  -0.897  24.618  0.00  0.00    +0.025 A 
ATOM     13  C   UNL     1       7.240  -1.861  23.640  0.00  0.00    +0.015 A 
ATOM     14  C   UNL     1       8.479  -1.904  23.016  0.00  0.00    +0.050 A 
ATOM     15  C   UNL     1       9.388  -0.876  23.234  0.00  0.00    +0.159 A 
ATOM     16  C   UNL     1       9.046   0.230  24.014  0.00  0.00    +0.166 A 
ATOM     17  C   UNL     1       7.895   0.151  24.815  0.00  0.00    +0.061 A 
BRANCH  15  18
ATOM     18  O   UNL     1      10.548  -0.939  22.518  0.00  0.00    -0.503 OA
ATOM     19  H   UNL     1      10.304  -1.518  21.764  0.00  0.00    +0.292 HD
ENDBRANCH  15  18
BRANCH  16  20
ATOM     20  O   UNL     1       9.675   1.450  24.007  0.00  0.00    -0.457 OA
BRANCH  20  21
ATOM     21  C   UNL     1       9.611   2.226  22.793  0.00  0.00    +0.339 C 
ATOM     22  O   UNL     1      10.291   3.497  23.004  0.00  0.00    -0.331 OA
ATOM     23  C   UNL     1       9.638   4.367  23.949  0.00  0.00    +0.179 C 
ATOM     24  C   UNL     1       8.234   4.729  23.445  0.00  0.00    +0.177 C 
ATOM     25  C   UNL     1       7.431   3.451  23.205  0.00  0.00    +0.180 C 
ATOM     26  C   UNL     1       8.186   2.550  22.228  0.00  0.00    +0.214 C 
BRANCH  26  27
ATOM     27  O   UNL     1       7.344   1.454  21.848  0.00  0.00    -0.383 OA
ATOM     28  H   UNL     1       6.808   1.784  21.094  0.00  0.00    +0.210 HD
ENDBRANCH  26  27
BRANCH  25  29
ATOM     29  O   UNL     1       6.151   3.759  22.627  0.00  0.00    -0.386 OA
ATOM     30  H   UNL     1       5.575   2.993  22.825  0.00  0.00    +0.210 HD
ENDBRANCH  25  29
BRANCH  24  31
ATOM     31  O   UNL     1       8.292   5.450  22.197  0.00  0.00    -0.386 OA
ATOM     32  H   UNL     1       9.195   5.352  21.833  0.00  0.00    +0.210 HD
ENDBRANCH  24  31
BRANCH  23  33
ATOM     33  C   UNL     1      10.493   5.638  24.117  0.00  0.00    +0.190 C 
BRANCH  33  34
ATOM     34  O   UNL     1      11.214   5.969  22.934  0.00  0.00    -0.392 OA
ATOM     35  H   UNL     1      11.254   5.183  22.363  0.00  0.00    +0.210 HD
ENDBRANCH  33  34
ENDBRANCH  23  33
ENDBRANCH  20  21
ENDBRANCH  16  20
ENDBRANCH  11  12
BRANCH  10  36
ATOM     36  O   UNL     1       1.644  -2.002  28.210  0.00  0.00    -0.506 OA
ATOM     37  H   UNL     1       1.913  -2.391  29.058  0.00  0.00    +0.292 HD
ENDBRANCH  10  36
BRANCH   7  38
ATOM     38  O   UNL     1       1.772  -5.656  25.165  0.00  0.00    -0.461 OA
BRANCH  38  39
ATOM     39  C   UNL     1       2.621  -6.826  25.176  0.00  0.00    +0.339 C 
ATOM     40  O   UNL     1       2.369  -7.655  24.037  0.00  0.00    -0.331 OA
ATOM     41  C   UNL     1       1.026  -8.181  24.027  0.00  0.00    +0.179 C 
ATOM     42  C   UNL     1       0.856  -9.136  25.215  0.00  0.00    +0.177 C 
ATOM     43  C   UNL     1       1.126  -8.395  26.536  0.00  0.00    +0.180 C 
ATOM     44  C   UNL     1       2.478  -7.663  26.475  0.00  0.00    +0.214 C 
BRANCH  44  45
ATOM     45  O   UNL     1       2.730  -6.872  27.639  0.00  0.00    -0.383 OA
ATOM     46  H   UNL     1       3.196  -7.420  28.291  0.00  0.00    +0.210 HD
ENDBRANCH  44  45
BRANCH  43  47
ATOM     47  O   UNL     1       1.117  -9.362  27.607  0.00  0.00    -0.386 OA
ATOM     48  H   UNL     1       0.547 -10.097  27.300  0.00  0.00    +0.210 HD
ENDBRANCH  43  47
BRANCH  42  49
ATOM     49  O   UNL     1       1.783 -10.236  25.124  0.00  0.00    -0.386 OA
ATOM     50  H   UNL     1       2.128 -10.266  24.210  0.00  0.00    +0.210 HD
ENDBRANCH  42  49
BRANCH  41  51
ATOM     51  C   UNL     1       0.799  -8.889  22.687  0.00  0.00    +0.190 C 
BRANCH  51  52
ATOM     52  O   UNL     1       1.576  -8.286  21.651  0.00  0.00    -0.392 OA
ATOM     53  H   UNL     1       2.136  -8.969  21.249  0.00  0.00    +0.210 HD
ENDBRANCH  51  52
ENDBRANCH  41  51
ENDBRANCH  38  39
ENDBRANCH   7  38
BRANCH   1  54
ATOM     54  O   UNL     1       6.238   0.639  26.984  0.00  0.00    -0.453 OA
BRANCH  54  57
ATOM     55  C   UNL     1       4.740   3.823  25.785  0.00  0.00    +0.179 C 
ATOM     56  O   UNL     1       5.139   2.437  25.938  0.00  0.00    -0.331 OA
ATOM     57  C   UNL     1       5.658   1.956  27.205  0.00  0.00    +0.340 C 
ATOM     58  C   UNL     1       6.754   2.900  27.739  0.00  0.00    +0.214 C 
ATOM     59  C   UNL     1       6.204   4.320  27.782  0.00  0.00    +0.180 C 
ATOM     60  C   UNL     1       5.816   4.769  26.367  0.00  0.00    +0.177 C 
BRANCH  60  61
ATOM     61  O   UNL     1       5.379   6.133  26.406  0.00  0.00    -0.386 OA
ATOM     62  H   UNL     1       4.751   6.243  25.664  0.00  0.00    +0.210 HD
ENDBRANCH  60  61
BRANCH  59  63
ATOM     63  O   UNL     1       7.175   5.242  28.292  0.00  0.00    -0.386 OA
ATOM     64  H   UNL     1       6.753   5.675  29.059  0.00  0.00    +0.210 HD
ENDBRANCH  59  63
BRANCH  58  65
ATOM     65  O   UNL     1       7.933   2.907  26.897  0.00  0.00    -0.383 OA
ATOM     66  H   UNL     1       8.590   2.322  27.325  0.00  0.00    +0.210 HD
ENDBRANCH  58  65
BRANCH  55  67
ATOM     67  C   UNL     1       3.323   4.275  26.288  0.00  0.00    +0.197 C 
BRANCH  67  68
ATOM     68  O   UNL     1       2.298   4.592  25.338  0.00  0.00    -0.346 OA
BRANCH  68  72
ATOM     69  C   UNL     1       3.728   6.643  21.844  0.00  0.00    +0.041 C 
ATOM     70  C   UNL     1       2.320   6.104  22.075  0.00  0.00    +0.149 C 
ATOM     71  O   UNL     1       2.104   5.850  23.460  0.00  0.00    -0.343 OA
ATOM     72  C   UNL     1       2.758   4.715  23.998  0.00  0.00    +0.282 C 
ATOM     73  C   UNL     1       2.369   3.427  23.223  0.00  0.00    +0.201 C 
ATOM     74  C   UNL     1       2.662   3.617  21.729  0.00  0.00    +0.179 C 
ATOM     75  C   UNL     1       1.952   4.886  21.220  0.00  0.00    +0.174 C 
BRANCH  75  76
ATOM     76  O   UNL     1       2.217   5.148  19.840  0.00  0.00    -0.387 OA
ATOM     77  H   UNL     1       2.147   4.316  19.345  0.00  0.00    +0.210 HD
ENDBRANCH  75  76
BRANCH  74  78
ATOM     78  O   UNL     1       2.215   2.472  20.990  0.00  0.00    -0.386 OA
ATOM     79  H   UNL     1       1.816   1.872  21.652  0.00  0.00    +0.210 HD
ENDBRANCH  74  78
BRANCH  73  80
ATOM     80  O   UNL     1       0.961   3.135  23.364  0.00  0.00    -0.384 OA
ATOM     81  H   UNL     1       0.629   3.058  22.446  0.00  0.00    +0.210 HD
ENDBRANCH  73  80
ENDBRANCH  68  72
ENDBRANCH  67  68
ENDBRANCH  55  67
ENDBRANCH  54  57
ENDBRANCH   1  54
TORSDOF 28
ENDMDL
MODEL 5
REMARK VINA RESULT:      -4.9      2.059      7.077
REMARK  Name = 
REMARK  29 active torsions:
REMARK  status: ('A' for Active; 'I' for Inactive)
REMARK    1  A    between atoms: C_1  and  C_2
REMARK    2  A    between atoms: C_3  and  O_65
REMARK    3  A    between atoms: C_4  and  O_64
REMARK    4  A    between atoms: C_5  and  O_63
REMARK    5  A    between atoms: C_6  and  O_8
REMARK    6  A    between atoms: O_8  and  C_9
REMARK    7  A    between atoms: C_9  and  C_10
REMARK    8  A    between atoms: C_11  and  O_62
REMARK    9  A    between atoms: C_12  and  O_61
REMARK   10  A    between atoms: C_13  and  O_60
REMARK   11  A    between atoms: C_14  and  O_16
REMARK   12  A    between atoms: O_16  and  C_17
REMARK   13  A    between atoms: C_18  and  C_41
REMARK   14  A    between atoms: C_22  and  O_29
REMARK   15  A    between atoms: C_24  and  O_28
REMARK   16  A    between atoms: O_29  and  C_30
REMARK   17  A    between atoms: C_31  and  O_40
REMARK   18  A    between atoms: C_32  and  O_39
REMARK   19  A    between atoms: C_33  and  O_38
REMARK   20  A    between atoms: C_34  and  C_36
REMARK   21  A    between atoms: C_36  and  O_37
REMARK   22  A    between atoms: C_43  and  O_48
REMARK   23  A    between atoms: C_44  and  O_47
REMARK   24  A    between atoms: O_48  and  C_49
REMARK   25  A    between atoms: C_50  and  O_59
REMARK   26  A    between atoms: C_51  and  O_58
REMARK   27  A    between atoms: C_52  and  O_57
REMARK   28  A    between atoms: C_53  and  C_55
REMARK   29  A    between atoms: C_55  and  O_56
REMARK                            x       y       z     vdW  Elec       q    Type
REMARK                         _______ _______ _______ _____ _____    ______ ____
ROOT
ATOM      1  C   UNL     1       6.924   0.863  26.432  0.00  0.00    +0.214 A 
ATOM      2  C   UNL     1       5.810   1.226  27.376  0.00  0.00    +0.238 A 
ATOM      3  O   UNL     1       5.705   2.373  27.792  0.00  0.00    -0.283 OA
ATOM      4  C   UNL     1       4.832   0.157  27.753  0.00  0.00    +0.109 A 
ATOM      5  C   UNL     1       4.966  -1.085  27.159  0.00  0.00    +0.147 A 
ATOM      6  C   UNL     1       4.090  -2.152  27.439  0.00  0.00    +0.093 A 
ATOM      7  C   UNL     1       3.096  -2.022  28.402  0.00  0.00    +0.131 A 
ATOM      8  C   UNL     1       2.940  -0.770  29.009  0.00  0.00    +0.092 A 
ATOM      9  O   UNL     1       5.944  -1.368  26.261  0.00  0.00    -0.451 OA
ATOM     10  C   UNL     1       3.777   0.315  28.659  0.00  0.00    +0.135 A 
ATOM     11  C   UNL     1       6.867  -0.385  25.925  0.00  0.00    +0.181 A 
ENDROOT
BRANCH  11  12
ATOM     12  C   UNL     1       7.701  -0.910  24.842  0.00  0.00    +0.025 A 
ATOM     13  C   UNL     1       9.038  -0.500  24.863  0.00  0.00    +0.015 A 
ATOM     14  C   UNL     1       9.809  -0.570  23.712  0.00  0.00    +0.050 A 
ATOM     15  C   UNL     1       9.303  -1.218  22.592  0.00  0.00    +0.159 A 
ATOM     16  C   UNL     1       8.063  -1.858  22.632  0.00  0.00    +0.166 A 
ATOM     17  C   UNL     1       7.206  -1.583  23.711  0.00  0.00    +0.061 A 
BRANCH  15  18
ATOM     18  O   UNL     1      10.151  -1.327  21.528  0.00  0.00    -0.503 OA
ATOM     19  H   UNL     1      11.034  -1.214  21.944  0.00  0.00    +0.292 HD
ENDBRANCH  15  18
BRANCH  16  20
ATOM     20  O   UNL     1       7.622  -2.822  21.761  0.00  0.00    -0.457 OA
BRANCH  20  21
ATOM     21  C   UNL     1       6.245  -3.237  21.867  0.00  0.00    +0.339 C 
ATOM     22  O   UNL     1       6.033  -3.860  23.166  0.00  0.00    -0.331 OA
ATOM     23  C   UNL     1       6.736  -5.106  23.346  0.00  0.00    +0.179 C 
ATOM     24  C   UNL     1       6.252  -6.134  22.313  0.00  0.00    +0.177 C 
ATOM     25  C   UNL     1       6.448  -5.573  20.904  0.00  0.00    +0.180 C 
ATOM     26  C   UNL     1       5.717  -4.236  20.782  0.00  0.00    +0.214 C 
BRANCH  26  27
ATOM     27  O   UNL     1       5.729  -3.815  19.411  0.00  0.00    -0.383 OA
ATOM     28  H   UNL     1       6.675  -3.794  19.152  0.00  0.00    +0.210 HD
ENDBRANCH  26  27
BRANCH  25  29
ATOM     29  O   UNL     1       5.900  -6.471  19.923  0.00  0.00    -0.386 OA
ATOM     30  H   UNL     1       5.176  -5.978  19.483  0.00  0.00    +0.210 HD
ENDBRANCH  25  29
BRANCH  24  31
ATOM     31  O   UNL     1       4.850  -6.426  22.476  0.00  0.00    -0.386 OA
ATOM     32  H   UNL     1       4.359  -5.965  21.766  0.00  0.00    +0.210 HD
ENDBRANCH  24  31
BRANCH  23  33
ATOM     33  C   UNL     1       6.470  -5.616  24.776  0.00  0.00    +0.190 C 
BRANCH  33  34
ATOM     34  O   UNL     1       5.191  -5.223  25.265  0.00  0.00    -0.392 OA
ATOM     35  H   UNL     1       4.897  -5.872  25.926  0.00  0.00    +0.210 HD
ENDBRANCH  33  34
ENDBRANCH  23  33
ENDBRANCH  20  21
ENDBRANCH  16  20
ENDBRANCH  11  12
BRANCH  10  36
ATOM     36  O   UNL     1       3.543   1.532  29.238  0.00  0.00    -0.506 OA
ATOM     37  H   UNL     1       3.092   1.412  30.089  0.00  0.00    +0.292 HD
ENDBRANCH  10  36
BRANCH   7  38
ATOM     38  O   UNL     1       2.272  -3.037  28.847  0.00  0.00    -0.461 OA
BRANCH  38  39
ATOM     39  C   UNL     1       2.712  -3.772  30.012  0.00  0.00    +0.339 C 
ATOM     40  O   UNL     1       4.072  -4.195  29.869  0.00  0.00    -0.331 OA
ATOM     41  C   UNL     1       4.249  -5.114  28.772  0.00  0.00    +0.179 C 
ATOM     42  C   UNL     1       3.497  -6.413  29.082  0.00  0.00    +0.177 C 
ATOM     43  C   UNL     1       2.000  -6.123  29.295  0.00  0.00    +0.180 C 
ATOM     44  C   UNL     1       1.813  -4.997  30.327  0.00  0.00    +0.214 C 
BRANCH  44  45
ATOM     45  O   UNL     1       0.444  -4.616  30.484  0.00  0.00    -0.383 OA
ATOM     46  H   UNL     1       0.235  -4.598  31.432  0.00  0.00    +0.210 HD
ENDBRANCH  44  45
BRANCH  43  47
ATOM     47  O   UNL     1       1.364  -7.338  29.744  0.00  0.00    -0.386 OA
ATOM     48  H   UNL     1       1.042  -7.788  28.935  0.00  0.00    +0.210 HD
ENDBRANCH  43  47
BRANCH  42  49
ATOM     49  O   UNL     1       4.006  -7.026  30.283  0.00  0.00    -0.386 OA
ATOM     50  H   UNL     1       3.305  -7.598  30.651  0.00  0.00    +0.210 HD
ENDBRANCH  42  49
BRANCH  41  51
ATOM     51  C   UNL     1       5.752  -5.354  28.586  0.00  0.00    +0.190 C 
BRANCH  51  52
ATOM     52  O   UNL     1       6.394  -5.577  29.843  0.00  0.00    -0.392 OA
ATOM     53  H   UNL     1       5.875  -6.229  30.341  0.00  0.00    +0.210 HD
ENDBRANCH  51  52
ENDBRANCH  41  51
ENDBRANCH  38  39
ENDBRANCH   7  38
BRANCH   1  54
ATOM     54  O   UNL     1       7.902   1.762  25.993  0.00  0.00    -0.453 OA
BRANCH  54  57
ATOM     55  C   UNL     1       6.559   3.540  23.018  0.00  0.00    +0.179 C 
ATOM     56  O   UNL     1       6.793   2.595  24.093  0.00  0.00    -0.331 OA
ATOM     57  C   UNL     1       7.599   2.970  25.240  0.00  0.00    +0.340 C 
ATOM     58  C   UNL     1       8.922   3.621  24.788  0.00  0.00    +0.214 C 
ATOM     59  C   UNL     1       8.607   4.768  23.837  0.00  0.00    +0.180 C 
ATOM     60  C   UNL     1       7.877   4.230  22.599  0.00  0.00    +0.177 C 
BRANCH  60  61
ATOM     61  O   UNL     1       7.661   5.303  21.673  0.00  0.00    -0.386 OA
ATOM     62  H   UNL     1       8.470   5.362  21.126  0.00  0.00    +0.210 HD
ENDBRANCH  60  61
BRANCH  59  63
ATOM     63  O   UNL     1       9.802   5.427  23.398  0.00  0.00    -0.386 OA
ATOM     64  H   UNL     1       9.938   6.171  24.017  0.00  0.00    +0.210 HD
ENDBRANCH  59  63
BRANCH  58  65
ATOM     65  O   UNL     1       9.783   2.690  24.089  0.00  0.00    -0.383 OA
ATOM     66  H   UNL     1       9.534   1.792  24.389  0.00  0.00    +0.210 HD
ENDBRANCH  58  65
BRANCH  55  67
ATOM     67  C   UNL     1       5.433   4.622  23.179  0.00  0.00    +0.197 C 
BRANCH  67  68
ATOM     68  O   UNL     1       4.067   4.274  22.918  0.00  0.00    -0.346 OA
BRANCH  68  72
ATOM     69  C   UNL     1       2.290   6.257  26.290  0.00  0.00    +0.041 C 
ATOM     70  C   UNL     1       3.345   5.156  26.329  0.00  0.00    +0.149 C 
ATOM     71  O   UNL     1       3.974   5.023  25.058  0.00  0.00    -0.343 OA
ATOM     72  C   UNL     1       3.202   4.414  24.038  0.00  0.00    +0.282 C 
ATOM     73  C   UNL     1       2.721   3.002  24.470  0.00  0.00    +0.201 C 
ATOM     74  C   UNL     1       1.960   3.102  25.798  0.00  0.00    +0.179 C 
ATOM     75  C   UNL     1       2.841   3.805  26.848  0.00  0.00    +0.174 C 
BRANCH  75  76
ATOM     76  O   UNL     1       2.177   3.969  28.102  0.00  0.00    -0.387 OA
ATOM     77  H   UNL     1       2.813   3.800  28.817  0.00  0.00    +0.210 HD
ENDBRANCH  75  76
BRANCH  74  78
ATOM     78  O   UNL     1       1.596   1.792  26.256  0.00  0.00    -0.386 OA
ATOM     79  H   UNL     1       1.597   1.847  27.233  0.00  0.00    +0.210 HD
ENDBRANCH  74  78
BRANCH  73  80
ATOM     80  O   UNL     1       3.836   2.105  24.664  0.00  0.00    -0.384 OA
ATOM     81  H   UNL     1       3.468   1.212  24.504  0.00  0.00    +0.210 HD
ENDBRANCH  73  80
ENDBRANCH  68  72
ENDBRANCH  67  68
ENDBRANCH  55  67
ENDBRANCH  54  57
ENDBRANCH   1  54
TORSDOF 28
ENDMDL
MODEL 6
REMARK VINA RESULT:      -4.8      2.144      8.358
REMARK  Name = 
REMARK  29 active torsions:
REMARK  status: ('A' for Active; 'I' for Inactive)
REMARK    1  A    between atoms: C_1  and  C_2
REMARK    2  A    between atoms: C_3  and  O_65
REMARK    3  A    between atoms: C_4  and  O_64
REMARK    4  A    between atoms: C_5  and  O_63
REMARK    5  A    between atoms: C_6  and  O_8
REMARK    6  A    between atoms: O_8  and  C_9
REMARK    7  A    between atoms: C_9  and  C_10
REMARK    8  A    between atoms: C_11  and  O_62
REMARK    9  A    between atoms: C_12  and  O_61
REMARK   10  A    between atoms: C_13  and  O_60
REMARK   11  A    between atoms: C_14  and  O_16
REMARK   12  A    between atoms: O_16  and  C_17
REMARK   13  A    between atoms: C_18  and  C_41
REMARK   14  A    between atoms: C_22  and  O_29
REMARK   15  A    between atoms: C_24  and  O_28
REMARK   16  A    between atoms: O_29  and  C_30
REMARK   17  A    between atoms: C_31  and  O_40
REMARK   18  A    between atoms: C_32  and  O_39
REMARK   19  A    between atoms: C_33  and  O_38
REMARK   20  A    between atoms: C_34  and  C_36
REMARK   21  A    between atoms: C_36  and  O_37
REMARK   22  A    between atoms: C_43  and  O_48
REMARK   23  A    between atoms: C_44  and  O_47
REMARK   24  A    between atoms: O_48  and  C_49
REMARK   25  A    between atoms: C_50  and  O_59
REMARK   26  A    between atoms: C_51  and  O_58
REMARK   27  A    between atoms: C_52  and  O_57
REMARK   28  A    between atoms: C_53  and  C_55
REMARK   29  A    between atoms: C_55  and  O_56
REMARK                            x       y       z     vdW  Elec       q    Type
REMARK                         _______ _______ _______ _____ _____    ______ ____
ROOT
ATOM      1  C   UNL     1       6.000  -4.229  27.485  0.00  0.00    +0.214 A 
ATOM      2  C   UNL     1       7.186  -4.556  26.620  0.00  0.00    +0.238 A 
ATOM      3  O   UNL     1       7.486  -5.723  26.401  0.00  0.00    -0.283 OA
ATOM      4  C   UNL     1       7.951  -3.419  26.017  0.00  0.00    +0.109 A 
ATOM      5  C   UNL     1       7.483  -2.134  26.233  0.00  0.00    +0.147 A 
ATOM      6  C   UNL     1       8.127  -1.000  25.699  0.00  0.00    +0.093 A 
ATOM      7  C   UNL     1       9.320  -1.123  24.998  0.00  0.00    +0.131 A 
ATOM      8  C   UNL     1       9.805  -2.415  24.764  0.00  0.00    +0.092 A 
ATOM      9  O   UNL     1       6.372  -1.871  26.967  0.00  0.00    -0.451 OA
ATOM     10  C   UNL     1       9.106  -3.550  25.237  0.00  0.00    +0.135 A 
ATOM     11  C   UNL     1       5.672  -2.922  27.546  0.00  0.00    +0.181 A 
ENDROOT
BRANCH  11  12
ATOM     12  C   UNL     1       4.455  -2.370  28.144  0.00  0.00    +0.025 A 
ATOM     13  C   UNL     1       4.193  -2.779  29.455  0.00  0.00    +0.015 A 
ATOM     14  C   UNL     1       2.910  -2.679  29.975  0.00  0.00    +0.050 A 
ATOM     15  C   UNL     1       1.933  -2.004  29.254  0.00  0.00    +0.159 A 
ATOM     16  C   UNL     1       2.242  -1.367  28.051  0.00  0.00    +0.166 A 
ATOM     17  C   UNL     1       3.465  -1.669  27.431  0.00  0.00    +0.061 A 
BRANCH  15  18
ATOM     18  O   UNL     1       0.722  -1.868  29.868  0.00  0.00    -0.503 OA
ATOM     19  H   UNL     1       0.943  -1.339  30.665  0.00  0.00    +0.292 HD
ENDBRANCH  15  18
BRANCH  16  20
ATOM     20  O   UNL     1       1.503  -0.382  27.446  0.00  0.00    -0.457 OA
BRANCH  20  21
ATOM     21  C   UNL     1       1.363   0.872  28.144  0.00  0.00    +0.339 C 
ATOM     22  O   UNL     1       0.637   1.810  27.299  0.00  0.00    -0.331 OA
ATOM     23  C   UNL     1       1.349   2.208  26.111  0.00  0.00    +0.179 C 
ATOM     24  C   UNL     1       2.652   2.924  26.496  0.00  0.00    +0.177 C 
ATOM     25  C   UNL     1       3.496   2.007  27.380  0.00  0.00    +0.180 C 
ATOM     26  C   UNL     1       2.681   1.584  28.602  0.00  0.00    +0.214 C 
BRANCH  26  27
ATOM     27  O   UNL     1       3.535   0.897  29.526  0.00  0.00    -0.383 OA
ATOM     28  H   UNL     1       2.973   0.698  30.306  0.00  0.00    +0.210 HD
ENDBRANCH  26  27
BRANCH  25  29
ATOM     29  O   UNL     1       4.670   2.694  27.846  0.00  0.00    -0.386 OA
ATOM     30  H   UNL     1       4.609   3.604  27.485  0.00  0.00    +0.210 HD
ENDBRANCH  25  29
BRANCH  24  31
ATOM     31  O   UNL     1       2.390   4.130  27.241  0.00  0.00    -0.386 OA
ATOM     32  H   UNL     1       3.207   4.371  27.723  0.00  0.00    +0.210 HD
ENDBRANCH  24  31
BRANCH  23  33
ATOM     33  C   UNL     1       0.444   3.146  25.289  0.00  0.00    +0.190 C 
BRANCH  33  34
ATOM     34  O   UNL     1       1.190   4.021  24.447  0.00  0.00    -0.392 OA
ATOM     35  H   UNL     1       2.105   4.063  24.773  0.00  0.00    +0.210 HD
ENDBRANCH  33  34
ENDBRANCH  23  33
ENDBRANCH  20  21
ENDBRANCH  16  20
ENDBRANCH  11  12
BRANCH  10  36
ATOM     36  O   UNL     1       9.591  -4.790  24.929  0.00  0.00    -0.506 OA
ATOM     37  H   UNL     1       9.426  -4.986  23.992  0.00  0.00    +0.292 HD
ENDBRANCH  10  36
BRANCH   7  38
ATOM     38  O   UNL     1      10.098  -0.075  24.549  0.00  0.00    -0.461 OA
BRANCH  38  39
ATOM     39  C   UNL     1       9.910   0.338  23.176  0.00  0.00    +0.339 C 
ATOM     40  O   UNL     1      10.696   1.496  22.876  0.00  0.00    -0.331 OA
ATOM     41  C   UNL     1      10.305   2.644  23.656  0.00  0.00    +0.179 C 
ATOM     42  C   UNL     1       8.883   3.057  23.256  0.00  0.00    +0.177 C 
ATOM     43  C   UNL     1       7.904   1.894  23.495  0.00  0.00    +0.180 C 
ATOM     44  C   UNL     1       8.423   0.609  22.826  0.00  0.00    +0.214 C 
BRANCH  44  45
ATOM     45  O   UNL     1       7.603  -0.528  23.106  0.00  0.00    -0.383 OA
ATOM     46  H   UNL     1       7.475  -0.589  24.066  0.00  0.00    +0.210 HD
ENDBRANCH  44  45
BRANCH  43  47
ATOM     47  O   UNL     1       6.619   2.267  22.956  0.00  0.00    -0.386 OA
ATOM     48  H   UNL     1       6.353   3.081  23.431  0.00  0.00    +0.210 HD
ENDBRANCH  43  47
BRANCH  42  49
ATOM     49  O   UNL     1       8.825   3.408  21.860  0.00  0.00    -0.386 OA
ATOM     50  H   UNL     1       8.004   3.916  21.710  0.00  0.00    +0.210 HD
ENDBRANCH  42  49
BRANCH  41  51
ATOM     51  C   UNL     1      11.319   3.765  23.402  0.00  0.00    +0.190 C 
BRANCH  51  52
ATOM     52  O   UNL     1      10.662   5.026  23.259  0.00  0.00    -0.392 OA
ATOM     53  H   UNL     1      11.273   5.643  22.824  0.00  0.00    +0.210 HD
ENDBRANCH  51  52
ENDBRANCH  41  51
ENDBRANCH  38  39
ENDBRANCH   7  38
BRANCH   1  54
ATOM     54  O   UNL     1       5.194  -5.190  28.106  0.00  0.00    -0.453 OA
BRANCH  54  57
ATOM     55  C   UNL     1       2.527  -5.969  25.637  0.00  0.00    +0.179 C 
ATOM     56  O   UNL     1       3.637  -5.370  26.351  0.00  0.00    -0.331 OA
ATOM     57  C   UNL     1       4.347  -6.119  27.372  0.00  0.00    +0.340 C 
ATOM     58  C   UNL     1       3.356  -6.774  28.355  0.00  0.00    +0.214 C 
ATOM     59  C   UNL     1       2.343  -7.590  27.564  0.00  0.00    +0.180 C 
ATOM     60  C   UNL     1       1.559  -6.670  26.618  0.00  0.00    +0.177 C 
BRANCH  60  61
ATOM     61  O   UNL     1       0.553  -7.433  25.941  0.00  0.00    -0.386 OA
ATOM     62  H   UNL     1       0.770  -7.391  24.988  0.00  0.00    +0.210 HD
ENDBRANCH  60  61
BRANCH  59  63
ATOM     63  O   UNL     1       1.405  -8.241  28.430  0.00  0.00    -0.386 OA
ATOM     64  H   UNL     1       0.527  -7.891  28.183  0.00  0.00    +0.210 HD
ENDBRANCH  59  63
BRANCH  58  65
ATOM     65  O   UNL     1       2.625  -5.795  29.133  0.00  0.00    -0.383 OA
ATOM     66  H   UNL     1       3.136  -5.646  29.955  0.00  0.00    +0.210 HD
ENDBRANCH  58  65
BRANCH  55  67
ATOM     67  C   UNL     1       2.819  -6.923  24.424  0.00  0.00    +0.197 C 
BRANCH  67  68
ATOM     68  O   UNL     1       3.372  -6.389  23.215  0.00  0.00    -0.346 OA
BRANCH  68  72
ATOM     69  C   UNL     1       5.316  -2.609  23.842  0.00  0.00    +0.041 C 
ATOM     70  C   UNL     1       5.251  -3.398  22.538  0.00  0.00    +0.149 C 
ATOM     71  O   UNL     1       4.216  -4.375  22.597  0.00  0.00    -0.343 OA
ATOM     72  C   UNL     1       4.470  -5.507  23.411  0.00  0.00    +0.282 C 
ATOM     73  C   UNL     1       5.770  -6.232  22.969  0.00  0.00    +0.201 C 
ATOM     74  C   UNL     1       6.939  -5.238  22.969  0.00  0.00    +0.179 C 
ATOM     75  C   UNL     1       6.582  -4.019  22.098  0.00  0.00    +0.174 C 
BRANCH  75  76
ATOM     76  O   UNL     1       7.613  -3.030  22.087  0.00  0.00    -0.387 OA
ATOM     77  H   UNL     1       7.214  -2.166  21.893  0.00  0.00    +0.210 HD
ENDBRANCH  75  76
BRANCH  74  78
ATOM     78  O   UNL     1       8.124  -5.872  22.469  0.00  0.00    -0.386 OA
ATOM     79  H   UNL     1       8.738  -5.918  23.230  0.00  0.00    +0.210 HD
ENDBRANCH  74  78
BRANCH  73  80
ATOM     80  O   UNL     1       5.644  -6.767  21.634  0.00  0.00    -0.384 OA
ATOM     81  H   UNL     1       5.481  -7.724  21.762  0.00  0.00    +0.210 HD
ENDBRANCH  73  80
ENDBRANCH  68  72
ENDBRANCH  67  68
ENDBRANCH  55  67
ENDBRANCH  54  57
ENDBRANCH   1  54
TORSDOF 28
ENDMDL
MODEL 7
REMARK VINA RESULT:      -4.7      1.908      9.062
REMARK  Name = 
REMARK  29 active torsions:
REMARK  status: ('A' for Active; 'I' for Inactive)
REMARK    1  A    between atoms: C_1  and  C_2
REMARK    2  A    between atoms: C_3  and  O_65
REMARK    3  A    between atoms: C_4  and  O_64
REMARK    4  A    between atoms: C_5  and  O_63
REMARK    5  A    between atoms: C_6  and  O_8
REMARK    6  A    between atoms: O_8  and  C_9
REMARK    7  A    between atoms: C_9  and  C_10
REMARK    8  A    between atoms: C_11  and  O_62
REMARK    9  A    between atoms: C_12  and  O_61
REMARK   10  A    between atoms: C_13  and  O_60
REMARK   11  A    between atoms: C_14  and  O_16
REMARK   12  A    between atoms: O_16  and  C_17
REMARK   13  A    between atoms: C_18  and  C_41
REMARK   14  A    between atoms: C_22  and  O_29
REMARK   15  A    between atoms: C_24  and  O_28
REMARK   16  A    between atoms: O_29  and  C_30
REMARK   17  A    between atoms: C_31  and  O_40
REMARK   18  A    between atoms: C_32  and  O_39
REMARK   19  A    between atoms: C_33  and  O_38
REMARK   20  A    between atoms: C_34  and  C_36
REMARK   21  A    between atoms: C_36  and  O_37
REMARK   22  A    between atoms: C_43  and  O_48
REMARK   23  A    between atoms: C_44  and  O_47
REMARK   24  A    between atoms: O_48  and  C_49
REMARK   25  A    between atoms: C_50  and  O_59
REMARK   26  A    between atoms: C_51  and  O_58
REMARK   27  A    between atoms: C_52  and  O_57
REMARK   28  A    between atoms: C_53  and  C_55
REMARK   29  A    between atoms: C_55  and  O_56
REMARK                            x       y       z     vdW  Elec       q    Type
REMARK                         _______ _______ _______ _____ _____    ______ ____
ROOT
ATOM      1  C   UNL     1       5.594  -0.671  27.000  0.00  0.00    +0.214 A 
ATOM      2  C   UNL     1       6.507   0.492  26.721  0.00  0.00    +0.238 A 
ATOM      3  O   UNL     1       7.722   0.349  26.776  0.00  0.00    -0.283 OA
ATOM      4  C   UNL     1       5.882   1.800  26.346  0.00  0.00    +0.109 A 
ATOM      5  C   UNL     1       4.506   1.848  26.209  0.00  0.00    +0.147 A 
ATOM      6  C   UNL     1       3.827   3.028  25.848  0.00  0.00    +0.093 A 
ATOM      7  C   UNL     1       4.513   4.228  25.699  0.00  0.00    +0.131 A 
ATOM      8  C   UNL     1       5.908   4.197  25.827  0.00  0.00    +0.092 A 
ATOM      9  O   UNL     1       3.710   0.766  26.405  0.00  0.00    -0.451 OA
ATOM     10  C   UNL     1       6.584   2.988  26.110  0.00  0.00    +0.135 A 
ATOM     11  C   UNL     1       4.284  -0.445  26.775  0.00  0.00    +0.181 A 
ENDROOT
BRANCH  11  12
ATOM     12  C   UNL     1       3.226  -1.457  26.772  0.00  0.00    +0.025 A 
ATOM     13  C   UNL     1       2.430  -1.494  27.920  0.00  0.00    +0.015 A 
ATOM     14  C   UNL     1       1.696  -2.632  28.225  0.00  0.00    +0.050 A 
ATOM     15  C   UNL     1       1.613  -3.659  27.294  0.00  0.00    +0.159 A 
ATOM     16  C   UNL     1       2.197  -3.532  26.032  0.00  0.00    +0.166 A 
ATOM     17  C   UNL     1       3.118  -2.492  25.826  0.00  0.00    +0.061 A 
BRANCH  15  18
ATOM     18  O   UNL     1       0.801  -4.705  27.625  0.00  0.00    -0.503 OA
ATOM     19  H   UNL     1      -0.068  -4.427  27.261  0.00  0.00    +0.292 HD
ENDBRANCH  15  18
BRANCH  16  20
ATOM     20  O   UNL     1       1.886  -4.273  24.920  0.00  0.00    -0.457 OA
BRANCH  20  21
ATOM     21  C   UNL     1       2.825  -5.288  24.511  0.00  0.00    +0.339 C 
ATOM     22  O   UNL     1       2.416  -5.824  23.220  0.00  0.00    -0.331 OA
ATOM     23  C   UNL     1       1.177  -6.559  23.251  0.00  0.00    +0.179 C 
ATOM     24  C   UNL     1       1.313  -7.776  24.179  0.00  0.00    +0.177 C 
ATOM     25  C   UNL     1       1.730  -7.311  25.574  0.00  0.00    +0.180 C 
ATOM     26  C   UNL     1       3.025  -6.505  25.476  0.00  0.00    +0.214 C 
BRANCH  26  27
ATOM     27  O   UNL     1       3.521  -6.247  26.797  0.00  0.00    -0.383 OA
ATOM     28  H   UNL     1       4.120  -5.475  26.706  0.00  0.00    +0.210 HD
ENDBRANCH  26  27
BRANCH  25  29
ATOM     29  O   UNL     1       1.972  -8.440  26.430  0.00  0.00    -0.386 OA
ATOM     30  H   UNL     1       2.308  -8.070  27.273  0.00  0.00    +0.210 HD
ENDBRANCH  25  29
BRANCH  24  31
ATOM     31  O   UNL     1       2.320  -8.691  23.703  0.00  0.00    -0.386 OA
ATOM     32  H   UNL     1       3.156  -8.193  23.600  0.00  0.00    +0.210 HD
ENDBRANCH  24  31
BRANCH  23  33
ATOM     33  C   UNL     1       0.839  -7.012  21.818  0.00  0.00    +0.190 C 
BRANCH  33  34
ATOM     34  O   UNL     1       0.443  -8.379  21.758  0.00  0.00    -0.392 OA
ATOM     35  H   UNL     1       1.075  -8.910  22.272  0.00  0.00    +0.210 HD
ENDBRANCH  33  34
ENDBRANCH  23  33
ENDBRANCH  20  21
ENDBRANCH  16  20
ENDBRANCH  11  12
BRANCH  10  36
ATOM     36  O   UNL     1       7.950   3.003  26.165  0.00  0.00    -0.506 OA
ATOM     37  H   UNL     1       8.307   3.481  25.398  0.00  0.00    +0.292 HD
ENDBRANCH  10  36
BRANCH   7  38
ATOM     38  O   UNL     1       3.935   5.462  25.479  0.00  0.00    -0.461 OA
BRANCH  38  39
ATOM     39  C   UNL     1       3.779   5.875  24.102  0.00  0.00    +0.339 C 
ATOM     40  O   UNL     1       2.597   5.308  23.527  0.00  0.00    -0.331 OA
ATOM     41  C   UNL     1       2.650   3.868  23.469  0.00  0.00    +0.179 C 
ATOM     42  C   UNL     1       3.762   3.448  22.501  0.00  0.00    +0.177 C 
ATOM     43  C   UNL     1       5.116   4.010  22.969  0.00  0.00    +0.180 C 
ATOM     44  C   UNL     1       5.009   5.524  23.224  0.00  0.00    +0.214 C 
BRANCH  44  45
ATOM     45  O   UNL     1       6.212   6.079  23.761  0.00  0.00    -0.383 OA
ATOM     46  H   UNL     1       6.914   5.997  23.096  0.00  0.00    +0.210 HD
ENDBRANCH  44  45
BRANCH  43  47
ATOM     47  O   UNL     1       6.098   3.733  21.949  0.00  0.00    -0.386 OA
ATOM     48  H   UNL     1       5.631   3.829  21.093  0.00  0.00    +0.210 HD
ENDBRANCH  43  47
BRANCH  42  49
ATOM     49  O   UNL     1       3.505   3.952  21.176  0.00  0.00    -0.386 OA
ATOM     50  H   UNL     1       3.621   4.923  21.194  0.00  0.00    +0.210 HD
ENDBRANCH  42  49
BRANCH  41  51
ATOM     51  C   UNL     1       1.277   3.355  23.021  0.00  0.00    +0.190 C 
BRANCH  51  52
ATOM     52  O   UNL     1       1.412   2.264  22.107  0.00  0.00    -0.392 OA
ATOM     53  H   UNL     1       1.966   1.584  22.521  0.00  0.00    +0.210 HD
ENDBRANCH  51  52
ENDBRANCH  41  51
ENDBRANCH  38  39
ENDBRANCH   7  38
BRANCH   1  54
ATOM     54  O   UNL     1       6.041  -1.949  27.355  0.00  0.00    -0.453 OA
BRANCH  54  57
ATOM     55  C   UNL     1       7.978  -3.144  24.417  0.00  0.00    +0.179 C 
ATOM     56  O   UNL     1       7.114  -2.397  25.310  0.00  0.00    -0.331 OA
ATOM     57  C   UNL     1       7.197  -2.590  26.746  0.00  0.00    +0.340 C 
ATOM     58  C   UNL     1       7.176  -4.092  27.096  0.00  0.00    +0.214 C 
ATOM     59  C   UNL     1       8.265  -4.800  26.301  0.00  0.00    +0.180 C 
ATOM     60  C   UNL     1       7.997  -4.642  24.799  0.00  0.00    +0.177 C 
BRANCH  60  61
ATOM     61  O   UNL     1       8.979  -5.381  24.062  0.00  0.00    -0.386 OA
ATOM     62  H   UNL     1       8.719  -5.323  23.121  0.00  0.00    +0.210 HD
ENDBRANCH  60  61
BRANCH  59  63
ATOM     63  O   UNL     1       8.307  -6.200  26.602  0.00  0.00    -0.386 OA
ATOM     64  H   UNL     1       7.429  -6.551  26.357  0.00  0.00    +0.210 HD
ENDBRANCH  59  63
BRANCH  58  65
ATOM     65  O   UNL     1       5.911  -4.717  26.766  0.00  0.00    -0.383 OA
ATOM     66  H   UNL     1       5.250  -3.999  26.694  0.00  0.00    +0.210 HD
ENDBRANCH  58  65
BRANCH  55  67
ATOM     67  C   UNL     1       9.449  -2.649  24.178  0.00  0.00    +0.197 C 
BRANCH  67  68
ATOM     68  O   UNL     1       9.849  -2.206  22.875  0.00  0.00    -0.346 OA
BRANCH  68  72
ATOM     69  C   UNL     1      11.253   1.672  24.079  0.00  0.00    +0.041 C 
ATOM     70  C   UNL     1       9.823   1.149  24.172  0.00  0.00    +0.149 C 
ATOM     71  O   UNL     1       9.804  -0.272  24.060  0.00  0.00    -0.343 OA
ATOM     72  C   UNL     1      10.044  -0.801  22.768  0.00  0.00    +0.282 C 
ATOM     73  C   UNL     1       9.028  -0.240  21.737  0.00  0.00    +0.201 C 
ATOM     74  C   UNL     1       9.069   1.294  21.756  0.00  0.00    +0.179 C 
ATOM     75  C   UNL     1       8.839   1.799  23.193  0.00  0.00    +0.174 C 
BRANCH  75  76
ATOM     76  O   UNL     1       8.906   3.224  23.293  0.00  0.00    -0.387 OA
ATOM     77  H   UNL     1       8.208   3.528  23.895  0.00  0.00    +0.210 HD
ENDBRANCH  75  76
BRANCH  74  78
ATOM     78  O   UNL     1       8.066   1.825  20.879  0.00  0.00    -0.386 OA
ATOM     79  H   UNL     1       7.248   1.329  21.086  0.00  0.00    +0.210 HD
ENDBRANCH  74  78
BRANCH  73  80
ATOM     80  O   UNL     1       7.679  -0.650  22.052  0.00  0.00    -0.384 OA
ATOM     81  H   UNL     1       7.529  -0.333  22.966  0.00  0.00    +0.210 HD
ENDBRANCH  73  80
ENDBRANCH  68  72
ENDBRANCH  67  68
ENDBRANCH  55  67
ENDBRANCH  54  57
ENDBRANCH   1  54
TORSDOF 28
ENDMDL
MODEL 8
REMARK VINA RESULT:      -4.6      1.846      9.062
REMARK  Name = 
REMARK  29 active torsions:
REMARK  status: ('A' for Active; 'I' for Inactive)
REMARK    1  A    between atoms: C_1  and  C_2
REMARK    2  A    between atoms: C_3  and  O_65
REMARK    3  A    between atoms: C_4  and  O_64
REMARK    4  A    between atoms: C_5  and  O_63
REMARK    5  A    between atoms: C_6  and  O_8
REMARK    6  A    between atoms: O_8  and  C_9
REMARK    7  A    between atoms: C_9  and  C_10
REMARK    8  A    between atoms: C_11  and  O_62
REMARK    9  A    between atoms: C_12  and  O_61
REMARK   10  A    between atoms: C_13  and  O_60
REMARK   11  A    between atoms: C_14  and  O_16
REMARK   12  A    between atoms: O_16  and  C_17
REMARK   13  A    between atoms: C_18  and  C_41
REMARK   14  A    between atoms: C_22  and  O_29
REMARK   15  A    between atoms: C_24  and  O_28
REMARK   16  A    between atoms: O_29  and  C_30
REMARK   17  A    between atoms: C_31  and  O_40
REMARK   18  A    between atoms: C_32  and  O_39
REMARK   19  A    between atoms: C_33  and  O_38
REMARK   20  A    between atoms: C_34  and  C_36
REMARK   21  A    between atoms: C_36  and  O_37
REMARK   22  A    between atoms: C_43  and  O_48
REMARK   23  A    between atoms: C_44  and  O_47
REMARK   24  A    between atoms: O_48  and  C_49
REMARK   25  A    between atoms: C_50  and  O_59
REMARK   26  A    between atoms: C_51  and  O_58
REMARK   27  A    between atoms: C_52  and  O_57
REMARK   28  A    between atoms: C_53  and  C_55
REMARK   29  A    between atoms: C_55  and  O_56
REMARK                            x       y       z     vdW  Elec       q    Type
REMARK                         _______ _______ _______ _____ _____    ______ ____
ROOT
ATOM      1  C   UNL     1       6.662  -0.222  26.780  0.00  0.00    +0.214 A 
ATOM      2  C   UNL     1       7.454   0.902  26.170  0.00  0.00    +0.238 A 
ATOM      3  O   UNL     1       8.643   0.751  25.916  0.00  0.00    -0.283 OA
ATOM      4  C   UNL     1       6.737   2.179  25.858  0.00  0.00    +0.109 A 
ATOM      5  C   UNL     1       5.373   2.229  26.083  0.00  0.00    +0.147 A 
ATOM      6  C   UNL     1       4.608   3.380  25.812  0.00  0.00    +0.093 A 
ATOM      7  C   UNL     1       5.215   4.554  25.383  0.00  0.00    +0.131 A 
ATOM      8  C   UNL     1       6.595   4.520  25.142  0.00  0.00    +0.092 A 
ATOM      9  O   UNL     1       4.670   1.177  26.576  0.00  0.00    -0.451 OA
ATOM     10  C   UNL     1       7.337   3.334  25.344  0.00  0.00    +0.135 A 
ATOM     11  C   UNL     1       5.336  -0.002  26.887  0.00  0.00    +0.181 A 
ENDROOT
BRANCH  11  12
ATOM     12  C   UNL     1       4.327  -0.999  27.251  0.00  0.00    +0.025 A 
ATOM     13  C   UNL     1       3.772  -0.852  28.525  0.00  0.00    +0.015 A 
ATOM     14  C   UNL     1       3.145  -1.926  29.142  0.00  0.00    +0.050 A 
ATOM     15  C   UNL     1       2.910  -3.087  28.417  0.00  0.00    +0.159 A 
ATOM     16  C   UNL     1       3.232  -3.162  27.061  0.00  0.00    +0.166 A 
ATOM     17  C   UNL     1       4.065  -2.171  26.517  0.00  0.00    +0.061 A 
BRANCH  15  18
ATOM     18  O   UNL     1       2.209  -4.065  29.061  0.00  0.00    -0.503 OA
ATOM     19  H   UNL     1       2.797  -4.846  28.971  0.00  0.00    +0.292 HD
ENDBRANCH  15  18
BRANCH  16  20
ATOM     20  O   UNL     1       2.732  -4.069  26.161  0.00  0.00    -0.457 OA
BRANCH  20  21
ATOM     21  C   UNL     1       3.264  -5.408  26.196  0.00  0.00    +0.339 C 
ATOM     22  O   UNL     1       4.138  -5.605  25.047  0.00  0.00    -0.331 OA
ATOM     23  C   UNL     1       3.457  -5.588  23.777  0.00  0.00    +0.179 C 
ATOM     24  C   UNL     1       2.433  -6.731  23.717  0.00  0.00    +0.177 C 
ATOM     25  C   UNL     1       1.455  -6.603  24.884  0.00  0.00    +0.180 C 
ATOM     26  C   UNL     1       2.232  -6.587  26.200  0.00  0.00    +0.214 C 
BRANCH  26  27
ATOM     27  O   UNL     1       1.309  -6.674  27.294  0.00  0.00    -0.383 OA
ATOM     28  H   UNL     1       1.601  -7.449  27.822  0.00  0.00    +0.210 HD
ENDBRANCH  26  27
BRANCH  25  29
ATOM     29  O   UNL     1       0.555  -7.724  24.913  0.00  0.00    -0.386 OA
ATOM     30  H   UNL     1       0.062  -7.695  24.067  0.00  0.00    +0.210 HD
ENDBRANCH  25  29
BRANCH  24  31
ATOM     31  O   UNL     1       3.074  -8.018  23.821  0.00  0.00    -0.386 OA
ATOM     32  H   UNL     1       3.401  -8.266  22.933  0.00  0.00    +0.210 HD
ENDBRANCH  24  31
BRANCH  23  33
ATOM     33  C   UNL     1       4.504  -5.745  22.657  0.00  0.00    +0.190 C 
BRANCH  33  34
ATOM     34  O   UNL     1       5.410  -6.815  22.906  0.00  0.00    -0.392 OA
ATOM     35  H   UNL     1       6.298  -6.548  22.612  0.00  0.00    +0.210 HD
ENDBRANCH  33  34
ENDBRANCH  23  33
ENDBRANCH  20  21
ENDBRANCH  16  20
ENDBRANCH  11  12
BRANCH  10  36
ATOM     36  O   UNL     1       8.669   3.338  25.036  0.00  0.00    -0.506 OA
ATOM     37  H   UNL     1       9.183   2.990  25.784  0.00  0.00    +0.292 HD
ENDBRANCH  10  36
BRANCH   7  38
ATOM     38  O   UNL     1       4.584   5.770  25.214  0.00  0.00    -0.461 OA
BRANCH  38  39
ATOM     39  C   UNL     1       4.054   6.056  23.900  0.00  0.00    +0.339 C 
ATOM     40  O   UNL     1       2.756   6.654  23.988  0.00  0.00    -0.331 OA
ATOM     41  C   UNL     1       1.785   5.772  24.587  0.00  0.00    +0.179 C 
ATOM     42  C   UNL     1       1.567   4.568  23.662  0.00  0.00    +0.177 C 
ATOM     43  C   UNL     1       2.894   3.822  23.440  0.00  0.00    +0.180 C 
ATOM     44  C   UNL     1       3.992   4.802  22.989  0.00  0.00    +0.214 C 
BRANCH  44  45
ATOM     45  O   UNL     1       5.272   4.177  22.869  0.00  0.00    -0.383 OA
ATOM     46  H   UNL     1       5.831   4.472  23.605  0.00  0.00    +0.210 HD
ENDBRANCH  44  45
BRANCH  43  47
ATOM     47  O   UNL     1       2.678   2.803  22.441  0.00  0.00    -0.386 OA
ATOM     48  H   UNL     1       2.387   3.275  21.633  0.00  0.00    +0.210 HD
ENDBRANCH  43  47
BRANCH  42  49
ATOM     49  O   UNL     1       1.074   4.992  22.377  0.00  0.00    -0.386 OA
ATOM     50  H   UNL     1       0.138   5.255  22.483  0.00  0.00    +0.210 HD
ENDBRANCH  42  49
BRANCH  41  51
ATOM     51  C   UNL     1       0.491   6.564  24.808  0.00  0.00    +0.190 C 
BRANCH  51  52
ATOM     52  O   UNL     1       0.443   7.107  26.129  0.00  0.00    -0.392 OA
ATOM     53  H   UNL     1      -0.448   7.459  26.284  0.00  0.00    +0.210 HD
ENDBRANCH  51  52
ENDBRANCH  41  51
ENDBRANCH  38  39
ENDBRANCH   7  38
BRANCH   1  54
ATOM     54  O   UNL     1       7.202  -1.469  27.116  0.00  0.00    -0.453 OA
BRANCH  54  57
ATOM     55  C   UNL     1       7.352  -3.355  23.917  0.00  0.00    +0.179 C 
ATOM     56  O   UNL     1       7.076  -2.374  24.948  0.00  0.00    -0.331 OA
ATOM     57  C   UNL     1       7.876  -2.333  26.158  0.00  0.00    +0.340 C 
ATOM     58  C   UNL     1       8.013  -3.742  26.770  0.00  0.00    +0.214 C 
ATOM     59  C   UNL     1       8.534  -4.695  25.702  0.00  0.00    +0.180 C 
ATOM     60  C   UNL     1       7.540  -4.760  24.535  0.00  0.00    +0.177 C 
BRANCH  60  61
ATOM     61  O   UNL     1       7.998  -5.721  23.575  0.00  0.00    -0.386 OA
ATOM     62  H   UNL     1       7.811  -6.603  23.958  0.00  0.00    +0.210 HD
ENDBRANCH  60  61
BRANCH  59  63
ATOM     63  O   UNL     1       8.702  -6.020  26.219  0.00  0.00    -0.386 OA
ATOM     64  H   UNL     1       9.494  -6.381  25.775  0.00  0.00    +0.210 HD
ENDBRANCH  59  63
BRANCH  58  65
ATOM     65  O   UNL     1       6.747  -4.261  27.246  0.00  0.00    -0.383 OA
ATOM     66  H   UNL     1       6.511  -3.747  28.044  0.00  0.00    +0.210 HD
ENDBRANCH  58  65
BRANCH  55  67
ATOM     67  C   UNL     1       8.504  -3.083  22.885  0.00  0.00    +0.197 C 
BRANCH  67  68
ATOM     68  O   UNL     1       8.329  -2.087  21.869  0.00  0.00    -0.346 OA
BRANCH  68  72
ATOM     69  C   UNL     1       7.783   2.175  21.857  0.00  0.00    +0.041 C 
ATOM     70  C   UNL     1       9.008   1.409  21.367  0.00  0.00    +0.149 C 
ATOM     71  O   UNL     1       8.687   0.037  21.156  0.00  0.00    -0.343 OA
ATOM     72  C   UNL     1       8.509  -0.750  22.321  0.00  0.00    +0.282 C 
ATOM     73  C   UNL     1       9.770  -0.701  23.225  0.00  0.00    +0.201 C 
ATOM     74  C   UNL     1      10.112   0.758  23.554  0.00  0.00    +0.179 C 
ATOM     75  C   UNL     1      10.254   1.562  22.248  0.00  0.00    +0.174 C 
BRANCH  75  76
ATOM     76  O   UNL     1      10.531   2.945  22.481  0.00  0.00    -0.387 OA
ATOM     77  H   UNL     1      10.557   3.101  23.439  0.00  0.00    +0.210 HD
ENDBRANCH  75  76
BRANCH  74  78
ATOM     78  O   UNL     1      11.330   0.821  24.307  0.00  0.00    -0.386 OA
ATOM     79  H   UNL     1      12.043   0.927  23.645  0.00  0.00    +0.210 HD
ENDBRANCH  74  78
BRANCH  73  80
ATOM     80  O   UNL     1      10.914  -1.286  22.564  0.00  0.00    -0.384 OA
ATOM     81  H   UNL     1      11.540  -1.496  23.287  0.00  0.00    +0.210 HD
ENDBRANCH  73  80
ENDBRANCH  68  72
ENDBRANCH  67  68
ENDBRANCH  55  67
ENDBRANCH  54  57
ENDBRANCH   1  54
TORSDOF 28
ENDMDL
MODEL 9
REMARK VINA RESULT:      -4.5      2.010      5.380
REMARK  Name = 
REMARK  29 active torsions:
REMARK  status: ('A' for Active; 'I' for Inactive)
REMARK    1  A    between atoms: C_1  and  C_2
REMARK    2  A    between atoms: C_3  and  O_65
REMARK    3  A    between atoms: C_4  and  O_64
REMARK    4  A    between atoms: C_5  and  O_63
REMARK    5  A    between atoms: C_6  and  O_8
REMARK    6  A    between atoms: O_8  and  C_9
REMARK    7  A    between atoms: C_9  and  C_10
REMARK    8  A    between atoms: C_11  and  O_62
REMARK    9  A    between atoms: C_12  and  O_61
REMARK   10  A    between atoms: C_13  and  O_60
REMARK   11  A    between atoms: C_14  and  O_16
REMARK   12  A    between atoms: O_16  and  C_17
REMARK   13  A    between atoms: C_18  and  C_41
REMARK   14  A    between atoms: C_22  and  O_29
REMARK   15  A    between atoms: C_24  and  O_28
REMARK   16  A    between atoms: O_29  and  C_30
REMARK   17  A    between atoms: C_31  and  O_40
REMARK   18  A    between atoms: C_32  and  O_39
REMARK   19  A    between atoms: C_33  and  O_38
REMARK   20  A    between atoms: C_34  and  C_36
REMARK   21  A    between atoms: C_36  and  O_37
REMARK   22  A    between atoms: C_43  and  O_48
REMARK   23  A    between atoms: C_44  and  O_47
REMARK   24  A    between atoms: O_48  and  C_49
REMARK   25  A    between atoms: C_50  and  O_59
REMARK   26  A    between atoms: C_51  and  O_58
REMARK   27  A    between atoms: C_52  and  O_57
REMARK   28  A    between atoms: C_53  and  C_55
REMARK   29  A    between atoms: C_55  and  O_56
REMARK                            x       y       z     vdW  Elec       q    Type
REMARK                         _______ _______ _______ _____ _____    ______ ____
ROOT
ATOM      1  C   UNL     1       7.022  -1.206  23.888  0.00  0.00    +0.214 A 
ATOM      2  C   UNL     1       6.744  -2.383  22.992  0.00  0.00    +0.238 A 
ATOM      3  O   UNL     1       7.360  -2.517  21.942  0.00  0.00    -0.283 OA
ATOM      4  C   UNL     1       5.728  -3.385  23.445  0.00  0.00    +0.109 A 
ATOM      5  C   UNL     1       5.153  -3.211  24.691  0.00  0.00    +0.147 A 
ATOM      6  C   UNL     1       4.196  -4.105  25.209  0.00  0.00    +0.093 A 
ATOM      7  C   UNL     1       3.722  -5.164  24.444  0.00  0.00    +0.131 A 
ATOM      8  C   UNL     1       4.298  -5.361  23.183  0.00  0.00    +0.092 A 
ATOM      9  O   UNL     1       5.469  -2.172  25.507  0.00  0.00    -0.451 OA
ATOM     10  C   UNL     1       5.316  -4.501  22.707  0.00  0.00    +0.135 A 
ATOM     11  C   UNL     1       6.395  -1.228  25.082  0.00  0.00    +0.181 A 
ENDROOT
BRANCH  11  12
ATOM     12  C   UNL     1       6.650  -0.320  26.202  0.00  0.00    +0.025 A 
ATOM     13  C   UNL     1       7.900  -0.460  26.813  0.00  0.00    +0.015 A 
ATOM     14  C   UNL     1       8.106   0.017  28.099  0.00  0.00    +0.050 A 
ATOM     15  C   UNL     1       7.125   0.793  28.704  0.00  0.00    +0.159 A 
ATOM     16  C   UNL     1       5.970   1.157  28.009  0.00  0.00    +0.166 A 
ATOM     17  C   UNL     1       5.672   0.485  26.813  0.00  0.00    +0.061 A 
BRANCH  15  18
ATOM     18  O   UNL     1       7.435   1.302  29.931  0.00  0.00    -0.503 OA
ATOM     19  H   UNL     1       7.945   2.111  29.707  0.00  0.00    +0.292 HD
ENDBRANCH  15  18
BRANCH  16  20
ATOM     20  O   UNL     1       5.126   2.191  28.329  0.00  0.00    -0.457 OA
BRANCH  20  21
ATOM     21  C   UNL     1       4.693   3.054  27.259  0.00  0.00    +0.339 C 
ATOM     22  O   UNL     1       5.788   3.939  26.886  0.00  0.00    -0.331 OA
ATOM     23  C   UNL     1       6.153   4.889  27.906  0.00  0.00    +0.179 C 
ATOM     24  C   UNL     1       4.964   5.811  28.213  0.00  0.00    +0.177 C 
ATOM     25  C   UNL     1       3.759   4.970  28.630  0.00  0.00    +0.180 C 
ATOM     26  C   UNL     1       3.441   3.955  27.531  0.00  0.00    +0.214 C 
BRANCH  26  27
ATOM     27  O   UNL     1       2.195   3.311  27.830  0.00  0.00    -0.383 OA
ATOM     28  H   UNL     1       1.749   3.189  26.964  0.00  0.00    +0.210 HD
ENDBRANCH  26  27
BRANCH  25  29
ATOM     29  O   UNL     1       2.601   5.802  28.814  0.00  0.00    -0.386 OA
ATOM     30  H   UNL     1       2.478   5.881  29.783  0.00  0.00    +0.210 HD
ENDBRANCH  25  29
BRANCH  24  31
ATOM     31  O   UNL     1       4.582   6.580  27.054  0.00  0.00    -0.386 OA
ATOM     32  H   UNL     1       4.963   6.147  26.264  0.00  0.00    +0.210 HD
ENDBRANCH  24  31
BRANCH  23  33
ATOM     33  C   UNL     1       7.355   5.712  27.402  0.00  0.00    +0.190 C 
BRANCH  33  34
ATOM     34  O   UNL     1       7.197   7.107  27.641  0.00  0.00    -0.392 OA
ATOM     35  H   UNL     1       6.836   7.233  28.535  0.00  0.00    +0.210 HD
ENDBRANCH  33  34
ENDBRANCH  23  33
ENDBRANCH  20  21
ENDBRANCH  16  20
ENDBRANCH  11  12
BRANCH  10  36
ATOM     36  O   UNL     1       5.886  -4.774  21.495  0.00  0.00    -0.506 OA
ATOM     37  H   UNL     1       5.872  -5.731  21.331  0.00  0.00    +0.292 HD
ENDBRANCH  10  36
BRANCH   7  38
ATOM     38  O   UNL     1       2.697  -6.017  24.801  0.00  0.00    -0.461 OA
BRANCH  38  39
ATOM     39  C   UNL     1       3.058  -7.191  25.563  0.00  0.00    +0.339 C 
ATOM     40  O   UNL     1       2.487  -8.371  24.989  0.00  0.00    -0.331 OA
ATOM     41  C   UNL     1       1.045  -8.352  25.015  0.00  0.00    +0.179 C 
ATOM     42  C   UNL     1       0.571  -8.392  26.473  0.00  0.00    +0.177 C 
ATOM     43  C   UNL     1       1.132  -7.185  27.247  0.00  0.00    +0.180 C 
ATOM     44  C   UNL     1       2.656  -7.087  27.058  0.00  0.00    +0.214 C 
BRANCH  44  45
ATOM     45  O   UNL     1       3.213  -5.922  27.671  0.00  0.00    -0.383 OA
ATOM     46  H   UNL     1       3.069  -5.164  27.083  0.00  0.00    +0.210 HD
ENDBRANCH  44  45
BRANCH  43  47
ATOM     47  O   UNL     1       0.800  -7.350  28.641  0.00  0.00    -0.386 OA
ATOM     48  H   UNL     1       0.058  -6.735  28.816  0.00  0.00    +0.210 HD
ENDBRANCH  43  47
BRANCH  42  49
ATOM     49  O   UNL     1       1.027  -9.591  27.127  0.00  0.00    -0.386 OA
ATOM     50  H   UNL     1       0.593  -9.643  28.001  0.00  0.00    +0.210 HD
ENDBRANCH  42  49
BRANCH  41  51
ATOM     51  C   UNL     1       0.535  -9.556  24.215  0.00  0.00    +0.190 C 
BRANCH  51  52
ATOM     52  O   UNL     1       0.936 -10.784  24.828  0.00  0.00    -0.392 OA
ATOM     53  H   UNL     1       0.143 -11.234  25.160  0.00  0.00    +0.210 HD
ENDBRANCH  51  52
ENDBRANCH  41  51
ENDBRANCH  38  39
ENDBRANCH   7  38
BRANCH   1  54
ATOM     54  O   UNL     1       7.948  -0.199  23.593  0.00  0.00    -0.453 OA
BRANCH  54  57
ATOM     55  C   UNL     1       7.560   3.043  21.816  0.00  0.00    +0.179 C 
ATOM     56  O   UNL     1       7.605   1.635  22.159  0.00  0.00    -0.331 OA
ATOM     57  C   UNL     1       7.605   1.215  23.548  0.00  0.00    +0.340 C 
ATOM     58  C   UNL     1       8.653   2.007  24.357  0.00  0.00    +0.214 C 
ATOM     59  C   UNL     1       8.414   3.497  24.149  0.00  0.00    +0.180 C 
ATOM     60  C   UNL     1       8.575   3.845  22.663  0.00  0.00    +0.177 C 
BRANCH  60  61
ATOM     61  O   UNL     1       8.431   5.261  22.490  0.00  0.00    -0.386 OA
ATOM     62  H   UNL     1       7.818   5.385  21.738  0.00  0.00    +0.210 HD
ENDBRANCH  60  61
BRANCH  59  63
ATOM     63  O   UNL     1       9.348   4.286  24.895  0.00  0.00    -0.386 OA
ATOM     64  H   UNL     1       9.088   5.217  24.747  0.00  0.00    +0.210 HD
ENDBRANCH  59  63
BRANCH  58  65
ATOM     65  O   UNL     1      10.008   1.714  23.939  0.00  0.00    -0.383 OA
ATOM     66  H   UNL     1      10.057   0.747  23.793  0.00  0.00    +0.210 HD
ENDBRANCH  58  65
BRANCH  55  67
ATOM     67  C   UNL     1       6.179   3.789  21.814  0.00  0.00    +0.197 C 
BRANCH  67  68
ATOM     68  O   UNL     1       5.717   4.436  23.006  0.00  0.00    -0.346 OA
BRANCH  68  72
ATOM     69  C   UNL     1       2.254   6.888  23.680  0.00  0.00    +0.041 C 
ATOM     70  C   UNL     1       2.703   5.692  24.515  0.00  0.00    +0.149 C 
ATOM     71  O   UNL     1       4.067   5.381  24.245  0.00  0.00    -0.343 OA
ATOM     72  C   UNL     1       4.333   4.765  22.997  0.00  0.00    +0.282 C 
ATOM     73  C   UNL     1       3.516   3.455  22.835  0.00  0.00    +0.201 C 
ATOM     74  C   UNL     1       2.024   3.752  23.033  0.00  0.00    +0.179 C 
ATOM     75  C   UNL     1       1.811   4.452  24.389  0.00  0.00    +0.174 C 
BRANCH  75  76
ATOM     76  O   UNL     1       0.444   4.797  24.621  0.00  0.00    -0.387 OA
ATOM     77  H   UNL     1       0.374   5.226  25.489  0.00  0.00    +0.210 HD
ENDBRANCH  75  76
BRANCH  74  78
ATOM     78  O   UNL     1       1.268   2.534  22.983  0.00  0.00    -0.386 OA
ATOM     79  H   UNL     1       1.798   1.876  23.478  0.00  0.00    +0.210 HD
ENDBRANCH  74  78
BRANCH  73  80
ATOM     80  O   UNL     1       3.905   2.469  23.816  0.00  0.00    -0.384 OA
ATOM     81  H   UNL     1       3.073   2.232  24.275  0.00  0.00    +0.210 HD
ENDBRANCH  73  80
ENDBRANCH  68  72
ENDBRANCH  67  68
ENDBRANCH  55  67
ENDBRANCH  54  57
ENDBRANCH   1  54
TORSDOF 28
ENDMDL
